 
data_pvl852-2_a
 
_audit_creation_method            'SHELXL-2018/3'
_shelx_SHELXL_version_number      '2018/3'
_chemical_name_systematic         ?
_chemical_name_common             ?
_chemical_melting_point           ?
_chemical_formula_moiety          ?
_chemical_formula_sum
 'C H N O S Zn' 
_chemical_formula_weight          140.46

loop_
 _atom_type_symbol
 _atom_type_description
 _atom_type_scat_dispersion_real
 _atom_type_scat_dispersion_imag
 _atom_type_scat_source
 'C'  'C'   0.0033   0.0016
 'International Tables Vol C Tables 4.2.6.8 and 6.1.1.4'
 'H'  'H'   0.0000   0.0000
 'International Tables Vol C Tables 4.2.6.8 and 6.1.1.4'
 'N'  'N'   0.0061   0.0033
 'International Tables Vol C Tables 4.2.6.8 and 6.1.1.4'
 'O'  'O'   0.0106   0.0060
 'International Tables Vol C Tables 4.2.6.8 and 6.1.1.4'
 'S'  'S'   0.1246   0.1234
 'International Tables Vol C Tables 4.2.6.8 and 6.1.1.4'
 'Zn'  'Zn'   0.2839   1.4301
 'International Tables Vol C Tables 4.2.6.8 and 6.1.1.4'
 
_space_group_crystal_system       monoclinic
_space_group_IT_number            14
_space_group_name_H-M_alt         'P 21/c'
_space_group_name_Hall            '-P 2ybc'
 
_shelx_space_group_comment
;
The symmetry employed for this shelxl refinement is uniquely defined
by the following loop, which should always be used as a source of
symmetry information in preference to the above space-group names.
They are only intended as comments.
;
 
loop_
 _space_group_symop_operation_xyz
 'x, y, z'
 '-x, y+1/2, -z+1/2'
 '-x, -y, -z'
 'x, -y-1/2, z-1/2'
 
_cell_length_a                    9.6727(2)
_cell_length_b                    14.6773(3)
_cell_length_c                    20.7025(5)
_cell_angle_alpha                 90
_cell_angle_beta                  99.5010(10)
_cell_angle_gamma                 90
_cell_volume                      2898.80(11)
_cell_formula_units_Z             27
_cell_measurement_temperature     150(2)
_cell_measurement_reflns_used     ?
_cell_measurement_theta_min       ?
_cell_measurement_theta_max       ?
 
_exptl_crystal_description        ?
_exptl_crystal_colour             ?
_exptl_crystal_density_meas       ?
_exptl_crystal_density_method     ?
_exptl_crystal_density_diffrn     2.172          
_exptl_crystal_F_000              1836
_exptl_transmission_factor_min    ?
_exptl_transmission_factor_max    ?
_exptl_crystal_size_max           ?
_exptl_crystal_size_mid           ?
_exptl_crystal_size_min           ?
_exptl_absorpt_coefficient_mu     6.013
_shelx_estimated_absorpt_T_min    ?
_shelx_estimated_absorpt_T_max    ?
_exptl_absorpt_correction_type    ?
_exptl_absorpt_correction_T_min   ?
_exptl_absorpt_correction_T_max   ?
_exptl_absorpt_process_details    ?
_exptl_absorpt_special_details    ?
_diffrn_ambient_temperature       150(2)
_diffrn_radiation_wavelength      0.71073
_diffrn_radiation_type            MoK\a
_diffrn_source                    ?
_diffrn_measurement_device_type   ?
_diffrn_measurement_method        ?
_diffrn_detector_area_resol_mean  ?
_diffrn_reflns_number             31485
_diffrn_reflns_av_unetI/netI      0.0328
_diffrn_reflns_av_R_equivalents   0.0337
_diffrn_reflns_limit_h_min        -11
_diffrn_reflns_limit_h_max        12
_diffrn_reflns_limit_k_min        -19
_diffrn_reflns_limit_k_max        19
_diffrn_reflns_limit_l_min        -27
_diffrn_reflns_limit_l_max        27
_diffrn_reflns_theta_min          1.709
_diffrn_reflns_theta_max          28.332
_diffrn_reflns_theta_full         25.242
_diffrn_measured_fraction_theta_max   0.996
_diffrn_measured_fraction_theta_full  0.998
_diffrn_reflns_Laue_measured_fraction_max    0.996
_diffrn_reflns_Laue_measured_fraction_full   0.998
_diffrn_reflns_point_group_measured_fraction_max   0.996
_diffrn_reflns_point_group_measured_fraction_full  0.998
_reflns_number_total              7210
_reflns_number_gt                 5999
_reflns_threshold_expression      'I > 2\s(I)'
_reflns_Friedel_coverage          0.000
_reflns_Friedel_fraction_max      .
_reflns_Friedel_fraction_full     .
 
_reflns_special_details
;
 Reflections were merged by SHELXL according to the crystal
 class for the calculation of statistics and refinement.
 
 _reflns_Friedel_fraction is defined as the number of unique
 Friedel pairs measured divided by the number that would be
 possible theoretically, ignoring centric projections and
 systematic absences.
;
 
_computing_data_collection        ?
_computing_cell_refinement        ?
_computing_data_reduction         ?
_computing_structure_solution     'SHELXT 2018/2 (Sheldrick, 2018)'
_computing_structure_refinement 'SHELXL-2018/3 (Sheldrick, 2018)'
_computing_molecular_graphics     ?
_computing_publication_material   ?
_refine_special_details           ?
_refine_ls_structure_factor_coef  Fsqd
_refine_ls_matrix_type            full
_refine_ls_weighting_scheme       calc
_refine_ls_weighting_details
'w=1/[\s^2^(Fo^2^)+(0.1256P)^2^+10.4487P] where P=(Fo^2^+2Fc^2^)/3'
_atom_sites_solution_primary      ?
_atom_sites_solution_secondary    ?
_atom_sites_solution_hydrogens    geom
_refine_ls_hydrogen_treatment     constr
_refine_ls_extinction_method      none
_refine_ls_extinction_coef        .
_refine_ls_number_reflns          7210
_refine_ls_number_parameters      325
_refine_ls_number_restraints      0
_refine_ls_R_factor_all           0.0984
_refine_ls_R_factor_gt            0.0875
_refine_ls_wR_factor_ref          0.2807
_refine_ls_wR_factor_gt           0.2736
_refine_ls_goodness_of_fit_ref    1.319
_refine_ls_restrained_S_all       1.319
_refine_ls_shift/su_max           0.000
_refine_ls_shift/su_mean          0.000
 
loop_
 _atom_site_label
 _atom_site_type_symbol
 _atom_site_fract_x
 _atom_site_fract_y
 _atom_site_fract_z
 _atom_site_U_iso_or_equiv
 _atom_site_adp_type
 _atom_site_occupancy
 _atom_site_site_symmetry_order  
 _atom_site_calc_flag
 _atom_site_refinement_flags_posn
 _atom_site_refinement_flags_adp
 _atom_site_refinement_flags_occupancy
 _atom_site_disorder_assembly
 _atom_site_disorder_group
Zn1 Zn 0.22609(6) 0.20495(4) 0.36384(3) 0.0230(2) Uani 1 1 d . . . . .
S1 S 0.77965(14) 0.12678(10) 0.59879(7) 0.0314(3) Uani 1 1 d . . . . .
O1 O 0.3003(5) 0.3013(3) 0.3138(2) 0.0358(9) Uani 1 1 d . . . . .
O2 O 0.7150(4) 0.5783(3) 0.1475(2) 0.0327(9) Uani 1 1 d . . . . .
O3 O 0.5085(4) 0.6418(3) 0.1106(2) 0.0340(9) Uani 1 1 d . . . . .
O4 O 0.2235(5) 0.2256(3) 0.2223(2) 0.0378(10) Uani 1 1 d . . . . .
N1 N 0.2596(4) 0.2553(3) 0.4558(2) 0.0249(9) Uani 1 1 d . . . . .
N2 N 0.6314(5) 0.1730(3) 0.5687(2) 0.0276(9) Uani 1 1 d . . . . .
N3 N 0.8065(4) 0.3044(3) 0.7771(2) 0.0242(9) Uani 1 1 d . . . . .
N4 N 1.0152(5) 0.3035(3) 0.8388(2) 0.0279(9) Uani 1 1 d . . . . .
N6 N 0.3756(4) 0.2887(3) 0.5532(2) 0.0241(9) Uani 1 1 d . . . . .
N8 N 0.8191(4) 0.1808(3) 0.6668(2) 0.0267(9) Uani 1 1 d . . . . .
C1 C 0.9463(5) 0.2902(4) 0.7794(3) 0.0270(11) Uani 1 1 d . . . . .
H1 H 0.988319 0.273055 0.742874 0.032 Uiso 1 1 calc R U . . .
C2 C 0.9166(6) 0.3280(5) 0.8770(3) 0.0378(14) Uani 1 1 d . . . . .
H2 H 0.936578 0.341572 0.922491 0.045 Uiso 1 1 calc R U . . .
C3 C 0.7012(5) 0.3009(4) 0.7209(2) 0.0228(9) Uani 1 1 d . . . . .
C4 C 0.5865(5) 0.3554(4) 0.7148(3) 0.0291(11) Uani 1 1 d . . . . .
H4 H 0.577791 0.397564 0.748782 0.035 Uiso 1 1 calc R U . . .
C5 C 0.4781(5) 0.3512(4) 0.6587(3) 0.0276(10) Uani 1 1 d . . . . .
H5 H 0.399315 0.390366 0.656531 0.033 Uiso 1 1 calc R U . . .
C6 C 0.4849(5) 0.2925(3) 0.6084(2) 0.0221(9) Uani 1 1 d . . . . .
C7 C 0.6046(5) 0.2355(4) 0.6127(2) 0.0206(9) Uani 1 1 d . . . . .
C8 C 0.7128(5) 0.2395(4) 0.6692(2) 0.0216(9) Uani 1 1 d . . . . .
C9 C 0.3759(5) 0.2417(4) 0.4971(2) 0.0234(9) Uani 1 1 d . . . . .
H9 H 0.450542 0.203835 0.488698 0.028 Uiso 1 1 calc R U . . .
C10 C 0.1783(7) 0.3143(5) 0.4865(3) 0.0378(14) Uani 1 1 d . . . . .
H10 H 0.088268 0.336505 0.467933 0.045 Uiso 1 1 calc R U . . .
C11 C 0.2880(6) 0.2888(4) 0.2520(3) 0.0287(11) Uani 1 1 d . . . . .
C12 C 0.3622(5) 0.3598(4) 0.2171(2) 0.0247(10) Uani 1 1 d . . . . .
C13 C 0.3030(5) 0.3936(4) 0.1530(2) 0.0240(10) Uani 1 1 d . . . . .
C14 C 0.3787(5) 0.4609(4) 0.1233(2) 0.0242(10) Uani 1 1 d . . . . .
C15 C 0.5094(5) 0.4941(4) 0.1576(2) 0.0248(10) Uani 1 1 d . . . . .
C16 C 0.5660(6) 0.4564(4) 0.2177(3) 0.0288(11) Uani 1 1 d . . . . .
H16 H 0.655799 0.475410 0.239087 0.035 Uiso 1 1 calc R U . . .
C17 C 0.4912(6) 0.3903(4) 0.2470(3) 0.0288(11) Uani 1 1 d . . . . .
H17 H 0.530841 0.366145 0.288508 0.035 Uiso 1 1 calc R U . . .
C18 C 0.5810(6) 0.5768(4) 0.1358(2) 0.0280(11) Uani 1 1 d . . . . .
C19 C 0.1715(6) 0.3628(4) 0.1183(3) 0.0300(11) Uani 1 1 d . . . . .
H19 H 0.118627 0.319519 0.138068 0.036 Uiso 1 1 calc R U . . .
C20 C 0.1205(6) 0.3948(4) 0.0571(3) 0.0323(12) Uani 1 1 d . . . . .
H20 H 0.032336 0.374047 0.034871 0.039 Uiso 1 1 calc R U . . .
C21 C 0.1979(6) 0.4584(4) 0.0267(3) 0.0325(12) Uani 1 1 d . . . . .
H21 H 0.163141 0.478480 -0.016520 0.039 Uiso 1 1 calc R U . . .
C22 C 0.3230(6) 0.4916(4) 0.0590(2) 0.0288(11) Uani 1 1 d . . . . .
H22 H 0.373048 0.535510 0.038187 0.035 Uiso 1 1 calc R U . . .
C25 C 0.2474(6) 0.3353(5) 0.5470(3) 0.0391(14) Uani 1 1 d . . . . .
H25 H 0.215676 0.373449 0.578614 0.047 Uiso 1 1 calc R U . . .
C26 C 0.7867(6) 0.3299(5) 0.8399(3) 0.0332(12) Uani 1 1 d . . . . .
H26 H 0.700774 0.345212 0.853700 0.040 Uiso 1 1 calc R U . . .
 
loop_
 _atom_site_aniso_label
 _atom_site_aniso_U_11
 _atom_site_aniso_U_22
 _atom_site_aniso_U_33
 _atom_site_aniso_U_23
 _atom_site_aniso_U_13
 _atom_site_aniso_U_12
Zn1 0.0201(3) 0.0282(3) 0.0176(3) 0.0029(2) -0.0059(2) 0.0010(2)
S1 0.0214(6) 0.0425(8) 0.0279(6) -0.0140(6) -0.0032(5) 0.0066(5)
O1 0.046(3) 0.037(2) 0.0245(19) 0.0091(16) 0.0061(17) 0.0017(18)
O2 0.0248(19) 0.032(2) 0.040(2) -0.0039(17) 0.0009(16) -0.0041(15)
O3 0.035(2) 0.032(2) 0.036(2) 0.0045(17) 0.0097(17) 0.0006(16)
O4 0.034(2) 0.042(2) 0.038(2) 0.0040(19) 0.0094(18) -0.0063(18)
N1 0.021(2) 0.033(2) 0.0172(18) 0.0006(17) -0.0051(15) -0.0005(17)
N2 0.021(2) 0.037(2) 0.023(2) -0.0074(18) -0.0015(16) 0.0010(17)
N3 0.018(2) 0.035(2) 0.0178(19) -0.0068(16) -0.0020(15) 0.0018(16)
N4 0.021(2) 0.039(3) 0.021(2) -0.0037(18) -0.0055(16) -0.0004(17)
N6 0.020(2) 0.032(2) 0.0187(19) -0.0019(16) -0.0030(15) 0.0012(16)
N8 0.019(2) 0.033(2) 0.026(2) -0.0084(18) -0.0011(16) 0.0033(17)
C1 0.019(2) 0.037(3) 0.022(2) -0.005(2) -0.0049(18) -0.0015(19)
C2 0.028(3) 0.062(4) 0.021(2) -0.011(3) -0.003(2) 0.004(3)
C3 0.018(2) 0.030(2) 0.019(2) -0.0025(18) -0.0023(17) -0.0022(18)
C4 0.022(2) 0.040(3) 0.023(2) -0.011(2) -0.0039(18) 0.005(2)
C5 0.022(2) 0.034(3) 0.024(2) -0.006(2) -0.0029(18) 0.005(2)
C6 0.017(2) 0.028(2) 0.019(2) -0.0003(18) -0.0020(17) -0.0028(17)
C7 0.017(2) 0.029(2) 0.0144(19) -0.0023(17) -0.0009(16) -0.0019(17)
C8 0.014(2) 0.030(2) 0.020(2) -0.0021(18) -0.0005(16) -0.0013(17)
C9 0.019(2) 0.034(3) 0.016(2) 0.0013(18) -0.0024(16) -0.0025(18)
C10 0.031(3) 0.045(3) 0.031(3) -0.005(2) -0.013(2) 0.012(2)
C11 0.027(3) 0.034(3) 0.026(2) 0.006(2) 0.005(2) 0.004(2)
C12 0.023(2) 0.031(3) 0.020(2) 0.0030(19) 0.0023(17) 0.0047(19)
C13 0.023(2) 0.032(3) 0.018(2) 0.0025(18) 0.0037(17) 0.0027(19)
C14 0.025(2) 0.027(2) 0.021(2) 0.0009(18) 0.0045(18) 0.0047(19)
C15 0.024(2) 0.027(2) 0.023(2) -0.0027(19) 0.0025(18) -0.0019(19)
C16 0.027(3) 0.033(3) 0.025(2) -0.002(2) 0.0013(19) 0.001(2)
C17 0.031(3) 0.032(3) 0.022(2) 0.001(2) 0.0020(19) 0.005(2)
C18 0.033(3) 0.029(3) 0.023(2) -0.005(2) 0.006(2) -0.004(2)
C19 0.023(2) 0.040(3) 0.027(3) 0.003(2) 0.006(2) 0.000(2)
C20 0.026(3) 0.044(3) 0.026(2) 0.001(2) 0.002(2) 0.002(2)
C21 0.036(3) 0.037(3) 0.023(2) 0.002(2) 0.000(2) 0.002(2)
C22 0.037(3) 0.029(3) 0.020(2) 0.0028(19) 0.004(2) -0.001(2)
C25 0.030(3) 0.049(4) 0.034(3) -0.014(3) -0.009(2) 0.016(3)
C26 0.026(3) 0.054(4) 0.018(2) -0.009(2) -0.0014(19) 0.005(2)
 
_geom_special_details
;
 All esds (except the esd in the dihedral angle between two l.s. planes)
 are estimated using the full covariance matrix.  The cell esds are taken
 into account individually in the estimation of esds in distances, angles
 and torsion angles; correlations between esds in cell parameters are only
 used when they are defined by crystal symmetry.  An approximate (isotropic)
 treatment of cell esds is used for estimating esds involving l.s. planes.
;
 
loop_
 _geom_bond_atom_site_label_1
 _geom_bond_atom_site_label_2
 _geom_bond_distance
 _geom_bond_site_symmetry_2
 _geom_bond_publ_flag
Zn1 O1 1.959(4) . ?
Zn1 O2 1.970(4) 2_645 ?
Zn1 N1 2.018(4) . ?
Zn1 N4 2.024(4) 4_465 ?
S1 N8 1.606(4) . ?
S1 N2 1.615(5) . ?
O1 C11 1.278(7) . ?
O2 C18 1.278(7) . ?
O3 C18 1.247(7) . ?
O4 C11 1.226(7) . ?
N1 C9 1.311(6) . ?
N1 C10 1.392(8) . ?
N2 C7 1.348(6) . ?
N3 C1 1.361(7) . ?
N3 C26 1.394(6) . ?
N3 C3 1.416(6) . ?
N4 C1 1.313(6) . ?
N4 C2 1.384(7) . ?
N6 C9 1.352(6) . ?
N6 C25 1.403(7) . ?
N6 C6 1.424(6) . ?
N8 C8 1.349(6) . ?
C2 C26 1.361(8) . ?
C3 C4 1.357(7) . ?
C3 C8 1.417(7) . ?
C4 C5 1.432(7) . ?
C5 C6 1.361(7) . ?
C6 C7 1.420(7) . ?
C7 C8 1.436(6) . ?
C10 C25 1.353(8) . ?
C11 C12 1.515(7) . ?
C12 C17 1.373(8) . ?
C12 C13 1.443(7) . ?
C13 C14 1.429(7) . ?
C13 C19 1.428(7) . ?
C14 C22 1.424(7) . ?
C14 C15 1.430(7) . ?
C15 C16 1.387(7) . ?
C15 C18 1.504(7) . ?
C16 C17 1.407(8) . ?
C19 C20 1.364(8) . ?
C20 C21 1.408(8) . ?
C21 C22 1.371(8) . ?
 
loop_
 _geom_angle_atom_site_label_1
 _geom_angle_atom_site_label_2
 _geom_angle_atom_site_label_3
 _geom_angle
 _geom_angle_site_symmetry_1
 _geom_angle_site_symmetry_3
 _geom_angle_publ_flag
O1 Zn1 O2 118.68(18) . 2_645 ?
O1 Zn1 N1 102.64(18) . . ?
O2 Zn1 N1 116.98(18) 2_645 . ?
O1 Zn1 N4 110.52(19) . 4_465 ?
O2 Zn1 N4 102.20(18) 2_645 4_465 ?
N1 Zn1 N4 105.19(18) . 4_465 ?
N8 S1 N2 101.4(2) . . ?
C11 O1 Zn1 116.3(4) . . ?
C18 O2 Zn1 107.3(4) . 2_655 ?
C9 N1 C10 106.5(4) . . ?
C9 N1 Zn1 123.1(4) . . ?
C10 N1 Zn1 130.1(3) . . ?
C7 N2 S1 106.4(3) . . ?
C1 N3 C26 107.3(4) . . ?
C1 N3 C3 126.7(4) . . ?
C26 N3 C3 125.8(4) . . ?
C1 N4 C2 106.4(4) . . ?
C1 N4 Zn1 124.4(4) . 4_666 ?
C2 N4 Zn1 129.0(4) . 4_666 ?
C9 N6 C25 107.3(4) . . ?
C9 N6 C6 127.1(4) . . ?
C25 N6 C6 125.7(4) . . ?
C8 N8 S1 106.0(3) . . ?
N4 C1 N3 111.0(5) . . ?
C26 C2 N4 109.9(5) . . ?
C4 C3 C8 118.1(4) . . ?
C4 C3 N3 121.4(5) . . ?
C8 C3 N3 120.5(4) . . ?
C3 C4 C5 121.8(5) . . ?
C6 C5 C4 121.8(5) . . ?
C5 C6 N6 121.0(5) . . ?
C5 C6 C7 117.8(4) . . ?
N6 C6 C7 121.2(4) . . ?
N2 C7 C6 127.2(4) . . ?
N2 C7 C8 112.5(4) . . ?
C6 C7 C8 120.3(4) . . ?
N8 C8 C3 126.2(4) . . ?
N8 C8 C7 113.6(4) . . ?
C3 C8 C7 120.2(4) . . ?
N1 C9 N6 111.1(5) . . ?
C25 C10 N1 109.5(5) . . ?
O4 C11 O1 124.5(5) . . ?
O4 C11 C12 121.5(5) . . ?
O1 C11 C12 113.9(5) . . ?
C17 C12 C13 119.7(5) . . ?
C17 C12 C11 118.4(5) . . ?
C13 C12 C11 121.8(5) . . ?
C14 C13 C19 118.6(5) . . ?
C14 C13 C12 118.7(5) . . ?
C19 C13 C12 122.7(5) . . ?
C22 C14 C13 118.7(5) . . ?
C22 C14 C15 121.6(5) . . ?
C13 C14 C15 119.6(4) . . ?
C16 C15 C14 119.7(5) . . ?
C16 C15 C18 117.2(5) . . ?
C14 C15 C18 122.6(5) . . ?
C15 C16 C17 120.4(5) . . ?
C12 C17 C16 121.6(5) . . ?
O3 C18 O2 123.3(5) . . ?
O3 C18 C15 119.2(5) . . ?
O2 C18 C15 117.4(5) . . ?
C20 C19 C13 121.0(5) . . ?
C19 C20 C21 120.3(5) . . ?
C22 C21 C20 120.7(5) . . ?
C21 C22 C14 120.6(5) . . ?
C10 C25 N6 105.6(5) . . ?
C2 C26 N3 105.4(5) . . ?
 
_refine_diff_density_max    3.479
_refine_diff_density_min   -0.556
_refine_diff_density_rms    0.251

_shelx_res_file
;
TITL pvl852-2_a.res in P2(1)/c
    pvl852-2_a.res
    created by SHELXL-2018/3 at 23:57:14 on 25-Oct-2022
REM Old TITL pvl852-2 in P2(1)/c
REM SHELXT solution in P2(1)/c: R1 0.162, Rweak 0.007, Alpha 0.063
REM <I/s>   1.230 for  246 systematic absences,  Orientation as input
REM Formula found by SHELXT:  C26 N6 O4 S Zn
CELL  0.71073   9.6727  14.6773  20.7025   90.000   99.501   90.000
ZERR   27.000   0.0002   0.0003   0.0005    0.000    0.001    0.000
LATT  1
SYMM -X, 1/2+Y, 1/2-Z
SFAC C H N O S ZN
UNIT 27 27 27 27 27 27
ACTA
TEMP -123.150
L.S. 10
BOND
LIST 6
FMAP 2
PLAN 20
WGHT    0.125600   10.448700
FVAR       0.28593
ZN1   6    0.226088    0.204946    0.363840    11.00000    0.02006    0.02824 =
         0.01758    0.00291   -0.00588    0.00099
S1    5    0.779650    0.126782    0.598786    11.00000    0.02137    0.04248 =
         0.02787   -0.01397   -0.00318    0.00665
O1    4    0.300329    0.301344    0.313787    11.00000    0.04646    0.03661 =
         0.02451    0.00906    0.00612    0.00165
O2    4    0.714964    0.578258    0.147513    11.00000    0.02483    0.03171 =
         0.03994   -0.00392    0.00087   -0.00406
O3    4    0.508466    0.641833    0.110616    11.00000    0.03465    0.03213 =
         0.03638    0.00453    0.00970    0.00057
O4    4    0.223492    0.225585    0.222325    11.00000    0.03408    0.04234 =
         0.03812    0.00403    0.00939   -0.00631
N1    3    0.259573    0.255292    0.455789    11.00000    0.02123    0.03336 =
         0.01718    0.00056   -0.00511   -0.00049
N2    3    0.631392    0.172984    0.568710    11.00000    0.02137    0.03678 =
         0.02293   -0.00742   -0.00147    0.00100
N3    3    0.806503    0.304428    0.777143    11.00000    0.01836    0.03469 =
         0.01784   -0.00682   -0.00197    0.00177
N4    3    1.015187    0.303451    0.838797    11.00000    0.02053    0.03896 =
         0.02129   -0.00366   -0.00552   -0.00042
N6    3    0.375584    0.288732    0.553245    11.00000    0.01953    0.03204 =
         0.01867   -0.00186   -0.00305    0.00119
N8    3    0.819100    0.180795    0.666775    11.00000    0.01911    0.03323 =
         0.02616   -0.00839   -0.00106    0.00331
C1    1    0.946257    0.290234    0.779401    11.00000    0.01871    0.03705 =
         0.02249   -0.00532   -0.00485   -0.00153
AFIX  43
H1    2    0.988319    0.273055    0.742874    11.00000   -1.20000
AFIX   0
C2    1    0.916573    0.328012    0.877035    11.00000    0.02792    0.06199 =
         0.02100   -0.01111   -0.00331    0.00381
AFIX  43
H2    2    0.936578    0.341572    0.922491    11.00000   -1.20000
AFIX   0
C3    1    0.701180    0.300897    0.720877    11.00000    0.01774    0.03033 =
         0.01868   -0.00254   -0.00227   -0.00223
C4    1    0.586451    0.355426    0.714848    11.00000    0.02217    0.04008 =
         0.02259   -0.01115   -0.00389    0.00528
AFIX  43
H4    2    0.577791    0.397564    0.748782    11.00000   -1.20000
AFIX   0
C5    1    0.478101    0.351163    0.658720    11.00000    0.02180    0.03435 =
         0.02425   -0.00580   -0.00293    0.00485
AFIX  43
H5    2    0.399315    0.390366    0.656531    11.00000   -1.20000
AFIX   0
C6    1    0.484863    0.292501    0.608420    11.00000    0.01740    0.02849 =
         0.01882   -0.00031   -0.00203   -0.00276
C7    1    0.604617    0.235475    0.612723    11.00000    0.01698    0.02908 =
         0.01441   -0.00227   -0.00089   -0.00186
C8    1    0.712797    0.239483    0.669234    11.00000    0.01440    0.02965 =
         0.01961   -0.00209   -0.00046   -0.00126
C9    1    0.375881    0.241720    0.497105    11.00000    0.01869    0.03410 =
         0.01551    0.00129   -0.00241   -0.00254
AFIX  43
H9    2    0.450542    0.203835    0.488698    11.00000   -1.20000
AFIX   0
C10   1    0.178332    0.314326    0.486541    11.00000    0.03134    0.04511 =
         0.03103   -0.00501   -0.01261    0.01211
AFIX  43
H10   2    0.088268    0.336505    0.467933    11.00000   -1.20000
AFIX   0
C11   1    0.287956    0.288839    0.252023    11.00000    0.02709    0.03351 =
         0.02587    0.00607    0.00535    0.00363
C12   1    0.362221    0.359805    0.217069    11.00000    0.02278    0.03126 =
         0.01952    0.00299    0.00233    0.00471
C13   1    0.303044    0.393573    0.153019    11.00000    0.02300    0.03160 =
         0.01756    0.00254    0.00368    0.00271
C14   1    0.378685    0.460934    0.123261    11.00000    0.02542    0.02690 =
         0.02058    0.00086    0.00447    0.00471
C15   1    0.509387    0.494060    0.157615    11.00000    0.02433    0.02683 =
         0.02272   -0.00266    0.00247   -0.00190
C16   1    0.565962    0.456411    0.217651    11.00000    0.02689    0.03302 =
         0.02540   -0.00208    0.00130    0.00051
AFIX  43
H16   2    0.655799    0.475410    0.239087    11.00000   -1.20000
AFIX   0
C17   1    0.491162    0.390280    0.246995    11.00000    0.03065    0.03231 =
         0.02250    0.00065    0.00197    0.00470
AFIX  43
H17   2    0.530841    0.366145    0.288508    11.00000   -1.20000
AFIX   0
C18   1    0.581035    0.576750    0.135789    11.00000    0.03253    0.02950 =
         0.02251   -0.00528    0.00567   -0.00364
C19   1    0.171471    0.362848    0.118288    11.00000    0.02332    0.04040 =
         0.02709    0.00309    0.00634    0.00007
AFIX  43
H19   2    0.118627    0.319519    0.138068    11.00000   -1.20000
AFIX   0
C20   1    0.120513    0.394805    0.057101    11.00000    0.02595    0.04408 =
         0.02589    0.00104    0.00181    0.00204
AFIX  43
H20   2    0.032336    0.374047    0.034871    11.00000   -1.20000
AFIX   0
C21   1    0.197927    0.458390    0.026732    11.00000    0.03609    0.03673 =
         0.02302    0.00201   -0.00016    0.00228
AFIX  43
H21   2    0.163141    0.478480   -0.016520    11.00000   -1.20000
AFIX   0
C22   1    0.323038    0.491618    0.058954    11.00000    0.03710    0.02929 =
         0.01965    0.00282    0.00392   -0.00066
AFIX  43
H22   2    0.373048    0.535510    0.038187    11.00000   -1.20000
REM #####
REM #####
AFIX   0
C25   1    0.247381    0.335257    0.547013    11.00000    0.02980    0.04877 =
         0.03407   -0.01376   -0.00868    0.01585
AFIX  43
H25   2    0.215676    0.373449    0.578614    11.00000   -1.20000
AFIX   0
C26   1    0.786707    0.329855    0.839855    11.00000    0.02624    0.05375 =
         0.01795   -0.00864   -0.00142    0.00456
AFIX  43
H26   2    0.700774    0.345212    0.853700    11.00000   -1.20000
REM #####
AFIX   0
HKLF 4




REM  pvl852-2_a.res in P2(1)/c
REM wR2 = 0.2807, GooF = S = 1.319, Restrained GooF = 1.319 for all data
REM R1 = 0.0875 for 5999 Fo > 4sig(Fo) and 0.0984 for all 7210 data
REM 325 parameters refined using 0 restraints

END

WGHT      0.1604     14.5115

REM Highest difference peak  3.479,  deepest hole -0.556,  1-sigma level  0.251
Q1    1   0.1352  0.4480  0.6725  11.00000  0.05    3.48
Q2    1   1.0228  0.4810  0.2661  11.00000  0.05    2.95
Q3    1   0.3634  0.4624  0.3923  11.00000  0.05    2.69
Q4    1   0.9421  0.4776  0.3065  11.00000  0.05    2.39
Q5    1  -0.1820  0.3907  0.4534  11.00000  0.05    2.12
Q6    1   0.8344  0.4047  0.5844  11.00000  0.05    2.08
Q7    1   0.6790  0.3534  0.4354  11.00000  0.05    2.08
Q8    1   0.0845  0.4987  0.6296  11.00000  0.05    1.69
Q9    1   0.5696  0.4222  0.4414  11.00000  0.05    1.51
Q10   1   0.3270  0.5560  0.5972  11.00000  0.05    1.30
Q11   1   0.6648  0.3990  0.4715  11.00000  0.05    1.25
Q12   1   0.9360  0.4994  0.6780  11.00000  0.05    1.17
Q13   1  -0.2144  0.3852  0.4981  11.00000  0.05    0.90
Q14   1   0.5784  0.4429  0.4857  11.00000  0.05    0.81
Q15   1   0.2020  0.5020  0.3625  11.00000  0.05    0.75
Q16   1   0.7708  0.4235  0.5361  11.00000  0.05    0.73
Q17   1   0.8037  0.1738  0.5805  11.00000  0.05    0.47
Q18   1   0.7563  0.1226  0.6461  11.00000  0.05    0.44
Q19   1   0.6370  0.2299  0.6374  11.00000  0.05    0.38
Q20   1   0.1964  0.3831  0.2898  11.00000  0.05    0.36
;
_shelx_res_checksum   17261

_shelx_hkl_file
;
  -2   0   0 4621.34  182.28
  -2   0   0 4670.53  145.89
   2   0   0 4733.13  146.09
   2   0   0 4823.92  195.88
   3   0   0  305.07   10.20
  -3   0   0  290.97   10.00
   4   0   0 1888.31   57.69
  -4   0   0 1883.61   57.59
   5   0   0  608.54   19.90
  -5   0   0  577.14   19.60
  -6   0   0   44.30    3.20
   6   0   0   51.39    3.70
   8   0   0   50.59    4.50
   9   0   0   25.70    4.00
  10   0   0  150.58    8.80
  11   0   0  103.49    8.70
  12   0   0   58.59    6.80
   0   1   0    0.00    0.10
   1  -1   0 1339.47   48.70
  -1  -1   0 1321.57   55.89
   1  -1   0 1353.56   64.19
  -1  -1   0 1343.07   44.90
   1   1   0 1352.96   54.99
  -1   1   0 1371.66   65.09
   1   1   0 1327.37   44.80
  -1   1   0 1364.46   43.70
   2  -1   0   85.99    3.50
  -2  -1   0   87.19    3.50
   2  -1   0   89.99    2.90
  -2  -1   0   87.99    2.90
   2   1   0   89.99    2.90
  -2   1   0   90.19    2.90
   2   1   0   87.29    3.50
  -3  -1   0  942.61   28.20
  -3  -1   0  937.51   29.20
   3  -1   0  942.61   29.20
   3  -1   0  945.41   28.10
  -3  -1   0  954.40   28.20
   3  -1   0  962.10   28.10
  -3   1   0  912.91   29.10
   3   1   0  940.41   29.30
  -4  -1   0   32.10    2.40
   4  -1   0   32.40    2.50
   4   1   0   33.50    2.60
  -4   1   0   33.10    2.30
  -5  -1   0  265.17    9.90
   5  -1   0  265.47   10.00
   5   1   0  261.87   10.00
  -5   1   0  263.77    9.80
   6  -1   0    3.70    1.60
  -6  -1   0    2.90    1.40
   6   1   0    6.10    1.80
  -6   1   0    2.10    1.10
   7   1   0   92.09    5.70
   8  -1   0  118.89    6.80
   8   1   0  113.89    6.70
   9  -1   0  221.48   10.60
   9   1   0  234.68   10.90
  10  -1   0   15.50    3.50
  10   1   0   17.10    3.70
  11  -1   0    2.50    3.60
  11   1   0    1.60    2.90
  12  -1   0   25.80    5.20
  12   1   0   24.10    5.00
   0  -2   0 3861.31  120.69
   0  -2   0 3832.82  130.89
   0   2   0 3913.91  120.89
   0   2   0 3835.72  131.09
  -1  -2   0    1.50    0.50
   1  -2   0    1.70    0.50
   1  -2   0    1.10    0.40
  -1  -2   0    0.90    0.50
   1   2   0    1.30    0.50
  -1   2   0    1.00    0.50
   1   2   0    1.40    0.60
  -1   2   0    0.70    0.50
  -2  -2   0 3112.09  105.69
   2  -2   0 3315.17  145.19
  -2  -2   0 3230.78  130.09
   2  -2   0 3328.07  103.99
   2   2   0 3334.27  126.69
  -2   2   0 3113.09  162.98
   2   2   0 3241.98  109.49
   3  -2   0   20.30    1.70
   3  -2   0   17.30    1.10
  -3  -2   0   21.00    1.80
  -3  -2   0   17.90    1.20
   3   2   0   19.60    1.20
   3   2   0   19.30    1.80
  -3   2   0   18.80    1.60
  -3   2   0   19.70    1.10
   4  -2   0  881.91   26.20
  -4  -2   0  894.01   26.30
  -4  -2   0  842.02   27.50
   4  -2   0  876.91   26.20
  -4  -2   0  873.61   26.30
   4  -2   0  864.51   27.50
   4   2   0  865.11   27.60
  -4   2   0  852.11   27.30
   5  -2   0  412.46   12.40
   5  -2   0  415.26   12.40
  -5  -2   0  417.26   12.60
  -5  -2   0  407.36   12.50
   5  -2   0  411.66   14.30
   5   2   0  400.26   14.40
  -5   2   0  389.06   14.00
  -6  -2   0  129.79    6.30
   6  -2   0  138.29    6.50
   6   2   0  142.09    6.60
  -6   2   0  126.49    6.00
   7   2   0  271.57   11.20
   8  -2   0   64.79    5.10
   8   2   0   67.49    5.20
   9  -2   0   12.40    3.20
   9   2   0   20.70    3.90
  10  -2   0    9.30    3.00
  10   2   0    7.80    3.10
  11  -2   0   14.90    4.80
  11   2   0   13.10    3.90
  12  -2   0   28.70    5.50
  12   2   0   17.70    4.50
   0  -3   0    0.50    0.40
   0   3   0    0.60    0.70
   0   3   0    0.60    0.50
   1  -3   0  646.74   19.90
  -1  -3   0  662.43   20.30
   1   3   0  647.14   20.00
  -1   3   0  653.73   20.00
   1   3   0  643.84   20.00
  -1   3   0  644.34   19.90
   2  -3   0   16.50    1.60
   2  -3   0   21.20    1.60
   2  -3   0   17.80    1.40
  -2  -3   0   19.30    1.60
   2   3   0   19.70    1.60
  -2   3   0   18.10    1.40
   2   3   0   16.80    1.40
   3  -3   0  964.20   28.20
   3  -3   0  911.41   28.60
   3  -3   0  906.11   28.60
  -3  -3   0  882.31   28.70
  -3  -3   0  893.31   29.20
  -3   3   0  963.90   28.10
   3   3   0  935.31   28.10
   3   3   0  902.81   28.80
   4  -3   0  398.16   13.50
  -4  -3   0  389.16   13.60
   4  -3   0  400.16   12.50
  -4   3   0  387.86   13.20
   4   3   0  400.16   13.70
  -5  -3   0  392.36   14.50
   5  -3   0  422.16   14.50
  -5  -3   0  436.26   13.10
   5  -3   0  409.66   13.00
   5  -3   0  413.56   12.90
  -5  -3   0  423.36   13.60
  -5   3   0  402.46   14.20
   5   3   0  409.76   14.60
   6  -3   0  367.06   13.80
   6  -3   0  377.06   11.80
  -6  -3   0  392.36   12.00
   6  -3   0  370.56   11.80
  -6  -3   0  378.46   12.00
  -6   3   0  379.56   13.60
   6   3   0  404.26   14.20
   7  -3   0  127.89    8.10
   7   3   0  121.89    6.60
   8  -3   0  303.27   12.60
   8   3   0  299.37   12.60
   9  -3   0   50.19    5.60
   9   3   0   60.59    5.40
  10  -3   0  129.89    8.20
  10   3   0  142.79    8.50
  11  -3   0    6.20    3.60
  11   3   0   11.10    3.50
  12  -3   0   30.20    5.20
  12   3   0   34.10    5.40
   0  -4   0   67.79    3.20
   0   4   0   73.79    2.90
   0   4   0   71.59    3.20
  -1  -4   0   50.99    2.60
   1  -4   0   49.20    2.20
  -1  -4   0   48.20    2.40
   1  -4   0   49.40    2.50
  -1   4   0   50.59    2.50
   1   4   0   45.10    2.50
   1   4   0   51.09    2.70
  -1   4   0   51.09    2.30
  -2  -4   0   57.59    2.90
  -2  -4   0   60.09    2.80
   2  -4   0   58.09    2.70
   2  -4   0   60.09    2.80
  -2   4   0   60.69    2.90
   2   4   0   62.39    3.00
   2   4   0   62.89    2.90
  -2   4   0   59.79    2.80
   3  -4   0  621.34   19.30
   3  -4   0  609.44   19.30
  -3  -4   0  599.14   19.60
  -3  -4   0  595.34   19.00
   3  -4   0  614.74   19.00
   3   4   0  606.84   19.00
  -3   4   0  611.24   19.00
   3   4   0  581.54   19.50
   4  -4   0   21.10    2.00
   4  -4   0   24.50    2.50
  -4  -4   0   28.60    1.90
  -4  -4   0   27.20    2.40
   4  -4   0   21.80    1.80
   4   4   0   27.80    2.50
   4   4   0   27.50    1.90
  -4   4   0   24.60    1.80
  -5  -4   0   27.20    2.60
   5  -4   0   27.70    3.00
   5  -4   0   23.60    1.70
  -5  -4   0   26.10    1.90
  -5  -4   0   30.00    2.00
   5  -4   0   26.00    1.80
   5   4   0   28.30    2.70
   6  -4   0   66.29    3.00
   6  -4   0   61.29    4.30
  -6  -4   0   69.29    3.10
  -6  -4   0   72.99    3.20
   6  -4   0   66.79    3.30
   6   4   0   69.69    4.50
  -6   4   0   59.39    3.80
   7  -4   0    3.60    0.80
   7  -4   0    4.80    2.10
  -7  -4   0    2.60    1.10
   7  -4   0    6.30    0.90
  -7  -4   0    4.00    1.10
   7   4   0    3.90    2.20
   8  -4   0   10.00    2.70
   8   4   0   10.80    2.70
   9  -4   0    8.30    2.90
   9   4   0   10.40    3.20
  10  -4   0    5.50    2.80
  10   4   0    0.10    2.50
  11  -4   0    4.70    2.90
  11   4   0    1.80    2.60
  12  -4   0    3.20    2.70
  12   4   0    7.20    3.40
   0  -5   0    5.80    1.10
   0  -5   0    5.10    0.90
   0   5   0    4.70    0.90
   0   5   0    5.50    1.10
  -1  -5   0 1228.58   37.60
   1  -5   0 1245.18   37.40
  -1  -5   0 1233.58   37.80
   1  -5   0 1251.97   37.80
   1   5   0 1225.88   37.60
  -1   5   0 1231.48   37.80
  -1   5   0 1237.48   37.50
   1   5   0 1194.48   37.80
  -2  -5   0    4.40    1.10
  -2  -5   0    4.00    1.10
   2  -5   0    5.80    1.00
   2  -5   0    4.70    1.10
   2   5   0    3.10    1.00
   2   5   0    3.80    1.10
  -2   5   0    5.20    1.20
  -2   5   0    4.70    1.10
  -3  -5   0  199.48    7.60
   3  -5   0  193.58    7.20
  -3  -5   0  194.68    7.20
   3  -5   0  204.98    7.20
   3  -5   0  191.98    7.10
   3   5   0  193.68    7.50
  -3   5   0  193.38    7.10
   3   5   0  196.38    7.20
  -4  -5   0   68.89    3.90
   4  -5   0   72.39    3.30
   4  -5   0   68.49    3.70
   4  -5   0   65.59    3.60
  -4  -5   0   70.39    3.40
   4   5   0   69.09    3.90
   4   5   0   68.09    3.40
  -4   5   0   66.89    3.30
  -5  -5   0    8.60    1.50
  -5  -5   0   13.50    2.20
   5  -5   0    8.80    1.80
   5  -5   0    7.10    1.60
   5  -5   0   10.50    1.50
   5  -5   0   10.70    1.50
   5   5   0   10.40    2.00
  -6  -5   0  278.57    9.70
   6  -5   0  285.57   11.00
   6  -5   0  275.97    9.50
   6  -5   0  279.37    9.60
  -6  -5   0  290.47    9.70
   6   5   0  274.57   11.20
   7  -5   0   75.99    5.10
   7  -5   0   73.29    3.40
   7  -5   0   80.69    3.40
  -7  -5   0   76.89    3.60
  -7  -5   0   81.39    3.70
   7   5   0   86.59    5.50
   8  -5   0   39.50    2.20
   8  -5   0   48.10    4.40
   8  -5   0   43.90    2.10
  -8  -5   0   37.20    2.30
   8   5   0   41.30    4.90
   9  -5   0   15.60    3.50
   9   5   0   15.30    3.40
  10  -5   0   32.10    5.00
  10   5   0   25.20    4.50
  11  -5   0    9.30    3.80
  11   5   0   10.20    3.40
  12  -5   0    1.70    2.70
  12   5   0    1.00    3.30
   0  -6   0  337.87   12.10
   0  -6   0  363.66   11.70
   0   6   0  362.06   12.10
   0   6   0  358.66   11.70
  -1  -6   0   41.80    2.50
  -1  -6   0   41.60    2.70
   1  -6   0   45.30    2.70
   1  -6   0   48.00    2.40
   1   6   0   44.90    2.50
  -1   6   0   46.10    2.40
  -1   6   0   42.70    2.70
   1   6   0   39.80    2.70
  -2  -6   0   55.49    3.00
   2  -6   0   55.59    3.00
  -2  -6   0   53.59    3.00
   2  -6   0   52.79    2.70
   2   6   0   51.39    3.00
  -2   6   0   48.80    2.80
  -2   6   0   49.20    3.00
   2   6   0   54.09    3.10
  -3  -6   0  104.99    5.00
   3  -6   0  107.59    4.80
   3  -6   0  113.99    4.70
  -3  -6   0  110.29    4.80
   3   6   0  109.69    4.90
  -3   6   0  108.69    4.80
  -3   6   0  113.49    5.00
   3   6   0  110.89    5.00
   4  -6   0   15.90    2.20
  -4  -6   0   17.60    2.50
   4  -6   0   19.20    2.10
  -4  -6   0   17.50    2.10
   4  -6   0   18.50    2.10
   4   6   0   15.70    2.30
   4   6   0   15.10    2.00
  -4   6   0   21.30    2.20
   5  -6   0   25.50    2.70
   5  -6   0   27.70    2.60
  -5  -6   0   19.80    2.20
  -5  -6   0   20.70    2.80
   5  -6   0   20.40    2.60
   5   6   0   21.70    2.80
   6  -6   0  123.19    5.20
   6  -6   0  119.99    5.20
  -6  -6   0  120.19    5.30
   6  -6   0  128.59    6.40
  -6  -6   0  126.09    5.50
   6   6   0  127.99    7.20
   7  -6   0  209.28    7.40
  -7  -6   0  191.38    7.70
   7  -6   0  208.48    9.20
   7  -6   0  201.18    7.40
  -7  -6   0  196.28    7.60
   7   6   0  201.08    9.40
  -8  -6   0    8.10    1.50
   8  -6   0   10.20    2.80
   8  -6   0    6.10    1.30
  -8  -6   0   10.50    1.80
   8  -6   0   11.60    1.50
   8   6   0   13.80    3.00
   9  -6   0   21.50    4.10
  -9  -6   0   13.60    1.90
  -9  -6   0   15.70    1.60
   9   6   0   14.80    3.40
  10  -6   0    0.90    2.60
  10   6   0    0.40    2.20
  11  -6   0    2.80    2.70
  11   6   0   -0.30    2.80
  12  -6   0    8.40    3.40
  12   6   0    4.00    3.30
   0  -7   0    7.10    1.40
   0  -7   0    7.00    1.20
   0   7   0   12.00    1.50
   0   7   0   12.40    1.70
  -1  -7   0   32.30    2.50
   1  -7   0   34.80    2.10
   1  -7   0   36.50    2.60
  -1  -7   0   29.80    2.20
   1   7   0   29.30    2.60
   1   7   0   34.20    2.30
  -1   7   0   35.70    2.30
  -1   7   0   33.50    2.70
  -2  -7   0   11.30    1.80
   2  -7   0    7.70    1.50
  -2  -7   0   10.20    1.70
   2  -7   0   12.40    1.60
  -2   7   0   10.50    1.70
  -2   7   0    9.90    1.60
   2   7   0    6.90    1.40
   2   7   0    9.30    1.70
   3  -7   0  156.88    6.20
  -3  -7   0  151.88    6.60
   3  -7   0  157.98    6.40
  -3  -7   0  159.58    6.50
   3   7   0  160.48    6.60
   3   7   0  144.29    6.50
  -3   7   0  166.78    6.50
  -3   7   0  164.58    6.50
  -4  -7   0   44.80    3.30
   4  -7   0   46.30    3.20
   4  -7   0   44.50    2.90
  -4  -7   0   42.90    3.00
   4  -7   0   41.50    2.90
   4   7   0   43.10    3.30
  -4   7   0   46.40    3.10
   4   7   0   47.90    3.20
   5  -7   0   39.00    2.90
   5  -7   0   34.40    2.70
   5  -7   0   43.70    3.40
  -5  -7   0   34.80    2.80
   5   7   0   33.10    3.20
   5   7   0   34.80    2.90
  -6  -7   0   69.09    3.90
  -6  -7   0   76.79    4.20
   6  -7   0   72.09    3.90
   6  -7   0   77.19    4.90
   6  -7   0   60.39    3.90
   6   7   0   73.39    5.00
  -7  -7   0    7.50    2.00
   7  -7   0   20.40    3.20
   7  -7   0   13.30    1.90
  -7  -7   0   11.50    2.00
   7  -7   0    7.60    1.70
   7   7   0   13.70    2.80
   8  -7   0   17.40    1.90
  -8  -7   0   14.30    2.20
   8  -7   0   15.30    3.50
  -8  -7   0   12.20    2.00
   8  -7   0   13.60    1.90
   8   7   0   14.80    3.30
   9  -7   0    4.20    1.20
  -9  -7   0    5.60    1.60
   9  -7   0    2.90    1.20
   9  -7   0    7.40    3.00
  -9  -7   0    6.50    1.50
   9   7   0    6.70    2.80
 -10  -7   0   36.70    3.50
  10  -7   0   47.80    5.60
  10   7   0   35.40    5.60
  11  -7   0    3.30    2.80
  11   7   0    3.20    2.80
   0  -8   0  132.19    7.90
   0  -8   0  125.59    5.30
   0   8   0  124.69    5.80
   0   8   0  130.39    5.30
  -1  -8   0  145.49    6.70
   1  -8   0  136.89    5.50
  -1  -8   0  133.99    5.60
  -1   8   0  128.29    5.50
   1   8   0  139.89    6.10
   1   8   0  136.69    5.60
  -1   8   0  129.69    6.00
  -2  -8   0  168.08    7.10
  -2  -8   0  166.88    6.90
   2  -8   0  167.88    6.50
  -2   8   0  173.28    6.70
   2   8   0  164.98    6.80
   2   8   0  165.98    7.10
  -2   8   0  174.18    7.10
   3  -8   0    0.40    0.80
  -3  -8   0    1.50    1.20
  -3  -8   0   -1.30    0.90
  -3   8   0   -0.30    1.10
   3   8   0    1.70    1.20
   3   8   0   -0.40    1.20
  -3   8   0    0.10    1.10
   4  -8   0    4.70    1.60
  -4  -8   0    3.50    1.30
   4  -8   0    3.60    1.20
  -4  -8   0    3.90    1.60
   4   8   0    5.50    1.70
   4   8   0    4.30    1.60
  -4   8   0    6.60    1.70
   5  -8   0  103.19    5.20
  -5  -8   0  102.09    5.20
   5  -8   0  106.79    5.60
   5   8   0  109.69    5.30
   5   8   0  103.39    5.80
  -6  -8   0    9.70    2.00
  -6  -8   0   14.80    2.60
   6  -8   0   11.20    2.00
   6   8   0   13.20    2.70
  -7  -8   0    1.80    1.50
   7  -8   0    1.20    1.90
   7  -8   0    4.90    1.50
   7  -8   0    4.00    1.60
  -7  -8   0   -1.30    1.70
   7   8   0    5.00    2.20
  -8  -8   0   20.60    3.40
   8  -8   0   41.10    5.00
  -8  -8   0   37.10    3.30
   8  -8   0   36.20    2.80
   8  -8   0   28.60    2.60
   8   8   0   42.10    5.10
  -9  -8   0   13.40    2.20
   9  -8   0   14.00    2.00
   9  -8   0   16.40    2.10
   9  -8   0   20.00    3.80
  -9  -8   0   15.10    2.40
   9   8   0   18.90    4.20
 -10  -8   0    3.30    1.60
  10  -8   0    0.60    1.80
  10  -8   0    4.80    3.10
 -10  -8   0    2.40    1.30
  10  -8   0    1.10    1.00
  10   8   0    5.40    3.20
  11  -8   0    4.50    3.00
  11   8   0    5.60    3.30
   0  -9   0   -1.10    0.70
   0  -9   0   -0.10    1.10
   0   9   0    1.10    1.10
   0   9   0    1.40    1.40
   1  -9   0  266.37    9.50
   1  -9   0  258.37   10.10
  -1  -9   0  258.17    9.70
  -1  -9   0  252.97   10.10
  -1   9   0  254.97   10.10
  -1   9   0  272.77    9.60
   1   9   0  270.97    9.60
   1   9   0  260.67   10.10
   2  -9   0    1.70    1.00
   2  -9   0    3.30    1.40
  -2  -9   0    4.90    1.50
   2   9   0    5.50    1.70
  -2   9   0    5.00    1.60
  -2   9   0    4.90    1.50
   2   9   0    2.50    1.30
  -3  -9   0  214.78    8.60
   3  -9   0  200.58    8.50
  -3  -9   0  202.88    8.60
  -3   9   0  217.18    8.60
   3   9   0  213.78    8.60
   3   9   0  205.78    8.60
  -3   9   0  221.08    8.50
   4  -9   0   33.40    3.00
   4  -9   0   40.90    3.20
   4  -9   0   37.90    2.80
  -4  -9   0   30.30    3.30
  -4   9   0   38.50    3.30
   4   9   0   36.90    3.30
   4   9   0   38.30    3.30
   5  -9   0  280.57   10.70
  -5  -9   0  261.37   10.40
   5  -9   0  260.47   10.30
   5   9   0  263.57   10.80
   5   9   0  262.97   10.40
  -6  -9   0    9.60    2.10
  -6  -9   0    5.60    2.50
   6  -9   0    6.40    2.30
   6  -9   0    8.80    2.10
   6  -9   0    9.10    2.50
   6   9   0   10.20    2.60
   7  -9   0   51.09    3.80
   7  -9   0   73.49    5.10
   7  -9   0   60.39    4.00
  -7  -9   0   57.19    4.40
  -7  -9   0   49.50    4.10
   7   9   0   61.39    5.10
  -8  -9   0   27.80    3.20
  -8  -9   0   18.00    2.70
   8  -9   0   22.20    2.80
   8  -9   0   26.00    2.80
   8  -9   0   35.10    4.40
   8   9   0   23.70    3.90
   9  -9   0    8.10    1.80
   9  -9   0   11.70    3.40
  -9  -9   0    6.10    2.00
  -9  -9   0    8.10    2.30
   9   9   0   10.50    3.20
 -10  -9   0  164.78    7.20
  10  -9   0  165.38    6.60
  10  -9   0  176.48   11.90
  10   9   0  175.78   10.00
  11  -9   0    7.60    3.70
  11   9   0   12.10    4.00
   0 -10   0  389.86   14.00
   0  10   0  375.06   14.00
   0  10   0  387.76   13.40
   1 -10   0  123.79    5.50
  -1 -10   0  115.59    5.60
  -1  10   0  113.79    6.00
   1  10   0  124.69    6.10
   1  10   0  124.19    5.60
  -1  10   0  119.79    5.40
  -2 -10   0  223.28    9.10
   2 -10   0  216.58    9.20
  -2  10   0  240.18    9.00
   2  10   0  238.38    9.10
   2  10   0  229.48    9.50
  -2  10   0  235.08    9.50
   3 -10   0    6.80    1.60
  -3  10   0   12.20    2.20
   3  10   0    6.30    1.90
  -3  10   0    7.20    2.00
   3  10   0   12.20    2.40
   4 -10   0  246.38    9.80
   4  10   0  254.87   10.30
   4  10   0  250.27   11.10
  -4  10   0  266.87   10.30
   5 -10   0    1.90    1.70
   5  10   0    0.90    1.70
  -6 -10   0    1.60    2.10
   6 -10   0    6.70    2.30
   6 -10   0   -0.30    1.70
   6  10   0    1.10    1.90
   7 -10   0   38.90    4.60
   7 -10   0   41.80    3.60
  -7 -10   0   44.60    5.00
   7  10   0   37.20    4.70
  -8 -10   0    0.10    2.00
   8 -10   0    1.30    1.70
   8 -10   0    1.50    2.50
   8  10   0    1.20    2.20
  -9 -10   0   56.49    4.50
   9 -10   0   57.59    5.50
   9 -10   0   36.60    3.90
   9 -10   0   49.40    3.70
 -10 -10   0    8.10    2.50
  10 -10   0   11.30    3.90
  10 -10   0    8.00    1.80
  10  10   0    7.60    3.10
   0 -11   0   -0.70    1.10
   0  11   0   -0.80    1.40
   0  11   0   -0.50    1.10
   1 -11   0  225.88    9.00
  -1 -11   0  230.18    9.20
   1  11   0  238.28    9.10
   1  11   0  223.28    9.70
  -1  11   0  242.08    9.10
  -1  11   0  242.98    9.90
  -2 -11   0    1.00    1.50
   2 -11   0   -0.20    1.00
   2  11   0    0.70    1.30
  -2  11   0    0.60    1.40
  -2  11   0    1.70    1.70
   2  11   0    1.80    1.60
   3 -11   0   45.70    3.30
  -3  11   0   47.40    4.00
   3  11   0   42.30    4.00
   3  11   0   48.30    3.80
  -3  11   0   49.00    3.80
   4  11   0    9.40    2.40
  -4  11   0    5.60    2.10
  -4  11   0    5.90    2.20
   4  11   0    6.60    2.20
  -5 -11   0    9.60    2.80
   5 -11   0   12.90    2.60
   5 -11   0    9.60    2.50
   5  11   0   13.10    2.80
  -6 -11   0   30.80    3.90
   6 -11   0   34.50    4.10
   6 -11   0   26.80    3.40
   6  11   0   26.30    3.80
   7 -11   0    3.30    2.00
  -7 -11   0    2.60    2.40
   7 -11   0    8.90    3.00
   7  11   0    3.60    2.60
  -8 -11   0   32.00    4.00
   8 -11   0   40.50    4.90
   8 -11   0   34.10    3.80
   8  11   0   31.30    4.60
   9 -11   0   -2.50    1.50
  -9 -11   0   -3.30    2.10
   9 -11   0    3.30    2.40
   9  11   0    2.90    2.80
 -10 -11   0   30.60    4.00
  10 -11   0   28.20    3.20
  10 -11   0   31.90    5.10
  10  11   0   35.10    5.20
   0 -12   0  414.06   15.10
   0  12   0  434.06   15.90
   0  12   0  426.56   15.00
   1 -12   0    4.90    1.70
  -1  12   0   10.90    2.40
   1  12   0    7.70    2.30
   1  12   0    5.30    1.80
  -1  12   0   10.70    2.60
   2  12   0  172.58    8.20
   2  12   0  176.08    7.70
  -2  12   0  164.18    8.10
  -2  12   0  165.18    7.50
   3  12   0   68.29    5.20
  -3  12   0   76.89    4.90
   3  12   0   78.79    4.90
  -3  12   0   87.69    5.50
   4  12   0  155.38    7.90
  -4  12   0  155.08    7.80
   4  12   0  163.38    7.80
   5 -12   0  146.19    7.50
   5 -12   0  149.29    7.70
  -5 -12   0  143.19    8.00
   5  12   0  148.29    7.70
   6 -12   0   10.50    2.80
  -6 -12   0   10.70    3.00
   6 -12   0    9.50    2.80
   6  12   0   21.30    3.60
   7 -12   0  120.69    7.40
   7 -12   0  117.79    6.70
  -7 -12   0  127.59    7.40
   7  12   0  129.09    7.70
   8 -12   0    2.10    2.70
   8 -12   0    1.10    2.00
  -8 -12   0   -2.30    2.60
   8  12   0    3.30    2.80
   9 -12   0   78.79    6.60
  -9 -12   0   76.89    5.80
   9 -12   0   69.29    4.90
   9  12   0   70.59    6.70
 -10 -12   0    2.20    2.60
  10 -12   0    0.20    2.70
  10 -12   0    1.70    2.00
  10  12   0    2.00    3.00
   0  13   0    0.10    2.00
   0  13   0   -0.10    1.50
   1  13   0  100.39    6.40
  -1  13   0  103.89    5.70
  -1  13   0  111.09    6.50
   1  13   0  102.19    6.60
  -2  13   0    1.80    2.00
   2  13   0    3.40    2.30
   2  13   0    1.30    1.70
  -2  13   0   -1.00    1.60
   3  13   0   21.70    3.70
  -3  13   0   23.00    3.60
   3  13   0   24.00    3.30
  -3  13   0   19.80    3.60
   4 -13   0   42.10    4.80
  -4  13   0   40.30    4.60
   4  13   0   37.60    4.30
   5 -13   0    3.80    2.10
   5 -13   0    0.40    2.20
  -5 -13   0    7.60    2.80
   5  13   0    3.30    2.30
   6 -13   0   29.60    4.10
  -6 -13   0   28.50    4.40
   6 -13   0   29.00    4.20
   6  13   0   33.10    4.40
  -7 -13   0    5.90    2.90
   7 -13   0    5.50    2.50
   7 -13   0    7.20    2.90
   7  13   0   -0.10    2.40
  -8 -13   0   23.10    4.20
   8 -13   0   24.00    3.50
   8 -13   0   26.80    4.50
   8  13   0   26.10    4.70
   9 -13   0    8.90    2.50
   9 -13   0    7.90    3.40
  -9 -13   0    8.00    3.30
   9  13   0    8.40    3.40
   0  14   0   92.89    5.40
   0  14   0   84.09    6.10
   1  14   0   10.40    3.10
  -1  14   0   13.50    2.80
   1  14   0   10.30    2.50
  -1  14   0   11.50    3.00
  -2  14   0    3.10    2.40
   2  14   0    3.40    2.60
  -2  14   0    5.60    2.20
   2  14   0    1.80    2.00
   3  14   0    6.00    2.80
  -3  14   0    5.90    2.50
   3  14   0    8.10    2.80
   4 -14   0   78.89    6.10
  -4 -14   0   98.69    7.00
  -4  14   0   88.29    6.10
   4  14   0   95.29    6.00
   5 -14   0    0.50    2.30
  -5 -14   0   -0.70    2.40
   5 -14   0    0.80    2.20
   5  14   0    2.80    2.30
  -6 -14   0    5.20    3.10
   6 -14   0    4.90    2.60
   6 -14   0    3.40    2.40
   6  14   0    4.60    2.90
   7 -14   0   26.60    4.10
  -7 -14   0   25.00    4.40
   7 -14   0   21.40    3.90
   7  14   0   22.30    4.60
   8 -14   0    4.70    2.40
   8 -14   0    2.20    2.80
  -8 -14   0    2.00    3.00
   8  14   0    7.60    3.30
   0  15   0    0.30    2.00
   0  15   0   -1.40    2.10
  -1  15   0   91.99    6.70
   1  15   0   93.99    5.70
  -1  15   0   90.99    5.80
   1  15   0   87.49    6.60
  -2  15   0    2.90    2.30
   2  15   0    3.50    2.70
   2  15   0    3.20    2.10
   3 -15   0   37.30    4.90
  -3 -15   0   46.30    5.60
   3  15   0   40.60    4.60
  -3  15   0   44.90    4.90
   4 -15   0   15.30    3.80
  -4 -15   0    8.50    3.50
   4  15   0   15.10    3.40
  -4  15   0    8.90    3.00
   5 -15   0   21.50    3.80
   5 -15   0   17.50    3.70
  -5 -15   0   21.40    4.20
   5  15   0   20.60    3.60
   6 -15   0    2.80    2.70
  -6 -15   0    5.70    3.40
   6 -15   0    2.70    2.60
   6  15   0    5.60    3.00
   7 -15   0    1.00    2.40
   7 -15   0    4.80    2.80
  -7 -15   0   -3.20    2.80
   7  15   0    2.60    3.10
   8 -15   0   14.30    3.30
   8 -15   0    9.60    3.80
  -8 -15   0   21.90    4.60
   8  15   0   18.80    4.20
   0 -16   0    4.70    3.30
   0  16   0   11.00    2.80
   1 -16   0    2.70    2.80
  -1 -16   0    4.40    3.20
  -1  16   0    2.90    2.50
   1  16   0    5.80    2.50
  -2 -16   0    8.70    3.50
   2 -16   0   10.30    3.50
   2  16   0   13.20    3.10
  -2  16   0   12.20    3.20
  -3 -16   0   -1.40    2.70
   3 -16   0    0.90    2.70
  -3  16   0   -0.10    2.30
   3  16   0    1.90    2.40
   4 -16   0    0.70    2.80
  -4 -16   0    2.50    3.30
   4  16   0    5.40    2.70
  -4  16   0    1.10    2.50
   5 -16   0    2.20    2.80
  -5 -16   0   -5.50    4.40
   5 -16   0    1.20    2.50
   5  16   0    5.50    3.10
   6 -16   0    6.80    3.00
  -6 -16   0    5.90    4.70
   6  16   0   10.40    3.70
   7 -16   0    0.10    2.50
   7 -16   0    1.10    2.50
  -7 -16   0    0.80    3.00
   7  16   0    2.70    3.00
   0 -17   0   -0.80    2.70
   0  17   0    1.40    2.40
  -1 -17   0    8.00    3.70
   1 -17   0    1.80    3.20
   1  17   0    3.30    2.30
  -1  17   0    3.60    2.80
   2 -17   0    4.40    3.40
  -2 -17   0    2.70    3.20
  -2  17   0    0.70    2.40
   2  17   0    2.30    2.60
   3 -17   0    9.10    3.60
  -3 -17   0    5.00    3.30
   3  17   0    4.30    2.70
  -3  17   0   10.40    3.40
   4 -17   0    2.50    3.20
  -4 -17   0    6.20    3.80
   4  17   0    3.90    2.90
  -4  17   0   -0.50    2.60
   5 -17   0   -1.00    2.60
   5 -17   0    1.90    2.80
  -5 -17   0    0.90    3.50
  -6 -17   0    4.10    3.70
   6 -17   0    1.70    2.60
   6 -17   0   -0.10    2.70
   6  17   0   -0.20    2.70
   0 -18   0   37.80    6.10
   0  18   0   31.40    4.40
   1 -18   0   -1.10    3.50
  -1 -18   0    0.40    3.50
  -1  18   0    1.50    2.60
   1  18   0    0.90    2.50
   2 -18   0    7.70    4.00
  -2 -18   0    9.90    3.80
   2  18   0    3.10    2.70
  -2  18   0    5.50    2.90
   3 -18   0    3.10    3.40
  -3 -18   0    4.80    3.90
   3  18   0    2.70    2.70
  -3  18   0   -2.60    2.20
   4 -18   0    4.10    3.50
  -4 -18   0    3.10    3.80
  -5 -18   0    7.90    4.30
   5 -18   0    4.10    3.40
   5  18   0    8.60    3.60
   0 -19   0   -2.30    3.20
   0  19   0    1.90    2.80
   1 -19   0   17.30    5.10
  -1 -19   0   24.20    5.30
   1  19   0   22.30    4.00
  -1  19   0   26.40    4.20
   2 -19   0   -3.10    3.30
  -2 -19   0    3.20    3.80
   2  19   0    0.60    2.50
  -2  19   0   -3.70    2.50
  -3 -19   0    7.50    4.20
   3 -19   0    5.60    3.80
  -3  19   0    3.70    3.10
   3  19   0    0.40    3.30
  12   0  -1    5.30    3.50
  11   0  -1   -1.60    3.20
  10   0  -1    8.00    3.30
   9   0  -1   -1.40    1.90
   8   0  -1   -0.90    1.80
  -6   0   1    0.30    1.00
   6   0  -1   -0.10    1.10
  -5   0   1    3.70    1.20
   5   0  -1    2.40    1.40
   4   0  -1    2.20    1.20
  -4   0   1    2.20    1.00
  -3   0   1    0.80    0.70
   3   0  -1    0.70    0.90
   2   0  -1    0.30    0.30
  -2   0   1    0.20    0.30
   2   0  -1    0.40    0.70
  -1   0   1    0.50    0.20
   1   0  -1    0.90    0.40
  -1   0   1   -0.20    0.20
  -1   0  -1    0.10    0.20
   1   0   1    0.30    0.40
  -1   0  -1    0.40    0.30
  -2   0  -1    0.30    0.70
   2   0   1    0.20    0.30
  -2   0  -1    0.30    0.30
   2   0   1   -0.20    0.60
  -3   0  -1    0.10    0.70
   3   0   1   -0.70    0.70
   4   0   1    8.60    1.60
  -4   0  -1    8.40    1.60
   5   0   1    1.90    1.40
  -5   0  -1    0.70    1.00
  -6   0  -1   -0.50    0.90
   6   0   1    0.10    1.20
   7   0   1    1.10    1.90
   8   0   1   -2.20    1.60
   9   0   1   -1.80    1.90
  10   0   1   -1.70    2.20
  11   0   1   -0.90    2.20
  12   0   1    0.80    2.90
  12  -1  -1   -2.20    2.40
  12   1  -1    3.50    3.10
  11   1  -1   10.60    4.10
  10  -1  -1   -1.90    1.90
  10   1  -1    2.90    2.60
   9  -1  -1    5.90    2.90
   9   1  -1    1.80    2.10
   8  -1  -1   43.00    4.90
   8   1  -1   40.40    4.70
   7   1  -1   41.20    5.50
   6  -1  -1    0.50    1.30
  -6  -1   1    3.60    1.40
   6   1  -1   -0.20    1.20
  -6   1   1    0.80    1.00
   5  -1  -1   86.39    4.50
  -5  -1   1   89.19    4.50
  -5   1   1   89.89    4.40
   5   1  -1   84.39    4.60
   4  -1  -1  412.96   13.90
  -4  -1   1  394.16   13.90
  -4  -1   1  419.06   12.60
   4   1  -1  422.36   14.10
   4   1  -1  420.26   12.50
  -4   1   1  410.36   13.80
  -3  -1   1    2.00    0.50
   3  -1  -1    3.60    0.50
   3  -1  -1    3.00    1.10
  -3  -1   1    1.40    0.80
   3  -1  -1    4.00    0.50
   3   1  -1    2.20    0.90
   3   1  -1    2.20    0.50
  -3   1   1    4.60    1.00
  -2  -1   1  319.27   10.60
   2  -1  -1  315.27    9.80
   2  -1  -1  317.87   10.30
  -2  -1   1  313.57    9.80
   2   1  -1  321.57    9.80
   2   1  -1  316.37   10.40
  -2   1   1  334.37   10.60
   1  -1  -1  164.98    5.00
  -1  -1   1  149.79    4.90
   1  -1  -1  150.08    5.00
  -1  -1   1  147.79    5.00
   1   1  -1  149.39    5.00
   1   1  -1  160.48    5.00
  -1   1   1  152.48    5.10
  -1   1   1  154.18    4.90
   0  -1  -1  554.24   17.00
   0   1  -1  562.44   17.00
   1  -1   1    8.40    0.70
  -1  -1  -1    9.70    1.00
  -1  -1  -1    7.00    0.60
   1  -1   1    6.30    0.60
   1   1   1    8.20    0.80
  -1   1  -1    6.70    0.60
   1   1   1    7.90    0.70
  -1   1  -1    7.30    0.70
  -2  -1  -1   98.29    3.80
  -2  -1  -1   93.79    3.20
   2  -1   1   98.29    3.20
   2  -1   1   99.09    3.70
  -2   1  -1   96.69    3.20
   2   1   1   97.59    4.10
   3  -1   1  198.58    6.00
  -3  -1  -1  192.48    6.00
   3  -1   1  188.68    6.90
  -3  -1  -1  183.48    6.00
  -3  -1  -1  189.48    7.00
   3   1   1  179.28    7.00
  -3   1  -1  195.18    6.90
  -3   1  -1  196.78    5.90
  -4  -1  -1   75.49    2.50
   4  -1   1   73.99    3.80
  -4  -1  -1   72.69    2.50
  -4  -1  -1   77.69    3.80
   4   1   1   74.69    3.90
  -4   1  -1   68.39    3.60
   5  -1   1  458.55   15.30
  -5   1  -1  433.86   15.00
   5   1   1  425.96   15.20
   6  -1   1    0.00    1.30
  -6  -1  -1    1.00    1.10
   6   1   1    0.70    1.30
  -6   1  -1   -0.80    0.80
   7   1   1   96.19    5.70
   8  -1   1   21.10    3.70
   8   1   1   16.20    3.00
   9  -1   1   61.79    5.30
   9   1   1   55.69    5.20
  10  -1   1   63.39    5.80
  10   1   1   59.09    5.70
  11  -1   1   13.40    3.80
  11   1   1   13.80    3.70
  12  -1   1   26.10    4.80
  12   1   1   13.60    4.00
  12  -2  -1    6.70    3.20
  12   2  -1    4.60    3.00
  11   2  -1   24.70    4.50
  10  -2  -1   22.60    4.20
  10   2  -1   23.70    4.10
   9  -2  -1   14.20    3.30
   9   2  -1    7.60    2.80
   8  -2  -1   47.80    4.50
   8   2  -1   50.59    4.50
   7   2  -1    1.30    1.50
   6  -2  -1  384.66   13.60
  -6  -2   1  357.16   13.30
  -6   2   1  355.66   13.10
   6   2  -1  368.46   13.60
   5  -2  -1   11.00    0.90
   5  -2  -1   14.10    0.90
  -5  -2   1   12.60    1.00
  -5  -2   1   11.90    2.40
   5  -2  -1   15.00    2.30
  -5   2   1   17.10    2.20
   5   2  -1   12.80    2.00
   4  -2  -1  426.36   14.00
  -4  -2   1  394.26   13.90
  -4  -2   1  402.66   12.80
   4  -2  -1  421.46   12.70
   4  -2  -1  424.26   12.70
   4   2  -1  409.86   12.80
   4   2  -1  393.66   14.00
  -4   2   1  417.16   13.80
   3  -2  -1   96.49    4.10
   3  -2  -1   97.89    3.40
  -3  -2   1   89.79    3.40
  -3  -2   1   92.79    4.10
   3  -2  -1   92.59    3.30
  -3   2   1   96.79    4.00
   3   2  -1   93.69    3.40
   3   2  -1   94.19    4.10
   2  -2  -1   52.19    2.20
   2  -2  -1   51.79    2.60
  -2  -2   1   59.49    2.70
   2  -2  -1   53.49    2.20
  -2  -2   1   56.39    2.30
   2   2  -1   62.49    2.90
   2   2  -1   59.99    2.30
   1  -2  -1  318.57    9.90
  -1  -2   1  304.47    9.90
  -1  -2   1  310.47    9.90
   1  -2  -1  326.87    9.90
   1  -2  -1  311.97    9.80
   1   2  -1  313.07    9.90
   1   2  -1  308.77    9.90
  -1   2   1  318.07    9.90
   0  -2   1  110.09    3.50
   0  -2  -1  114.79    3.70
   0   2  -1  108.29    3.50
   0   2  -1  110.19    3.80
   0   2   1  103.79    3.70
  -1  -2  -1    4.30    0.70
   1  -2   1    5.40    0.70
   1  -2   1    4.60    0.70
  -1  -2  -1    4.30    0.70
  -1  -2  -1    4.40    0.70
   1  -2   1    5.40    0.70
   1   2   1    5.10    0.80
  -1   2  -1    5.30    0.70
  -2  -2  -1   75.09    2.80
  -2  -2  -1   74.59    2.80
  -2  -2  -1   72.59    3.20
   2  -2   1   70.59    3.00
   2  -2   1   71.09    2.70
   2   2   1   73.29    3.20
  -2   2  -1   69.89    2.70
  -3  -2  -1  113.49    4.80
  -3  -2  -1  114.99    4.00
  -3  -2  -1  113.49    3.90
   3  -2   1  110.39    4.60
   3  -2   1  119.19    4.00
  -3   2  -1  115.19    3.90
   3   2   1  111.09    4.80
  -3   2  -1  109.89    4.50
   4  -2   1  207.48    7.80
   4  -2   1  209.28    6.70
  -4  -2  -1  204.48    7.90
  -4  -2  -1  209.08    6.70
  -4  -2  -1  196.98    6.70
  -4   2  -1  214.88    6.70
  -4   2  -1  210.98    7.70
   4   2   1  214.58    8.10
   5  -2   1   41.30    3.10
  -5  -2  -1   40.00    2.90
  -5  -2  -1   40.40    1.70
   5  -2   1   41.00    1.60
  -5  -2  -1   40.60    1.80
   5  -2   1   41.20    1.60
  -5   2  -1   37.10    2.70
   5   2   1   39.60    3.10
   6  -2   1    4.50    1.80
   6   2   1    3.50    1.60
  -6   2  -1    5.10    1.50
   7   2   1   15.00    2.70
   8  -2   1   15.90    3.20
   8   2   1   11.30    2.70
   9  -2   1   17.30    3.40
   9   2   1   13.70    3.40
  10  -2   1    1.20    2.40
  10   2   1    6.10    2.90
  11  -2   1   20.50    4.70
  11   2   1   13.70    3.60
  12  -2   1    2.50    2.70
  12   2   1    3.20    3.30
  12  -3  -1    3.50    3.00
  12   3  -1    5.00    3.20
  11  -3  -1   52.59    7.50
  11   3  -1   40.10    5.90
  10  -3  -1   42.50    5.10
  10   3  -1   29.30    4.60
   9  -3  -1    1.20    2.30
   9   3  -1    0.80    2.10
   8  -3  -1  250.67   10.90
   8   3  -1  237.18   10.80
  -7  -3   1   21.80    1.30
   7  -3  -1   20.90    3.50
   7   3  -1   23.00    3.50
   6  -3  -1  597.54   20.40
   6  -3  -1  604.84   18.30
  -6  -3   1  596.44   18.50
  -6  -3   1  616.64   18.50
   6  -3  -1  611.04   18.40
  -6   3   1  581.74   20.10
   6   3  -1  582.24   20.60
   5  -3  -1   24.10    1.50
   5  -3  -1   28.30    2.70
   5  -3  -1   20.00    1.50
  -5  -3   1   29.60    3.30
  -5   3   1   24.40    2.70
   5   3  -1   27.60    2.60
   5   3  -1   26.70    1.70
  -4  -3   1  735.73   22.50
   4  -3  -1  728.63   23.10
   4  -3  -1  733.83   22.30
   4  -3  -1  728.83   23.10
   4  -3  -1  717.83   22.00
  -4  -3   1  666.03   23.00
   4   3  -1  711.73   23.20
   4   3  -1  723.83   22.10
  -3  -3   1  125.99    4.60
   3  -3  -1  130.09    5.10
   3  -3  -1  129.89    5.10
  -3  -3   1  121.29    5.10
   3  -3  -1  124.19    4.50
   3   3  -1  123.39    5.10
   3   3  -1  127.49    4.60
  -2  -3   1   91.89    3.80
   2  -3  -1   98.09    3.80
  -2  -3   1   98.29    3.90
   2   3  -1   91.19    3.60
  -2   3   1   90.19    3.80
   2   3  -1   92.59    3.80
  -1  -3   1  411.46   12.80
  -1  -3   1  390.86   12.40
   1   3  -1  378.36   12.40
   1   3  -1  389.36   12.30
  -1   3   1  386.36   12.40
  -1   3   1  399.36   12.50
   0  -3   1  473.55   14.50
   0  -3  -1  468.85   14.70
   0   3   1  485.55   14.90
   0   3  -1  474.25   14.50
   0   3  -1  479.25   14.90
   0   3   1  463.35   14.70
   1  -3   1  710.03   21.90
  -1  -3  -1  756.82   22.50
  -1  -3  -1  716.73   22.30
   1   3   1  718.03   22.30
   1   3   1  727.53   22.20
  -1   3  -1  705.33   22.20
  -1   3  -1  715.93   22.00
  -2  -3  -1    1.60    0.80
  -2  -3  -1    1.20    0.80
   2  -3   1    1.20    0.70
   2  -3   1    0.40    0.70
   2   3   1    1.00    0.70
  -2   3  -1    1.90    0.70
   2   3   1    0.90    0.80
  -3  -3  -1  753.12   24.00
  -3  -3  -1  778.72   24.70
   3  -3   1  792.82   24.40
  -3  -3  -1  786.62   24.00
   3   3   1  773.02   24.70
  -3   3  -1  797.92   23.90
  -3   3  -1  770.92   24.20
  -4  -3  -1   91.89    3.70
   4  -3   1   91.39    4.30
  -4  -3  -1   87.19    3.50
  -4  -3  -1   91.79    4.40
   4  -3   1   87.19    3.50
   4   3   1   83.99    4.40
  -4   3  -1   88.89    4.10
  -4   3  -1   86.99    3.40
   5  -3   1  523.95   16.90
  -5  -3  -1  459.85   16.90
  -5  -3  -1  499.15   15.40
   5  -3   1  501.65   15.40
   5   3   1  488.05   17.00
  -5   3  -1  487.35   16.60
  -6  -3  -1   86.29    3.30
   6  -3   1   83.89    3.00
   6  -3   1   87.09    3.10
  -6  -3  -1   82.59    3.30
   6  -3   1   88.79    5.00
  -6   3  -1   89.69    4.60
   6   3   1   80.99    4.90
   7   3   1  369.76   14.30
   8  -3   1  110.49    6.60
   8   3   1  113.29    6.70
   9  -3   1  356.86   14.60
   9   3   1  339.27   14.50
  10  -3   1   69.19    5.90
  10   3   1   67.89    6.00
  11  -3   1    5.60    3.60
  11   3   1    4.10    2.80
  12  -3   1   73.09    6.80
  12   3   1   63.19    7.60
  12  -4  -1   28.30    4.70
  12   4  -1   23.50    4.90
  11  -4  -1  122.99    8.30
  11   4  -1  122.89    8.40
  10  -4  -1  141.19    8.60
  10   4  -1  152.68    8.90
   9  -4  -1  217.38   10.40
   9   4  -1  209.88   10.50
   8  -4  -1    2.20    2.10
   8   4  -1    3.30    2.00
   7  -4  -1  490.75   15.90
   7  -4  -1  496.55   18.20
  -7  -4   1  530.65   16.50
  -7  -4   1  508.85   16.10
   7  -4  -1  520.35   15.90
   7   4  -1  513.55   18.50
   6  -4  -1   27.30    3.10
   6  -4  -1   26.00    3.20
   6  -4  -1   22.10    1.60
  -6  -4   1   18.90    1.70
   6   4  -1   16.90    2.70
   5  -4  -1  674.43   21.80
   5  -4  -1  652.13   22.40
   5  -4  -1  659.03   20.60
  -5  -4   1  649.34   21.90
   5  -4  -1  669.23   20.60
  -5  -4   1  645.24   20.70
   5   4  -1  654.23   22.00
   5   4  -1  677.13   20.70
   4  -4  -1  508.75   15.80
   4  -4  -1  495.95   16.50
   4  -4  -1  499.25   15.70
  -4  -4   1  481.95   16.60
   4  -4  -1  496.75   16.50
  -4  -4   1  483.75   15.80
   4   4  -1  496.65   16.70
   4   4  -1  496.25   15.80
   3  -4  -1  664.93   20.50
   3  -4  -1  664.93   20.90
  -3  -4   1  648.24   20.60
   3  -4  -1  649.14   20.90
  -3  -4   1  649.64   21.00
   3   4  -1  674.03   20.60
   3   4  -1  645.04   21.00
   2  -4  -1  133.79    4.90
  -2  -4   1  130.09    5.00
  -2  -4   1  127.29    4.90
   2  -4  -1  130.99    4.90
   2   4  -1  125.29    5.00
  -2   4   1  127.19    5.00
   2   4  -1  126.49    4.90
  -2   4   1  138.19    5.00
   1  -4  -1  480.65   15.50
   1  -4  -1  482.85   15.30
  -1  -4   1  477.25   15.50
  -1  -4   1  500.05   15.30
   1   4  -1  485.35   15.50
  -1   4   1  500.75   15.40
  -1   4   1  482.15   15.50
   1   4  -1  484.45   15.30
   0  -4  -1 2007.90   60.69
   0  -4  -1 2046.50   60.89
   0  -4   1 2000.90   60.49
   0  -4   1 2039.40   60.89
   0   4   1 2027.00   60.89
   0   4  -1 1990.50   60.89
  -1  -4  -1  956.60   29.20
   1  -4   1  977.60   28.80
   1  -4   1  948.81   29.10
  -1  -4  -1  934.71   29.10
  -1   4  -1  960.90   28.80
   1   4   1  915.21   29.10
  -1   4  -1  937.61   29.10
   1   4   1  942.31   29.10
   2  -4   1   15.60    1.30
  -2  -4  -1   14.30    1.60
   2  -4   1   15.40    1.40
   2  -4   1   15.90    1.40
  -2  -4  -1   15.60    1.40
   2   4   1   17.00    1.60
  -2   4  -1   16.50    1.50
   2   4   1   14.10    1.60
  -3  -4  -1    9.10    1.30
   3  -4   1    8.60    1.40
   3  -4   1    9.70    1.30
   3  -4   1    8.10    1.30
  -3  -4  -1    7.90    1.50
   3   4   1   10.90    1.70
  -3   4  -1    7.50    1.20
   4  -4   1  791.32   24.60
   4  -4   1  765.62   23.90
  -4  -4  -1  745.53   24.80
  -4  -4  -1  761.02   23.90
  -4  -4  -1  787.82   23.90
   4  -4   1  754.02   24.50
  -4   4  -1  772.22   23.80
   4   4   1  767.42   24.90
   5  -4   1   33.70    2.80
   5  -4   1   28.40    1.90
  -5  -4  -1   31.80    2.00
  -5  -4  -1   30.10    1.90
  -5  -4  -1   30.80    2.70
  -5   4  -1   29.50    2.70
  -5   4  -1   30.30    1.90
   5   4   1   27.00    3.00
   6  -4   1  109.39    4.30
  -6  -4  -1  116.79    4.50
   6  -4   1  117.89    5.80
  -6  -4  -1  116.69    4.40
  -6   4  -1  108.99    5.40
   6   4   1  106.89    5.90
   7  -4   1  216.68    9.80
   7  -4   1  196.98    6.70
   7  -4   1  205.38    6.60
  -7  -4  -1  196.08    7.00
  -7  -4  -1  197.98    7.30
   7   4   1  197.98    9.20
   8  -4   1  114.09    6.70
   8   4   1  115.99    6.90
   9  -4   1   71.89    5.80
   9   4   1   77.39    6.10
  10  -4   1   97.99    7.00
  10   4   1   94.29    7.00
  11  -4   1   37.30    5.80
  11   4   1   53.89    6.40
  12  -4   1    8.10    3.30
  12   4   1    1.70    3.00
  12  -5  -1   23.80    5.20
  12   5  -1   24.40    4.90
  11  -5  -1    7.80    3.20
  11   5  -1    9.00    3.50
  10  -5  -1   40.40    5.20
  10   5  -1   52.09    6.30
   9  -5  -1   14.50    3.40
   9   5  -1   14.30    3.50
   8  -5  -1  138.49    7.50
   8  -5  -1  138.29    5.00
  -8  -5   1  134.69    5.20
  -8  -5   1  134.89    5.40
   8   5  -1  137.99    7.60
  -7  -5   1    4.90    1.30
  -7  -5   1    7.60    1.50
   7  -5  -1   12.20    2.60
   7  -5  -1    9.00    1.40
   7  -5  -1    9.90    1.40
   7   5  -1    8.00    2.50
  -6  -5   1  225.28    8.10
   6  -5  -1  229.38    9.40
   6  -5  -1  222.08    7.90
   6  -5  -1  229.18    8.00
   6   5  -1  221.88    9.50
  -5  -5   1   54.69    3.00
   5  -5  -1   63.49    3.60
   5  -5  -1   56.59    3.70
   5  -5  -1   52.99    2.90
   5  -5  -1   55.69    2.90
  -5  -5   1   57.69    3.70
   5   5  -1   58.39    3.90
   5   5  -1   60.09    3.10
  -4  -5   1  623.04   20.40
   4  -5  -1  661.63   21.00
   4  -5  -1  652.23   20.40
  -4  -5   1  622.44   21.10
   4  -5  -1  643.64   20.40
   4  -5  -1  650.13   20.90
   4   5  -1  634.14   21.20
   4   5  -1  656.43   20.50
  -3  -5   1    7.10    1.40
  -3  -5   1    6.30    1.30
   3  -5  -1    8.60    1.40
   3  -5  -1    9.50    1.40
  -3   5   1    8.30    1.60
   3   5  -1    8.70    1.40
  -3   5   1    8.00    1.30
   3   5  -1    6.50    1.40
   2  -5  -1  171.18    6.00
  -2  -5   1  159.68    6.10
   2  -5  -1  165.18    6.10
  -2  -5   1  152.58    6.10
   2   5  -1  158.68    6.10
  -2   5   1  168.28    6.10
   2   5  -1  160.78    6.20
  -2   5   1  158.28    6.10
   1  -5  -1    3.70    0.90
   1  -5  -1    3.80    1.10
  -1  -5   1    2.40    0.80
  -1  -5   1    2.20    1.00
   1   5  -1    2.40    0.90
   1   5  -1    2.90    1.00
  -1   5   1    3.40    1.10
  -1   5   1    3.20    0.90
   0  -5  -1   99.29    4.00
   0  -5  -1  104.89    4.30
   0  -5   1  105.29    3.90
   0  -5   1   99.99    4.30
   0   5  -1  107.49    4.40
   0   5  -1  106.59    4.10
   0   5   1   96.29    4.30
   0   5   1   99.29    4.00
   1  -5   1   71.89    3.40
  -1  -5  -1   76.69    3.40
  -1  -5  -1   71.99    3.40
   1  -5   1   68.69    2.90
   1   5   1   68.99    3.40
   1   5   1   73.99    3.30
  -1   5  -1   69.69    3.40
  -2  -5  -1    0.90    0.90
   2  -5   1    1.30    0.80
   2  -5   1    1.30    0.70
  -2  -5  -1    0.80    0.80
   2   5   1    1.30    0.90
  -2   5  -1    1.20    0.90
  -2   5  -1    1.10    0.80
   2   5   1    0.00    0.90
   3  -5   1   53.19    2.90
  -3  -5  -1   54.39    3.20
   3  -5   1   57.89    3.00
  -3  -5  -1   55.29    2.90
   3  -5   1   56.29    2.90
   3   5   1   58.59    3.00
   3   5   1   54.69    3.30
  -3   5  -1   58.39    2.90
  -4  -5  -1  179.98    6.70
   4  -5   1  184.08    7.10
   4  -5   1  188.68    7.10
   4  -5   1  176.08    6.70
  -4  -5  -1  181.98    6.70
  -4   5  -1  181.38    6.60
   4   5   1  170.88    7.40
  -5  -5  -1  329.07   11.20
   5  -5   1  326.47   11.20
  -5  -5  -1  322.87   12.40
  -5  -5  -1  336.27   11.20
   5  -5   1  336.27   12.10
  -5   5  -1  344.87   11.10
   5   5   1  323.67   12.30
   6  -5   1   84.69    4.90
  -6  -5  -1   77.69    3.80
  -6  -5  -1   82.79    3.70
   6  -5   1   77.39    3.60
   6  -5   1   76.49    3.60
   6  -5   1   79.99    4.50
   6   5   1   75.59    7.20
  -7  -5  -1  234.28    8.10
   7  -5   1  230.18    7.80
   7  -5   1  225.18    9.80
   7  -5   1  217.08    7.80
  -7  -5  -1  227.38    8.00
   7   5   1  226.38   10.10
   8  -5   1   78.69    3.00
  -8  -5  -1   79.79    3.40
   8  -5   1   77.49    5.60
   8  -5   1   72.29    3.10
   8   5   1   89.09    5.90
   9  -5   1  207.18   10.10
   9   5   1  206.58   10.40
  10  -5   1   22.60    4.20
  10   5   1   22.90    4.20
  11  -5   1    9.80    3.60
  11   5   1    7.70    3.20
  12  -5   1   16.50    4.40
  12   5   1   13.30    4.30
  12  -6  -1   67.99    7.70
  12   6  -1   71.49    7.00
  11  -6  -1   32.70    5.00
  11   6  -1   32.70    5.30
  10  -6  -1  142.39    8.60
  10   6  -1  135.29    8.50
  -9  -6   1  148.19    5.60
   9  -6  -1  140.99    5.20
   9  -6  -1  152.58    8.30
   9  -6  -1  136.69    5.40
  -9  -6   1  149.99    5.60
   9   6  -1  145.69    8.40
   8  -6  -1   66.19    5.10
   8  -6  -1   63.59    3.10
  -8  -6   1   62.99    3.40
  -8  -6   1   57.49    3.40
   8  -6  -1   57.49    3.00
   8   6  -1   63.99    5.20
  -7  -6   1  603.14   20.00
   7  -6  -1  622.24   19.70
  -7  -6   1  647.44   20.10
   7  -6  -1  613.94   19.80
   7  -6  -1  622.94   21.70
   7   6  -1  597.84   21.80
   6  -6  -1   82.59    4.10
   6  -6  -1   87.69    4.10
  -6  -6   1   89.99    4.30
   6  -6  -1   94.59    5.30
   6   6  -1   86.39    6.50
   6   6  -1   90.29    4.40
   5  -6  -1 1042.60   32.70
   5  -6  -1 1079.59   32.70
   5  -6  -1 1024.70   33.40
  -5  -6   1 1018.40   33.70
   5  -6  -1 1062.69   33.50
  -5  -6   1 1044.70   32.90
   5   6  -1 1057.69   33.80
   5   6  -1 1067.89   32.80
   4  -6  -1  124.19    5.10
   4  -6  -1  118.39    5.40
  -4  -6   1  115.89    5.10
  -4  -6   1  125.39    6.70
   4  -6  -1  121.39    5.10
   4  -6  -1  118.99    5.20
   4   6  -1  117.19    5.10
   4   6  -1  109.89    5.50
  -3  -6   1 1374.16   42.30
   3  -6  -1 1383.86   42.20
  -3  -6   1 1322.67   42.40
   3  -6  -1 1371.66   42.20
   3   6  -1 1372.76   42.20
  -3   6   1 1384.26   42.40
  -3   6   1 1370.26   42.10
   3   6  -1 1362.66   42.40
  -2  -6   1  304.87   10.70
  -2  -6   1  306.27   10.50
   2  -6  -1  315.77   10.70
   2  -6  -1  296.27   10.30
  -2   6   1  300.87   10.50
   2   6  -1  307.67   10.50
  -2   6   1  313.37   10.70
   2   6  -1  296.47   10.60
  -1  -6   1  952.50   29.40
  -1  -6   1  959.90   29.80
   1  -6  -1  945.31   29.40
   1  -6  -1  967.00   29.80
  -1   6   1  941.21   29.80
  -1   6   1  948.91   29.40
   1   6  -1  951.80   29.30
   1   6  -1  935.71   29.80
   0  -6   1  985.90   30.30
   0  -6  -1  982.90   30.30
   0  -6  -1  967.60   30.00
   0  -6   1  972.90   29.70
   0   6  -1  961.60   29.70
   0   6   1  942.11   29.90
   0   6   1  969.80   30.30
   0   6  -1  955.70   30.20
  -1  -6  -1  111.69    4.70
   1  -6   1  112.39    4.30
   1  -6   1  111.79    4.80
  -1  -6  -1  115.09    4.90
  -1   6  -1  113.89    4.80
  -1   6  -1  112.39    4.40
   1   6   1  106.89    4.80
   1   6   1  106.79    4.60
  -2  -6  -1 1043.40   33.30
   2  -6   1 1041.40   33.20
  -2  -6  -1 1059.59   33.30
   2  -6   1 1065.29   32.80
  -2   6  -1 1082.39   33.20
   2   6   1 1073.99   33.30
   2   6   1 1069.49   33.20
  -2   6  -1 1093.39   32.90
  -3  -6  -1   89.09    4.20
   3  -6   1   89.09    4.00
  -3  -6  -1   87.39    4.40
   3  -6   1   87.69    3.90
   3  -6   1   85.19    4.00
   3   6   1   82.89    4.30
  -3   6  -1   90.29    4.10
   3   6   1   83.59    4.10
   4  -6   1  885.91   28.40
   4  -6   1  885.51   28.20
  -4  -6  -1  926.81   28.30
   4  -6   1  923.41   28.50
  -4  -6  -1  882.81   28.30
  -4  -6  -1  874.21   29.00
  -4   6  -1  932.31   28.20
   4   6   1  865.71   28.90
   5  -6   1   -0.90    1.10
  -5  -6  -1   -0.80    1.10
   5  -6   1   -0.20    0.90
  -5  -6  -1   -0.70    0.90
   5  -6   1    0.20    0.90
   5   6   1   -0.20    1.30
  -5   6  -1   -1.50    1.00
   6  -6   1  384.66   13.80
   6  -6   1  365.66   12.60
  -6  -6  -1  358.06   12.60
  -6  -6  -1  382.16   12.80
   6   6   1  362.76   14.10
   7  -6   1  129.09    5.30
  -7  -6  -1  123.19    5.60
   7  -6   1  125.89    5.20
  -7  -6  -1  126.09    5.40
   7  -6   1  140.39    7.00
   7   6   1  132.99    7.20
  -8  -6  -1  306.77   10.20
   8  -6   1  273.77    9.80
  -8  -6  -1  296.57   10.20
   8  -6   1  294.07    9.80
   8  -6   1  293.37   12.30
   8   6   1  291.07   12.60
  -9  -6  -1  118.69    4.80
  -9  -6  -1  129.09    5.70
   9  -6   1  138.49    7.80
   9   6   1  128.89    7.90
  10  -6   1  130.89    8.20
  11  -6   1   86.49    7.10
  11   6   1   84.79    7.20
  12  -6   1    3.10    2.70
  12   6   1    1.60    3.00
  11  -7  -1    0.00    2.70
  11   7  -1   -1.60    2.60
  10  -7  -1   63.79    6.00
 -10  -7   1   59.99    3.10
  -9  -7   1    6.70    1.60
   9  -7  -1    6.80    2.90
   9  -7  -1    3.90    1.30
   9  -7  -1    4.40    1.30
  -9  -7   1    5.60    1.70
   9   7  -1    4.90    2.90
   8  -7  -1   23.40    2.30
   8  -7  -1   22.40    2.20
  -8  -7   1   23.20    2.50
   8  -7  -1   29.90    4.30
  -8  -7   1   24.20    2.70
   8   7  -1   19.80    3.50
  -7  -7   1  140.39    5.90
   7  -7  -1  121.19    5.50
  -7  -7   1  130.59    5.80
   7  -7  -1  124.49    6.80
   7  -7  -1  125.89    5.50
   7   7  -1  124.29    7.00
   6  -7  -1  500.35   16.70
  -6  -7   1  500.85   16.90
   6  -7  -1  479.55   16.70
   6  -7  -1  515.35   18.00
   6   7  -1  508.75   16.80
   6   7  -1  497.05   18.00
   5  -7  -1    2.90    1.30
   5  -7  -1    4.50    1.40
   5  -7  -1    3.40    1.40
   5  -7  -1    4.90    1.90
  -5  -7   1    2.90    1.30
   5   7  -1    7.50    1.90
   5   7  -1    5.80    1.70
  -4  -7   1  342.67   12.60
   4  -7  -1  344.67   12.10
   4  -7  -1  344.67   12.30
   4  -7  -1  344.17   12.10
  -4  -7   1  352.56   12.30
   4   7  -1  338.17   12.10
   4   7  -1  348.97   12.60
   3  -7  -1   50.79    3.00
   3  -7  -1   55.19    3.20
  -3  -7   1   52.79    3.30
  -3  -7   1   51.79    3.20
   3   7  -1   52.49    3.30
   3   7  -1   56.39    3.40
  -3   7   1   50.99    3.30
  -3   7   1   53.09    3.30
  -2  -7   1   61.39    3.30
  -2  -7   1   63.69    3.50
   2  -7  -1   56.19    3.00
   2  -7  -1   56.79    3.30
  -2   7   1   55.39    3.20
  -2   7   1   57.09    3.40
   2   7  -1   58.39    3.50
   2   7  -1   56.29    3.20
   1  -7  -1  102.59    4.80
  -1  -7   1  104.29    4.40
   1  -7  -1  102.19    4.40
  -1  -7   1  105.29    4.90
  -1   7   1  105.29    4.50
  -1   7   1  103.19    4.90
   1   7  -1  103.49    4.90
   1   7  -1   97.89    4.30
   0  -7   1    1.60    1.10
   0  -7  -1    1.70    1.10
   0  -7   1    2.40    0.90
   0  -7  -1    2.60    1.00
   0   7   1    2.60    1.00
   0   7   1    3.70    1.30
   0   7  -1    3.20    1.00
   0   7  -1    1.90    1.20
  -1  -7  -1  697.03   22.50
   1  -7   1  707.73   22.80
   1  -7   1  688.63   22.00
  -1  -7  -1  714.93   22.80
   1   7   1  714.53   22.50
  -1   7  -1  699.83   22.70
   1   7   1  700.33   22.70
  -1   7  -1  706.53   22.10
  -2  -7  -1  111.99    5.20
   2  -7   1  116.19    4.70
  -2  -7  -1  113.29    5.20
   2  -7   1  125.09    5.30
  -2   7  -1  124.59    5.30
  -2   7  -1  114.89    4.90
   2   7   1  121.69    5.20
   2   7   1  109.89    5.20
   3  -7   1    4.30    1.20
   3  -7   1    4.90    1.30
  -3  -7  -1    3.40    1.20
   3   7   1    5.30    1.60
  -3   7  -1    4.60    1.40
   3   7   1    3.10    1.40
   4  -7   1   37.60    2.70
  -4  -7  -1   33.90    2.60
  -4  -7  -1   33.50    2.90
   4  -7   1   37.80    2.60
   4  -7   1   31.30    2.70
  -4  -7  -1   34.70    2.90
   4   7   1   32.10    3.00
  -4   7  -1   35.20    2.70
   5  -7   1  183.28    7.40
  -5  -7  -1  166.58    6.90
   5  -7   1  164.18    7.00
  -5  -7  -1  179.88    7.00
   5  -7   1  157.38    6.80
  -5   7  -1  168.08    6.80
   5   7   1  160.98    7.60
  -6  -7  -1    1.10    1.30
   6  -7   1    3.00    1.30
  -6  -7  -1   -1.70    1.50
   6  -7   1    4.80    1.90
   6   7   1    2.90    1.80
   7  -7   1   53.09    3.30
  -7  -7  -1   54.59    3.50
   7  -7   1   59.19    4.60
   7  -7   1   56.39    3.40
  -7  -7  -1   60.19    3.80
   7   7   1   59.49    4.80
   8  -7   1   10.00    1.60
   8  -7   1    8.50    2.70
  -8  -7  -1    7.00    1.60
  -8  -7  -1   10.80    2.00
   8  -7   1    8.50    1.50
   8   7   1   13.00    3.00
   9  -7   1   52.79    6.00
   9  -7   1   45.60    2.70
   9  -7   1   38.90    2.50
  -9  -7  -1   46.40    3.10
  -9  -7  -1   58.09    3.30
   9   7   1   59.29    5.40
 -10  -7  -1   32.10    3.10
  10  -7   1   39.40    5.70
  10   7   1   27.70    4.50
  11  -7   1   13.10    3.80
  11   7   1   11.00    3.60
  11  -8  -1    8.30    3.50
  11   8  -1    1.70    2.80
 -10  -8   1   11.00    2.00
 -10  -8   1   10.40    1.90
  10  -8  -1   13.40    3.80
  10  -8  -1   10.20    1.50
  10  -8  -1    8.50    1.30
  10   8  -1   14.70    3.90
  -9  -8   1   41.00    3.30
   9  -8  -1   31.60    2.80
  -9  -8   1   50.79    3.50
   9  -8  -1   53.59    5.90
   9  -8  -1   44.10    3.00
   9   8  -1   48.70    5.60
  -8  -8   1   25.60    3.10
  -8  -8   1   21.60    2.80
   8  -8  -1   27.40    4.20
   8  -8  -1   22.50    2.50
   8  -8  -1   20.20    2.50
   8   8  -1   25.20    4.10
   7  -8  -1  171.18    7.00
  -7  -8   1  176.58    7.40
   7  -8  -1  166.48    8.20
  -7  -8   1  158.88    7.10
   7  -8  -1  158.48    7.80
   7   8  -1  170.88    8.50
   6  -8  -1    9.70    2.40
  -6  -8   1    7.40    1.80
   6  -8  -1   10.40    2.00
   6   8  -1    8.80    2.00
   6   8  -1    9.50    2.50
   5  -8  -1  595.24   19.40
  -5  -8   1  594.94   19.60
   5  -8  -1  550.74   20.00
   5  -8  -1  591.74   19.90
   5   8  -1  563.64   20.00
   5   8  -1  587.64   19.50
   4  -8  -1    3.90    1.30
   4  -8  -1    4.20    1.50
  -4  -8   1    2.20    1.30
   4  -8  -1    4.50    1.50
   4  -8  -1    1.80    1.30
  -4  -8   1    4.00    1.40
   4   8  -1    5.00    1.60
   4   8  -1    2.20    1.40
   3  -8  -1  100.89    4.60
   3  -8  -1   99.69    5.70
  -3  -8   1   92.59    4.80
  -3  -8   1   97.69    5.30
  -3   8   1   97.89    4.80
   3   8  -1   93.89    4.90
   3   8  -1   92.99    4.70
  -3   8   1   98.29    4.90
   2  -8  -1   28.70    3.50
  -2  -8   1   36.00    2.60
   2  -8  -1   31.30    2.30
  -2  -8   1   27.80    2.60
  -2   8   1   29.10    2.70
   2   8  -1   33.50    2.50
   2   8  -1   31.10    2.80
  -2   8   1   24.10    2.40
  -1  -8   1  359.16   13.00
   1  -8  -1  334.47   11.70
  -1  -8   1  334.57   11.70
   1  -8  -1  325.67   13.30
  -1   8   1  347.97   11.80
   1   8  -1  347.97   12.30
  -1   8   1  342.47   12.30
   1   8  -1  341.37   11.70
   0  -8  -1  413.76   14.00
   0  -8   1  414.86   13.80
   0  -8  -1  432.86   15.20
   0  -8   1  410.76   15.10
   0   8  -1  411.96   14.40
   0   8   1  419.66   14.00
   0   8   1  410.96   14.40
   0   8  -1  407.96   13.70
  -1  -8  -1   60.79    3.90
   1  -8   1   54.89    4.20
   1  -8   1   57.49    3.00
  -1  -8  -1   60.29    3.40
   1   8   1   58.09    3.70
  -1   8  -1   56.49    3.60
   1   8   1   55.99    3.30
  -1   8  -1   55.99    3.10
   2  -8   1  380.96   12.70
  -2  -8  -1  372.86   13.30
  -2  -8  -1  379.96   13.50
   2  -8   1  377.56   15.90
  -2   8  -1  383.76   12.90
   2   8   1  366.76   13.30
  -2   8  -1  374.36   13.30
   2   8   1  390.76   13.30
   3  -8   1   82.59    4.80
   3  -8   1   79.49    3.80
  -3  -8  -1   81.59    4.30
  -3  -8  -1   71.39    4.20
   3   8   1   76.49    4.30
  -3   8  -1   79.69    4.20
  -3   8  -1   70.89    4.00
   3   8   1   75.29    4.30
  -4  -8  -1   88.39    4.70
  -4  -8  -1   86.99    4.60
   4  -8   1   79.59    4.90
   4  -8   1   87.69    4.60
   4   8   1   82.39    4.80
  -4   8  -1   88.89    4.50
   5  -8   1   75.49    4.60
  -5  -8  -1   82.69    4.60
   5  -8   1   72.39    4.20
  -5  -8  -1   71.49    4.20
  -5   8  -1   79.89    4.30
   5   8   1   74.69    6.00
   6  -8   1   62.69    4.50
  -6  -8  -1   49.30    3.60
  -6  -8  -1   56.69    3.90
   6   8   1   55.69    4.60
   7  -8   1   42.60    3.00
  -7  -8  -1   33.70    3.40
   7  -8   1   38.10    4.40
  -7  -8  -1   29.00    3.10
   7  -8   1   30.50    2.90
   7   8   1   38.60    4.50
  -8  -8  -1   48.00    3.70
   8  -8   1   42.00    3.00
   8  -8   1   52.19    4.60
   8  -8   1   38.00    2.90
  -8  -8  -1   33.90    4.30
   8   8   1   41.50    5.00
  -9  -8  -1   32.20    3.10
   9  -8   1   24.80    2.40
  -9  -8  -1   24.10    2.70
   9  -8   1   26.00    2.40
   9  -8   1   36.90    4.80
   9   8   1   35.50    5.20
 -10  -8  -1   88.39    4.30
  10  -8   1   91.69    7.00
 -10  -8  -1   85.29    4.20
  10   8   1   83.99    7.00
  11  -8   1    5.20    3.20
  11   8   1    5.00    3.20
 -11  -9   1   63.79    3.70
  11  -9  -1   57.69    6.80
  11   9  -1   61.59    7.20
  10  -9  -1   20.30    2.30
 -10  -9   1   23.50    2.80
  10   9  -1   25.90    4.70
   9  -9  -1   23.50    2.70
   9  -9  -1   21.20    3.90
  -9  -9   1   16.10    2.60
  -9  -9   1   16.00    2.70
   9   9  -1   23.40    4.30
   8  -9  -1  107.99    5.70
  -8  -9   1  125.49    6.30
   8  -9  -1  121.89    7.20
   8  -9  -1  121.59    5.70
  -8  -9   1  106.79    6.00
   8   9  -1  124.29    7.40
   7  -9  -1   40.90    3.30
  -7  -9   1   36.80    4.00
   7  -9  -1   35.30    3.60
   7  -9  -1   40.30    4.50
  -7  -9   1   35.70    4.10
   7   9  -1   35.50    4.30
   6  -9  -1  259.37    9.90
  -6  -9   1  238.18   10.70
   6  -9  -1  257.27   10.60
   6  -9  -1  231.88    9.80
   6   9  -1  256.27   10.00
   6   9  -1  259.37   10.80
   5  -9  -1   24.20    3.00
   5  -9  -1   33.50    3.50
   5  -9  -1   23.00    2.90
  -5  -9   1   29.20    3.20
   5   9  -1   26.40    3.20
   5   9  -1   33.80    5.70
   4  -9  -1  329.77   12.20
  -4  -9   1  338.37   12.60
   4  -9  -1  324.07   12.30
  -4  -9   1  346.67   16.00
   4  -9  -1  352.16   12.50
   4   9  -1  327.57   12.50
   4   9  -1  343.07   12.50
  -4   9   1  338.67   12.60
   3  -9  -1   34.70    3.00
  -3  -9   1   38.20    3.00
  -3  -9   1   36.40    3.20
   3  -9  -1   35.60    2.70
   3   9  -1   41.90    3.10
   3   9  -1   42.20    3.40
  -3   9   1   39.70    3.30
  -3   9   1   39.50    3.10
  -2  -9   1  168.78    7.40
   2  -9  -1  174.08    6.90
   2  -9  -1  170.28    7.40
  -2  -9   1  169.88    7.00
   2   9  -1  177.18    7.00
  -2   9   1  168.38    7.40
   2   9  -1  170.58    7.40
  -2   9   1  171.28    7.00
   1  -9  -1   31.10    2.40
   1  -9  -1   31.20    2.80
  -1  -9   1   33.90    2.50
  -1  -9   1   27.60    3.00
   1   9  -1   26.20    3.00
  -1   9   1   33.40    3.10
   1   9  -1   30.60    2.50
  -1   9   1   30.10    2.60
   0  -9  -1   83.99    4.60
   0  -9  -1   85.69    4.20
   0  -9   1   82.09    4.00
   0  -9   1   81.99    4.60
   0   9  -1   84.99    4.00
   0   9   1   78.19    4.10
   0   9   1   84.19    4.70
   0   9  -1   80.39    4.60
   1  -9   1   91.29    4.80
  -1  -9  -1   89.79    5.00
  -1  -9  -1   93.59    4.90
   1  -9   1   88.89    4.10
  -1   9  -1   84.09    4.80
   1   9   1   85.09    4.80
   1   9   1   88.79    4.50
  -1   9  -1   94.79    4.30
   2  -9   1   32.60    2.90
   2  -9   1   30.30    2.30
  -2  -9  -1   37.10    3.10
  -2  -9  -1   28.70    2.70
   2   9   1   33.80    2.80
  -2   9  -1   31.20    3.00
  -2   9  -1   30.40    2.60
   2   9   1   33.10    3.20
   3  -9   1  162.78    6.50
  -3  -9  -1  160.08    7.10
   3  -9   1  156.78    7.00
  -3  -9  -1  158.08    7.10
   3   9   1  161.48    7.10
   3   9   1  161.98    7.10
  -3   9  -1  161.38    7.10
  -3   9  -1  156.38    6.80
  -4  -9  -1    1.10    1.70
  -4  -9  -1    1.80    1.40
   4  -9   1    2.10    1.50
   4  -9   1    2.30    1.40
   4  -9   1    0.40    1.00
  -4   9  -1    3.10    1.50
   4   9   1    3.30    1.80
  -5  -9  -1   49.50    3.70
   5  -9   1   46.90    3.60
   5  -9   1   49.99    3.90
  -5  -9  -1   50.89    4.20
  -5   9  -1   51.59    3.80
   5   9   1   57.19    4.40
  -6  -9  -1   67.69    4.90
  -6  -9  -1   67.69    4.90
   6  -9   1   70.19    4.90
   6  -9   1   61.19    4.20
   6   9   1   79.09    5.30
  -7  -9  -1   95.29    5.90
   7  -9   1   92.99    6.00
  -7  -9  -1  109.99    5.70
   7  -9   1   87.49    5.10
   7  -9   1  100.19    5.20
   7   9   1  104.39    6.60
  -8  -9  -1   43.50    3.70
   8  -9   1   44.90    3.50
   8  -9   1   50.39    3.60
   8  -9   1   55.29    4.90
  -8  -9  -1   56.29    4.20
   8   9   1   56.49    5.30
   9  -9   1   63.79    3.80
  -9  -9  -1   54.99    4.20
   9  -9   1   68.79    5.80
  -9  -9  -1   66.79    4.50
   9   9   1   67.09    6.20
  10  -9   1   22.00    2.30
  10  -9   1   26.00    4.90
 -10  -9  -1   23.20    2.90
  10   9   1   24.00    4.80
  11  -9   1   29.30    5.10
  11   9   1   31.40    5.20
  11 -10  -1    3.80    3.00
 -11 -10   1    7.60    2.20
  11  10  -1    5.00    3.80
  10 -10  -1   22.20    4.40
 -10 -10   1   20.80    3.20
  10 -10  -1   25.90    2.80
  10  10  -1   25.10    4.80
  -9 -10   1   -0.60    1.90
   9 -10  -1    0.10    2.50
   9 -10  -1    0.40    1.90
   9 -10  -1    2.70    1.70
   9  10  -1    1.60    2.90
  -8 -10   1    0.20    2.20
   8 -10  -1   -1.50    1.90
   8 -10  -1    2.10    1.60
   8  10  -1    2.20    2.50
   7 -10  -1    3.60    2.20
   7 -10  -1    1.50    1.50
  -7 -10   1    1.80    2.40
   7  10  -1    2.50    2.20
   6 -10  -1   11.40    2.50
   6 -10  -1   11.30    2.70
   6  10  -1   12.50    2.80
   5 -10  -1    2.50    2.30
   5 -10  -1    4.40    1.80
   5  10  -1    5.20    2.30
   5  10  -1    2.10    1.90
   4 -10  -1    3.30    1.70
   4  10  -1    1.00    1.50
  -4  10   1    2.50    1.80
   4  10  -1    0.90    1.70
   3 -10  -1   11.00    2.00
  -3 -10   1   10.00    2.10
  -3  10   1   12.70    2.40
  -3  10   1   11.20    2.20
   3  10  -1   13.20    2.20
   3  10  -1   10.30    2.40
   2 -10  -1   44.90    3.00
  -2 -10   1   42.20    3.20
  -2  10   1   46.30    3.80
   2  10  -1   44.10    3.70
  -2  10   1   43.80    3.30
   2  10  -1   46.60    3.20
   1 -10  -1   43.10    3.00
  -1 -10   1   48.40    3.20
  -1  10   1   45.90    3.70
   1  10  -1   49.10    3.80
  -1  10   1   45.70    3.30
   1  10  -1   44.80    3.10
   0 -10  -1   86.59    4.40
   0 -10   1   77.99    4.10
   0  10  -1   81.79    4.20
   0  10   1   81.69    4.30
   0  10  -1   83.39    4.90
   0  10   1   81.09    4.90
  -1 -10  -1    1.70    1.30
   1 -10   1    2.00    1.10
  -1  10  -1   -0.40    1.40
  -1  10  -1   -0.60    1.20
   1  10   1   -0.10    1.40
   1  10   1   -1.60    1.00
   2 -10   1    6.00    1.40
  -2 -10  -1    8.60    1.90
  -2  10  -1    9.70    1.90
   2  10   1    9.90    2.00
  -2  10  -1    7.70    2.20
   2  10   1    8.80    2.10
   3 -10   1   31.50    2.60
  -3  10  -1   36.10    3.10
   3  10   1   35.00    3.30
  -3  10  -1   31.10    3.40
   3  10   1   30.10    3.40
  -4 -10  -1    5.30    2.30
   4 -10   1    2.30    1.40
   4 -10   1    4.10    1.80
  -4  10  -1    3.40    1.70
   4  10   1    7.10    2.10
  -5 -10  -1   49.30    4.30
   5 -10   1   44.60    3.90
   5  10   1   47.80    4.30
  -5  10  -1   52.19    4.00
   6 -10   1    1.80    1.70
   6 -10   1    3.50    2.00
  -6 -10  -1    2.60    2.30
   6  10   1    2.30    2.10
   7 -10   1   24.40    3.00
  -7 -10  -1   29.80    4.40
   7 -10   1   30.40    4.20
   7  10   1   31.00    4.40
   8 -10   1    4.60    2.40
   8 -10   1    4.90    2.00
  -8 -10  -1   12.00    3.00
   8  10   1    5.40    2.90
   9 -10   1   -2.40    2.10
  -9 -10  -1    1.40    2.10
   9 -10   1    0.30    1.60
   9 -10   1   -0.80    1.40
   9  10   1    4.80    3.30
 -10 -10  -1   -2.70    1.70
  10 -10   1    0.30    1.30
  10 -10   1   -2.00    3.00
  10  10   1    5.10    3.40
 -10 -11   1   11.30    2.90
  10 -11  -1   11.20    3.70
  10 -11  -1    8.10    2.10
  10  11  -1    5.90    3.20
   9 -11  -1    5.60    3.20
   9 -11  -1    1.20    1.80
  -9 -11   1    0.40    2.40
   9  11  -1    7.10    3.30
  -8 -11   1   21.10    3.40
   8 -11  -1   15.70    2.70
   8 -11  -1   18.20    3.70
   8  11  -1   22.20    4.10
   7 -11  -1   13.10    3.30
   7 -11  -1   12.70    2.60
  -7 -11   1   10.00    2.80
   7  11  -1   11.40    3.00
   6 -11  -1    0.60    2.20
   6 -11  -1   -2.40    1.60
   6  11  -1    2.00    2.10
   5 -11  -1    5.10    2.20
   5 -11  -1    6.30    2.20
   5  11  -1    4.40    2.20
   5  11  -1    4.90    2.10
   4 -11  -1   23.70    3.30
   4  11  -1   20.80    3.10
   4  11  -1   18.20    2.90
  -4  11   1   22.80    3.30
  -3  11   1    0.80    1.50
   3  11  -1    0.40    1.80
  -3  11   1    2.40    1.80
   3  11  -1    3.40    1.70
   2 -11  -1   41.30    3.10
  -2 -11   1   35.80    3.10
   2  11  -1   45.00    3.90
  -2  11   1   43.30    3.50
   2  11  -1   42.40    3.30
  -2  11   1   41.60    3.80
  -1 -11   1   14.50    2.30
   1 -11  -1   15.30    2.40
   1  11  -1   12.50    2.10
  -1  11   1   12.10    2.50
   1  11  -1   11.20    2.60
  -1  11   1   15.80    2.50
   0 -11   1    9.60    1.80
   0 -11  -1    5.80    1.60
   0  11   1    9.50    2.40
   0  11   1    8.30    1.90
   0  11  -1    9.50    1.80
   0  11  -1    6.70    2.10
   1 -11   1   27.90    3.20
  -1 -11  -1   29.10    2.80
  -1  11  -1   31.20    2.80
   1  11   1   32.90    3.60
  -1  11  -1   24.50    3.30
   1  11   1   31.10    3.00
   2 -11   1    0.70    1.20
   2  11   1    2.40    1.60
  -2  11  -1    0.80    1.50
   2  11   1    0.10    1.60
  -2  11  -1    1.60    1.50
   3 -11   1  112.19    5.50
   3  11   1  118.39    6.40
  -3  11  -1  127.39    6.40
  -3  11  -1  120.79    6.00
  -4 -11  -1   -1.60    2.00
   4 -11   1   -1.50    1.40
  -4  11  -1   -0.60    1.60
   4  11   1    0.90    1.70
  -5 -11  -1  127.09    6.80
  -5  11  -1  106.09    6.10
   5  11   1  111.49    6.50
  -6 -11  -1    5.30    2.50
   6 -11   1    6.20    2.30
   6 -11   1    5.40    2.00
   6  11   1    2.80    2.20
   7 -11   1   16.00    2.80
  -7 -11  -1   12.30    2.90
   7 -11   1   15.80    3.30
   7  11   1   11.10    3.20
  -8 -11  -1   29.40    3.90
   8 -11   1   27.00    3.30
   8 -11   1   28.60    4.30
   8  11   1   37.40    5.20
   9 -11   1    5.00    2.40
   9 -11   1    6.60    3.00
  -9 -11  -1    7.00    2.70
   9  11   1    6.30    3.40
  10 -11   1   17.60    4.00
 -10 -11  -1   16.10    3.60
  10 -11   1   16.70    2.60
  10  11   1   17.60    4.40
  10 -12  -1    7.60    2.20
 -10 -12   1    9.10    3.10
  10 -12  -1    5.50    3.00
  10  12  -1    7.80    3.60
  -9 -12   1    4.20    2.70
   9 -12  -1    8.00    4.00
   9 -12  -1    2.90    2.00
   9  12  -1    2.30    2.90
  -8 -12   1   -0.70    2.40
   8 -12  -1    7.20    3.00
   8 -12  -1    3.60    2.10
   8  12  -1    6.40    3.20
   7 -12  -1    3.90    2.20
   7 -12  -1   10.00    3.20
  -7 -12   1    5.10    2.70
   7  12  -1    2.30    2.40
  -6 -12   1    9.20    2.80
   6 -12  -1    4.80    2.40
   6 -12  -1    4.90    2.40
   6  12  -1   14.00    3.20
   5 -12  -1   79.89    5.50
   5 -12  -1   76.69    5.50
   5  12  -1   88.89    5.70
   5  12  -1   84.29    5.70
   4 -12  -1    0.40    2.00
   4  12  -1   -0.30    2.00
  -4  12   1   -0.10    1.90
   4  12  -1   -0.90    1.70
   3 -12  -1    1.50    1.90
   3  12  -1    1.80    2.10
  -3  12   1    2.70    2.00
  -2  12   1   23.50    3.40
   2  12  -1   19.40    3.20
   2  12  -1   23.50    3.00
  -2  12   1   22.90    3.20
  -1 -12   1   67.29    4.20
  -1  12   1   71.09    4.40
   1  12  -1   67.59    5.00
   1  12  -1   72.99    4.30
  -1  12   1   61.19    4.80
   0 -12   1   14.70    2.30
   0  12  -1   15.80    2.80
   0  12   1   16.00    2.60
   0  12  -1   13.40    2.30
   0  12   1   14.10    2.80
   1 -12   1    7.40    1.80
   1  12   1   10.50    2.50
   1  12   1    7.30    2.10
  -1  12  -1   10.50    2.10
  -1  12  -1    6.60    2.30
   2 -12   1   39.50    3.10
  -2  12  -1   41.50    4.00
  -2  12  -1   43.90    3.60
   2  12   1   32.30    3.90
  -3 -12  -1   30.60    4.10
  -3  12  -1   30.70    3.70
  -3  12  -1   35.10    3.70
   3  12   1   30.30    3.60
  -4 -12  -1   10.20    3.00
   4 -12   1    6.40    2.20
  -4  12  -1    5.60    2.30
   4  12   1   16.70    3.10
  -5 -12  -1    1.90    2.70
   5 -12   1   11.80    2.60
   5  12   1    9.90    2.70
  -5  12  -1   11.50    2.70
   6 -12   1    5.60    2.40
   6 -12   1    1.60    2.00
  -6 -12  -1    3.90    2.80
   6  12   1    8.20    2.80
  -7 -12  -1    3.70    2.90
   7 -12   1    1.10    2.30
   7 -12   1    5.70    2.50
   7  12   1    1.20    2.20
   8 -12   1    2.90    2.40
   8 -12   1   -0.50    1.80
  -8 -12  -1    0.70    2.50
  -9 -12  -1    2.90    2.60
   9 -12   1   10.00    3.20
   9 -12   1    3.00    2.00
   9  12   1    7.20    3.30
  -9 -13   1   12.00    3.80
   9 -13  -1    9.50    2.50
   9 -13  -1   19.40    4.30
   9  13  -1    5.60    3.30
  -8 -13   1   34.30    4.80
   8 -13  -1   34.70    4.10
   8 -13  -1   44.20    5.50
   8  13  -1   30.20    6.10
   7 -13  -1   -1.50    2.00
   7 -13  -1    6.50    2.90
  -7 -13   1    0.30    2.60
   7  13  -1    2.10    2.60
   6 -13  -1  117.79    7.10
   6 -13  -1  105.39    6.60
  -6 -13   1  114.99    7.30
   6  13  -1  118.99    7.20
   5 -13  -1    8.10    2.90
   5 -13  -1   12.00    3.00
   5  13  -1    8.70    2.90
   5  13  -1   14.00    3.00
   4 -13  -1  130.39    7.20
  -4  13   1  124.39    6.90
   4  13  -1  116.09    6.60
   4  13  -1  119.69    7.10
   3 -13  -1    1.90    2.40
  -3  13   1    5.80    2.40
   3  13  -1    4.70    2.10
   3  13  -1    4.60    2.60
   2 -13  -1  137.09    7.50
   2  13  -1  123.09    7.20
  -2  13   1  124.39    7.40
   1  13  -1   42.40    4.70
  -1  13   1   53.19    4.70
   1  13  -1   52.49    3.90
   0  13  -1   24.10    3.70
   0  13  -1   20.20    2.80
   0  13   1   20.00    3.50
  -1  13  -1   14.00    3.00
   1  13   1   12.30    2.50
   1  13   1   17.10    3.40
  -1  13  -1   16.80    2.70
   2  13   1   -0.20    1.90
  -2  13  -1    2.80    1.90
  -2  13  -1    2.30    2.20
  -3 -13  -1   30.50    4.30
  -3  13  -1   35.90    3.80
   3  13   1   32.70    3.90
  -3  13  -1   35.30    4.20
  -4 -13  -1   -3.70    2.20
   4  13   1    0.20    2.00
  -4  13  -1    0.50    2.10
   5 -13   1   59.69    5.00
  -5 -13  -1   67.19    5.60
   5  13   1   74.49    5.60
  -6 -13  -1    5.40    3.20
   6 -13   1    0.80    2.30
   6 -13   1    4.10    2.40
   6  13   1    3.20    2.40
   7 -13   1   35.00    4.70
   7 -13   1   47.00    4.50
  -7 -13  -1   41.50    5.20
   7  13   1   45.70    5.60
  -8 -13  -1    5.30    2.90
   8 -13   1    9.10    3.30
   8 -13   1    1.70    2.20
   8  13   1    6.60    3.40
  -9 -13  -1   63.99    5.90
   9 -13   1   66.79    5.00
   9  13   1   70.29    6.80
  -8 -14   1   -1.50    2.90
   8 -14  -1    2.50    2.10
   8 -14  -1    1.60    2.80
   8  14  -1   -2.40    2.60
   7 -14  -1   31.90    4.60
  -7 -14   1   23.40    4.20
   7 -14  -1   16.80    3.40
   7  14  -1   18.60    4.10
  -6 -14   1    1.80    2.70
   6 -14  -1    5.90    2.50
   6 -14  -1    3.40    2.60
   6  14  -1    4.80    2.80
  -5 -14   1   19.70    3.90
   5 -14  -1   24.70    3.90
   5 -14  -1   20.40    3.60
   5  14  -1   32.50    4.30
   4 -14  -1    6.40    2.90
  -4  14   1    7.00    2.70
   4  14  -1    6.00    2.40
   4  14  -1    2.90    2.50
   3 -14  -1    6.40    2.70
   3  14  -1    9.10    2.70
  -3  14   1    6.70    2.70
   3  14  -1    3.50    2.60
   2 -14  -1   -1.50    2.00
   2  14  -1    0.80    1.70
   2  14  -1   -0.30    2.30
  -2  14   1    0.70    2.00
   1 -14  -1   20.10    4.00
  -1  14   1   26.40    3.50
   1  14  -1   25.00    3.20
   1  14  -1   11.20    3.00
   0 -14  -1   17.40    3.70
   0  14  -1   16.30    3.30
   0  14   1   17.20    2.90
  -1 -14  -1    1.10    2.30
  -1  14  -1    3.10    2.10
  -1  14  -1    3.00    2.20
   1  14   1   -1.20    1.60
  -2 -14  -1    8.40    3.20
   2  14   1    9.10    2.50
  -2  14  -1    4.80    2.70
  -3 -14  -1    4.80    3.00
  -3  14  -1   12.60    3.10
  -3  14  -1   10.50    2.80
   3  14   1    8.60    2.70
  -4 -14  -1   19.20    4.10
   4  14   1   21.90    3.60
  -4  14  -1   20.50    3.70
  -5 -14  -1   -1.70    2.60
   5 -14   1    0.20    2.30
   5 -14   1    1.90    2.30
   5  14   1    4.10    2.50
   6 -14   1    4.90    2.50
  -6 -14  -1    0.80    2.80
   6 -14   1    3.50    2.70
   6  14   1    7.50    3.00
  -7 -14  -1   -0.90    2.50
   7 -14   1   -0.10    2.10
   7 -14   1   -0.50    2.30
   7  14   1    1.60    3.50
   8 -14   1    9.70    3.40
   8 -14   1    8.40    2.60
  -8 -14  -1    5.40    3.10
   8  14   1    2.80    3.00
   8 -15  -1   28.80    4.10
   8 -15  -1   51.39    6.10
  -8 -15   1   37.40    5.50
   8  15  -1   42.50    5.60
   7 -15  -1    1.50    2.40
   7 -15  -1    0.00    2.70
  -7 -15   1   -3.10    3.00
   7  15  -1    3.20    3.20
   6 -15  -1   42.30    5.20
  -6 -15   1   36.90    5.30
   6 -15  -1   39.50    4.70
   6  15  -1   42.00    5.10
   5 -15  -1    3.40    2.40
   5 -15  -1    3.60    2.80
  -5 -15   1    4.80    3.20
   5  15  -1    3.50    2.60
   4 -15  -1  210.58   10.50
   4  15  -1  216.68    9.80
   4  15  -1  197.28   10.40
  -4  15   1  206.68   10.00
   3 -15  -1   -4.40    2.40
   3  15  -1    0.70    2.00
  -3  15   1   -1.30    2.30
   3  15  -1    3.10    2.60
   2 -15  -1  126.49    7.90
   2  15  -1  122.29    6.70
   2  15  -1  118.09    7.60
  -2  15   1  124.89    6.90
   1 -15  -1   -4.40    2.50
  -1  15   1    0.60    2.20
   1  15  -1    5.00    2.90
   1  15  -1    4.00    2.00
   0 -15  -1   25.00    4.20
   0  15   1   26.60    3.70
   0  15  -1   26.00    3.50
   0  15  -1   29.10    4.40
  -1 -15  -1   33.90    4.90
   1  15   1   43.50    4.20
  -1  15  -1   47.60    4.20
  -1  15  -1   37.00    4.70
  -2 -15  -1    8.20    3.40
   2  15   1    8.00    2.60
  -2  15  -1    9.00    2.70
  -2  15  -1   13.10    3.20
  -3 -15  -1   87.99    7.00
  -3  15  -1  105.99    6.30
  -3  15  -1   94.29    6.70
   3  15   1   93.99    6.20
  -4 -15  -1   33.30    5.00
   4 -15   1   32.40    4.80
   4  15   1   37.60    4.60
   5 -15   1   89.79    6.30
   5 -15   1   84.99    6.60
  -5 -15  -1   90.99    7.10
   5  15   1   85.59    6.40
   6 -15   1    1.30    2.60
  -6 -15  -1    4.90    3.20
   6 -15   1    2.70    2.70
   6  15   1    6.60    3.00
   7 -15   1   52.39    5.80
  -7 -15  -1   40.80    5.50
   7 -15   1   41.40    4.90
   7  15   1   53.49    6.10
   8 -15   1   31.20    7.60
   8 -15   1   30.00    4.40
  -8 -15  -1   31.50    5.10
   8  15   1   36.00    5.60
  -7 -16   1   14.70    4.10
   7 -16  -1   13.60    3.80
   7  16  -1   11.20    3.70
  -6 -16   1   -2.60    3.20
   6 -16  -1    4.30    2.70
   6  16  -1   -1.40    2.70
   5 -16  -1   46.00    5.40
   5 -16  -1   67.49    6.10
  -5 -16   1   51.09    9.40
   5  16  -1   49.70    5.40
  -4 -16   1   19.40    4.20
   4 -16  -1   10.20    3.60
   4  16  -1    9.50    3.00
  -4  16   1   10.90    3.40
   3 -16  -1   65.89    6.00
  -3  16   1   52.99    5.20
   3  16  -1   61.29    6.00
   3  16  -1   61.49    5.10
   2 -16  -1    3.80    3.10
   2  16  -1    3.10    2.90
  -2  16   1    2.20    2.40
   2  16  -1    5.40    2.40
   1 -16  -1   17.00    4.20
  -1  16   1    8.80    2.90
   1  16  -1   14.80    3.00
   1  16  -1   10.00    3.30
   0 -16  -1  169.48    9.70
   0  16   1  161.98    8.20
   0  16  -1  153.68    9.00
   0  16  -1  159.68    7.90
  -1 -16  -1  129.09    8.40
  -1  16  -1  121.79    7.90
   1  16   1  115.79    6.80
  -1  16  -1  112.89    6.70
  -2 -16  -1    8.00    3.70
  -2  16  -1    7.50    2.80
  -2  16  -1    7.80    3.20
   2  16   1    5.70    2.60
  -3 -16  -1    2.40    3.10
   3  16   1    2.80    2.50
  -3  16  -1   -0.30    2.30
   4 -16   1   68.79    6.40
  -4 -16  -1   75.89    6.80
   4  16   1   64.79    5.70
   5 -16   1    1.50    2.50
   5 -16   1    4.20    3.00
   5  16   1    0.10    2.70
   6 -16   1   45.60    5.20
  -6 -16  -1   35.60    5.80
   6  16   1   33.80    5.00
   7 -16   1    1.40    2.70
   7 -16   1   -0.40    2.50
  -7 -16  -1    1.70    3.30
   7  16   1   -5.40    2.40
  -6 -17   1   11.60    4.10
   6 -17  -1    8.00    3.50
   6 -17  -1   12.00    3.50
   6  17  -1   10.10    3.50
   5 -17  -1    2.50    3.00
   5 -17  -1   -1.20    2.40
  -5 -17   1    1.10    3.70
   5  17  -1    3.20    2.90
  -4 -17   1   46.40    6.20
   4 -17  -1   51.49    6.30
   4  17  -1   66.59    5.60
  -4  17   1   54.39    5.90
   3 -17  -1    4.40    3.20
  -3 -17   1    0.30    3.30
  -3  17   1   -1.30    2.50
   3  17  -1   -2.20    2.30
  -2 -17   1   44.70    5.80
   2 -17  -1   28.40    4.80
  -2  17   1   36.00    4.60
   2  17  -1   38.80    4.50
   1 -17  -1    6.20    3.60
   1  17  -1    1.90    3.00
   1  17  -1    6.00    2.60
  -1  17   1   12.90    3.50
   0 -17  -1    3.30    3.20
   0  17   1   -2.50    2.10
   0  17  -1    5.40    2.70
   0  17  -1    0.60    2.80
  -1 -17  -1   16.00    4.00
  -1  17  -1   20.10    3.60
  -1  17  -1   22.60    4.50
   1  17   1   18.40    3.50
  -2 -17  -1    6.90    3.50
   2 -17   1    1.00    2.90
  -2  17  -1    3.80    2.70
   2  17   1   -0.50    2.30
   3 -17   1   45.10    5.60
  -3 -17  -1   37.80    5.60
  -3  17  -1   48.50    5.30
   3  17   1   45.10    5.00
  -4 -17  -1    2.20    3.30
   4 -17   1    5.20    3.30
   4 -17   1    3.10    2.50
   4  17   1   -1.70    2.50
   5 -17   1   36.10    4.90
   5 -17   1   38.00    5.40
  -5 -17  -1   40.20    5.90
   5  17   1   38.50    5.10
   6 -17   1    2.80    2.80
  -6 -17  -1    1.20    3.30
   6 -17   1   -1.70    2.40
   6  17   1    1.50    3.00
  -5 -18   1   28.10    5.20
   5 -18  -1   25.00    5.70
   5 -18  -1   35.50    5.40
   5  18  -1   27.70    4.50
   4 -18  -1    5.00    3.40
  -4 -18   1   -2.20    3.20
  -4  18   1   -2.20    2.80
   4  18  -1    0.40    2.70
   3 -18  -1   88.59    7.60
  -3 -18   1   88.39    7.90
   3  18  -1   83.39    6.20
  -3  18   1   77.79    6.60
  -2 -18   1    3.10    3.50
   2 -18  -1   -1.70    3.00
  -2  18   1   -2.70    2.50
   2  18  -1   -0.20    2.30
   1 -18  -1   55.99    7.00
  -1 -18   1   61.59    7.20
   1  18  -1   65.59    5.50
  -1  18   1   56.39    5.60
   0 -18  -1   61.59    7.10
   0 -18   1   41.80    6.00
   0  18   1   47.30    5.30
   0  18  -1   46.70    5.20
  -1 -18  -1   34.30    5.60
   1 -18   1   31.30    5.40
  -1  18  -1   34.50    4.60
   1  18   1   32.70    4.30
  -2 -18  -1   31.20    5.30
   2 -18   1   39.00    5.70
   2  18   1   41.40    5.10
  -2  18  -1   35.90    4.70
  -3 -18  -1    1.70    3.70
   3 -18   1    1.00    3.20
  -3  18  -1    3.90    3.00
   3  18   1    4.40    2.90
   4 -18   1   92.09    7.60
   4 -18   1   67.99    6.00
  -4 -18  -1   94.19    8.10
   4  18   1   74.89    6.40
   3 -19  -1    3.90    3.70
  -3 -19   1   -4.90    3.10
  -3  19   1    0.90    2.90
   3  19  -1   -2.00    2.40
   2 -19  -1    4.20    3.80
  -2 -19   1    8.30    4.00
  -2  19   1    9.60    3.40
   2  19  -1    5.20    3.00
  -1 -19   1    8.60    4.30
   1 -19  -1    4.60    4.20
   1  19  -1   10.10    3.20
  -1  19   1    4.90    3.10
   0 -19   1   -1.40    3.10
   0 -19  -1    1.00    3.50
   0  19   1   -1.30    2.80
   0  19  -1    3.00    2.80
  -1 -19  -1   10.80    4.90
   1 -19   1    2.20    3.90
  -1  19  -1    1.50    2.70
   1  19   1    5.50    3.00
  -2 -19  -1    5.20    4.20
   2 -19   1   -2.00    3.30
  -2  19  -1    1.80    2.70
  -3 -19  -1    5.60    4.40
   3 -19   1    5.30    3.80
  12   0  -2   48.10    6.20
  10   0  -2  393.36   16.30
   9   0  -2    2.60    2.30
   8   0  -2  297.47   12.40
  -6   0   2  219.68    8.90
   6   0  -2  227.08    9.20
  -5   0   2  401.96   14.00
   5   0  -2  408.86   14.20
  -4   0   2   14.50    0.90
   4   0  -2   16.20    2.00
   4   0  -2   13.20    0.90
  -4   0   2   15.50    1.80
   3   0  -2 1335.87   41.00
  -3   0   2 1322.77   40.90
  -3   0   2 1374.86   40.10
   3   0  -2 1322.47   40.10
   2   0  -2   67.19    2.50
  -2   0   2   72.49    3.10
   2   0  -2   68.69    2.90
  -2   0   2   64.19    2.40
   1   0  -2 2002.10   80.29
  -1   0   2 1942.11   64.09
   1   0  -2 1955.20   64.19
   1   0   2 1316.37   64.99
   1   0   2 1202.08   37.70
   1   0   2 1157.38   62.19
   2   0   2  835.22   24.80
   2   0   2  816.42   25.30
  -2   0  -2  815.72   25.30
  -2   0  -2  822.92   24.80
   3   0   2 2313.47   68.39
  -3   0  -2 2280.67   69.39
   4   0   2 1925.71   58.09
   4   0   2 1963.50   59.69
  -4   0  -2 1920.71   59.59
  -4   0  -2 2001.20   58.09
  -5   0  -2 1358.66   42.60
   5   0   2 1353.96   42.50
  -6   0  -2  196.28    8.20
   6   0   2  199.38    8.50
   7   0   2  303.37   12.20
   8   0   2   11.40    3.10
   9   0   2   -0.90    1.80
  10   0   2   99.69    7.10
  11   0   2   38.50    5.30
  12   0   2   24.30    4.80
  12  -1  -2   26.00    5.20
  12   1  -2   22.90    4.60
  11   1  -2   62.59    9.70
  10  -1  -2   71.19    6.00
  10   1  -2   56.19    5.60
   9  -1  -2  100.79    6.70
   9   1  -2  105.19    6.80
   8  -1  -2   70.29    5.20
   8   1  -2   66.39    5.00
   6  -1  -2  112.79    5.80
  -6  -1   2  111.29    5.50
   6   1  -2  120.09    5.90
  -6   1   2  116.69    5.50
   5  -1  -2    2.60    1.30
  -5  -1   2    2.60    0.50
  -5  -1   2    3.30    1.30
  -5   1   2    3.40    1.20
   5   1  -2    2.80    0.50
   5   1  -2    2.00    1.30
   4  -1  -2  594.24   19.70
  -4  -1   2  610.44   18.50
  -4  -1   2  593.24   19.70
   4  -1  -2  610.54   18.50
   4   1  -2  625.94   18.50
  -4   1   2  592.94   19.60
   4   1  -2  630.24   19.90
  -3  -1   2  174.48    6.70
   3  -1  -2  190.88    6.00
   3  -1  -2  191.98    6.80
  -3  -1   2  185.68    6.00
   3   1  -2  180.98    6.00
  -3   1   2  179.38    6.60
  -3   1   2  191.08    5.90
   3   1  -2  187.58    6.80
   2  -1  -2   16.30    1.10
   2  -1  -2   19.10    1.50
   2  -1  -2   17.30    1.40
  -2  -1   2   19.20    1.20
   2   1  -2   16.40    1.40
   2   1  -2   18.60    1.20
  -2   1   2   18.50    1.10
   1  -1  -2  738.13   22.60
  -1  -1   2  742.43   22.50
   1  -1  -2  736.53   22.50
  -1  -1   2  758.42   22.60
   1   1  -2  736.13   22.50
  -1   1   2  756.32   22.50
  -1   1   2  740.83   22.60
   1   1  -2  743.73   22.60
   0  -1  -2   46.30    1.90
   0  -1   2   45.90    2.00
   0  -1  -2   59.59    2.10
   0   1  -2   58.99    2.10
   0   1   2   46.10    2.00
   0   1   2   57.09    2.00
  -1  -1  -2  302.77    9.70
  -1  -1  -2  298.07    9.50
   1  -1   2  310.27    9.50
   1  -1   2  311.37    9.60
  -1   1  -2  308.87    9.50
   1   1   2  299.07    9.50
  -1   1  -2  313.07    9.60
   1   1   2  305.07    9.70
  -2  -1  -2  392.86   12.10
  -2  -1  -2  390.36   12.60
   2  -1   2  381.16   12.40
   2  -1   2  387.46   12.10
  -2   1  -2  391.96   12.10
   2   1   2  406.86   12.90
   2   1   2  388.56   12.00
   3  -1   2   96.29    3.40
   3  -1   2   98.89    4.20
  -3  -1  -2  100.69    4.30
  -3  -1  -2  101.59    3.50
   3   1   2   99.09    3.40
  -3   1  -2  102.59    4.20
   3   1   2   96.39    4.30
  -3   1  -2   99.69    3.40
   4  -1   2 1516.85   46.20
  -4  -1  -2 1448.56   46.20
  -4  -1  -2 1543.55   44.80
  -4  -1  -2 1496.45   44.80
   4  -1   2 1519.25   44.80
   4   1   2 1516.95   46.30
  -4   1  -2 1480.85   46.10
  -4   1  -2 1466.15   44.70
   5  -1   2   20.70    2.60
  -5   1  -2   18.60    2.40
   5   1   2   23.70    2.80
  -6  -1  -2  207.88    8.70
   6  -1   2  202.88    8.60
  -6   1  -2  206.58    8.40
   6   1   2  203.48    8.70
   7  -1   2   83.99    6.40
   7   1   2   75.29    5.10
   8  -1   2   35.80    4.30
   8   1   2   38.30    4.40
   9  -1   2  219.18   10.50
   9   1   2  212.18   10.40
  10  -1   2    8.90    3.00
  10   1   2   13.60    3.30
  11  -1   2   36.90    5.60
  11   1   2   38.20    5.30
  12  -1   2    1.60    2.60
  12   1   2   -1.50    2.70
  12  -2  -2   54.99    7.10
  12   2  -2   42.50    6.00
  11   2  -2    3.20    3.00
  10  -2  -2  177.48    9.60
  10   2  -2  173.18    9.60
   9  -2  -2   21.60    3.90
   9   2  -2   29.80    4.60
   8  -2  -2  184.08    9.00
   8   2  -2  197.48    9.20
   7  -2  -2   44.00    6.50
   7   2  -2   41.40    4.60
   6  -2  -2  270.37   10.50
  -6  -2   2  249.38   10.20
  -6  -2   2  274.47    8.40
  -6   2   2  267.17   10.20
   6   2  -2  270.77   10.60
  -5  -2   2   23.20    2.30
   5  -2  -2   26.30    2.90
   5  -2  -2   24.10    1.40
   5  -2  -2   24.90    1.40
  -5  -2   2   24.40    1.50
  -5   2   2   24.30    2.20
   5   2  -2   29.90    3.20
   5   2  -2   24.80    1.50
   4  -2  -2  125.09    4.40
  -4  -2   2  121.19    5.30
   4  -2  -2  131.19    5.40
   4  -2  -2  124.29    4.40
  -4  -2   2  130.69    4.50
   4   2  -2  129.99    4.50
  -4   2   2  119.29    5.20
   4   2  -2  133.69    5.60
   3  -2  -2  580.94   18.80
  -3  -2   2  602.74   18.20
  -3  -2   2  574.34   18.70
   3  -2  -2  575.94   18.70
   3  -2  -2  582.24   18.00
   3   2  -2  605.84   18.80
   3   2  -2  587.74   18.10
  -2  -2   2  988.70   29.70
   2  -2  -2  983.40   29.80
  -2  -2   2  985.60   29.50
   2  -2  -2  946.61   29.40
   2   2  -2  976.00   29.50
   2   2  -2  952.40   29.70
  -2   2   2  967.80   29.40
  -1  -2   2 2682.03  103.49
   1  -2  -2 2578.04   85.59
  -1  -2   2 2534.95   85.39
   1  -2  -2 2565.14  100.49
   1  -2  -2 2571.64   85.39
  -1   2   2 2593.64  103.29
   1   2  -2 2616.04   85.79
   1   2  -2 2645.44  102.89
   0  -2  -2  159.28    5.40
   0  -2  -2  158.68    5.40
   0  -2   2  160.68    5.50
   0  -2   2  167.38    5.00
   0   2  -2  162.18    5.50
   0   2  -2  166.68    4.90
   0   2   2  161.68    5.40
   0   2   2  156.68    5.40
  -1  -2  -2  765.92   24.30
   1  -2   2  809.92   24.40
   1  -2   2  815.72   24.10
  -1   2  -2  808.92   24.10
   1   2   2  790.22   24.50
  -1   2  -2  799.02   24.40
   1   2   2  801.62   24.30
   2  -2   2  836.62   25.10
   2  -2   2  820.72   25.20
  -2  -2  -2  822.22   25.00
  -2  -2  -2  818.92   25.50
   2   2   2  812.32   25.00
   2   2   2  819.82   25.50
  -2   2  -2  820.12   25.00
  -3  -2  -2  477.25   14.80
  -3  -2  -2  467.05   15.60
  -3  -2  -2  490.25   14.80
   3  -2   2  466.25   15.40
   3  -2   2  480.65   14.80
  -3   2  -2  471.85   15.30
   3   2   2  487.75   15.70
  -3   2  -2  471.65   14.70
  -4  -2  -2  220.38    7.40
   4  -2   2  232.68    8.50
  -4  -2  -2  233.28    7.40
  -4  -2  -2  226.68    8.60
   4  -2   2  230.88    7.40
   4   2   2  215.08    8.50
  -4   2  -2  232.18    7.30
  -4   2  -2  222.78    8.20
   5  -2   2   43.40    3.20
  -5  -2  -2   43.90    3.10
  -5  -2  -2   42.50    1.90
   5  -2   2   45.00    1.90
  -5  -2  -2   45.30    2.00
   5   2   2   42.00    3.20
  -5   2  -2   44.10    2.90
  -5   2  -2   45.00    1.80
   6  -2   2   96.39    5.30
  -6   2  -2   89.69    4.80
   6   2   2  105.59    5.50
   7   2   2   71.39    5.00
   8  -2   2   33.20    4.30
   8   2   2   28.60    3.90
   9  -2   2   19.90    3.80
   9   2   2   14.50    3.20
  10  -2   2   13.90    3.60
  10   2   2   11.40    3.50
  11  -2   2   28.20    4.80
  11   2   2   33.40    5.30
  12  -2   2    3.00    2.90
  12   2   2    2.90    2.90
  12  -3  -2    3.90    3.20
  12   3  -2    4.20    3.00
  11  -3  -2   39.10    7.10
  11   3  -2   48.00    6.00
  10  -3  -2   90.69    6.70
  10   3  -2   76.89    6.50
   9  -3  -2  308.97   13.20
   9   3  -2  305.67   13.30
   8  -3  -2   34.50    4.20
   8   3  -2   28.00    4.10
   7  -3  -2  143.79    7.30
  -7  -3   2  155.48    5.10
  -7  -3   2  154.78    5.20
   7   3  -2  137.19    7.30
   6  -3  -2    7.60    2.10
  -6  -3   2   13.00    2.30
   6  -3  -2    7.50    1.10
   6  -3  -2    7.80    1.10
  -6   3   2   10.10    2.10
   6   3  -2   10.10    2.20
   6   3  -2   14.70    1.30
   5  -3  -2  155.38    5.40
  -5  -3   2  153.48    5.60
   5  -3  -2  154.98    6.70
   5   3  -2  158.88    5.80
   5   3  -2  156.08    6.80
   4  -3  -2  383.76   12.10
   4  -3  -2  382.86   13.10
  -4  -3   2  379.36   13.10
   4  -3  -2  374.76   13.00
  -4  -3   2  387.16   12.30
   4  -3  -2  380.06   12.40
   4   3  -2  381.26   13.20
   3  -3  -2  159.48    6.10
  -3  -3   2  160.18    6.10
   3  -3  -2  160.38    6.10
  -3  -3   2  155.28    5.70
   3  -3  -2  160.48    5.60
   3  -3  -2  165.18    5.60
   3   3  -2  154.28    6.10
   2  -3  -2 1353.46   40.40
  -2  -3   2 1327.37   40.60
   2  -3  -2 1302.57   40.60
   2  -3  -2 1356.46   40.50
  -2  -3   2 1307.27   40.50
   2   3  -2 1373.26   40.80
  -2   3   2 1326.57   40.70
  -1  -3   2 2275.27   67.79
  -1  -3   2 2242.08   68.09
   1  -3  -2 2300.37   68.09
   1   3  -2 2251.67   68.39
   0  -3   2  595.74   17.50
   0  -3  -2  569.34   17.90
   0  -3   2  563.24   18.00
   0  -3  -2  579.54   18.00
   0   3  -2  577.84   17.50
   0   3  -2  583.94   18.10
   0   3   2  579.24   17.90
  -1  -3  -2  169.68    5.80
   1  -3   2  171.38    5.40
  -1  -3  -2  159.68    5.80
   1  -3   2  160.98    5.80
  -1  -3  -2  164.78    5.90
  -1   3  -2  163.18    5.80
   1   3   2  162.48    5.80
  -2  -3  -2  439.36   14.70
  -2  -3  -2  449.95   14.60
   2  -3   2  465.65   14.60
   2  -3   2  438.06   14.20
   2  -3   2  456.65   14.30
  -2  -3  -2  461.75   14.30
  -2   3  -2  454.95   14.30
   2   3   2  451.35   14.70
   3  -3   2  248.08    8.20
   3  -3   2  249.38    8.60
  -3  -3  -2  244.38    8.90
  -3  -3  -2  251.57    8.20
   3   3   2  235.18    8.80
  -3   3  -2  241.98    8.40
  -3   3  -2  249.88    8.20
  -4  -3  -2   85.89    3.60
   4  -3   2   83.59    4.20
  -4  -3  -2   89.29    4.40
  -4  -3  -2   94.69    3.60
  -4   3  -2   91.79    3.50
   4   3   2   88.89    4.50
  -4   3  -2   85.99    4.00
   5  -3   2  391.76   12.40
   5  -3   2  386.06   13.70
  -5  -3  -2  382.06   13.90
  -5  -3  -2  394.36   12.50
  -5  -3  -2  393.46   12.40
  -5   3  -2  380.86   13.40
  -5   3  -2  394.56   12.30
   5   3   2  381.26   13.90
   6  -3   2  104.89    5.40
  -6  -3  -2   97.09    3.90
   6  -3   2   92.19    3.50
  -6  -3  -2  100.59    3.70
  -6   3  -2   90.29    4.90
   6   3   2  102.79    5.50
   7   3   2  239.78   10.30
   8  -3   2    2.00    2.00
   8   3   2    0.10    1.80
   9  -3   2  152.18    8.60
   9   3   2  183.28    9.30
  10  -3   2   18.00    3.70
  10   3   2   15.40    3.70
  11  -3   2   74.49    6.50
  11   3   2   73.79    6.60
  12  -3   2    1.00    2.70
  12   3   2    2.60    2.80
  12  -4  -2   11.10    4.10
  12   4  -2   11.70    4.00
  11  -4  -2    6.50    3.30
  11   4  -2    8.60    3.20
  10  -4  -2    3.90    2.80
  10   4  -2    5.80    3.00
   9  -4  -2   37.20    5.00
   9   4  -2   34.10    4.80
  -8  -4   2   -2.50    0.80
  -8  -4   2   -0.40    0.90
   8  -4  -2    1.40    2.00
   8   4  -2   -0.10    1.80
  -7  -4   2    4.30    1.00
   7  -4  -2    1.10    1.70
   7  -4  -2    0.30    0.80
   7   4  -2    2.00    1.80
   6  -4  -2   83.79    5.00
   6  -4  -2   93.59    3.70
   6  -4  -2   94.79    3.70
  -6  -4   2   86.09    3.90
   6   4  -2   95.79    5.30
   6   4  -2   89.69    3.90
   5  -4  -2   11.40    1.50
   5  -4  -2   13.10    1.50
   5  -4  -2   12.30    2.20
   5  -4  -2    9.40    1.80
  -5  -4   2   15.20    1.60
  -5  -4   2   14.60    2.20
   5   4  -2   16.50    1.70
   5   4  -2   12.20    2.20
  -4  -4   2  254.17    9.60
   4  -4  -2  265.27    8.90
   4  -4  -2  259.87    9.60
   4  -4  -2  275.57    9.00
   4  -4  -2  274.47    9.70
  -4  -4   2  255.37    9.00
   4   4  -2  262.87    9.70
   4   4  -2  268.47    9.00
   3  -4  -2  149.69    5.40
   3  -4  -2  143.29    5.70
  -3  -4   2  143.59    5.80
  -3  -4   2  138.99    5.50
   3  -4  -2  144.29    5.40
  -3   4   2  141.99    5.80
   3   4  -2  144.29    5.80
   3   4  -2  153.18    5.50
   2  -4  -2   88.79    3.70
   2  -4  -2   86.79    3.60
  -2  -4   2   81.19    3.70
   2  -4  -2   80.09    3.50
  -2  -4   2   83.19    3.60
  -2   4   2   82.09    3.70
   2   4  -2   84.29    3.70
   2   4  -2   84.29    3.60
  -1  -4   2 1865.21   55.69
   1  -4  -2 1796.82   55.89
   1  -4  -2 1903.61   55.99
  -1  -4   2 1815.02   55.99
   1  -4  -2 1897.41   55.89
   1   4  -2 1857.41   55.99
  -1   4   2 1835.92   55.89
   1   4  -2 1843.52   55.59
   0  -4   2  140.09    4.60
   0  -4  -2  131.39    5.10
   0  -4  -2  134.59    5.00
   0  -4  -2  134.59    5.10
   0  -4   2  130.89    5.10
   0   4  -2  133.19    5.10
   0   4   2  138.09    5.00
   0   4  -2  136.19    4.50
   1  -4   2  167.38    5.60
  -1  -4  -2  174.18    6.10
   1  -4   2  167.38    6.10
  -1  -4  -2  163.78    6.00
  -1  -4  -2  168.98    6.10
  -1   4  -2  166.68    5.60
  -1   4  -2  170.58    6.10
   1   4   2  163.28    6.10
  -2  -4  -2   82.09    3.70
   2  -4   2   75.89    3.40
   2  -4   2   78.99    3.20
  -2  -4  -2   79.49    3.40
  -2  -4  -2   78.19    3.40
   2   4   2   76.19    3.60
  -2   4  -2   79.79    3.40
  -3  -4  -2    2.30    0.90
  -3  -4  -2    2.10    0.90
   3  -4   2    1.80    0.90
   3  -4   2    2.00    0.90
   3  -4   2    2.40    0.90
  -3  -4  -2    2.80    1.10
   3   4   2    2.40    1.10
  -3   4  -2    2.50    0.90
  -4  -4  -2   79.79    3.40
   4  -4   2   73.69    3.30
   4  -4   2   77.99    3.90
  -4  -4  -2   77.59    4.20
  -4  -4  -2   76.39    3.40
   4   4   2   73.39    4.10
  -4   4  -2   71.09    3.60
  -4   4  -2   76.59    3.30
  -5  -4  -2   19.10    1.60
  -5  -4  -2   24.10    3.00
  -5  -4  -2   22.10    1.80
   5  -4   2   22.20    2.90
   5  -4   2   19.40    1.60
  -5   4  -2   17.00    1.50
  -5   4  -2   23.20    2.50
   5   4   2   21.10    2.70
  -6  -4  -2    9.00    1.30
   6  -4   2    8.70    2.20
   6  -4   2    9.60    1.20
  -6  -4  -2    6.90    1.10
  -6   4  -2   10.60    1.90
   6   4   2    5.80    1.90
  -7  -4  -2    3.10    1.00
   7  -4   2    5.90    1.00
   7  -4   2    7.30    2.60
   7  -4   2    4.80    1.00
   7   4   2    7.20    2.30
   8  -4   2   37.90    4.50
   8   4   2   44.00    5.10
   9  -4   2   15.70    3.60
   9   4   2    7.60    2.90
  10  -4   2    9.00    3.20
  10   4   2    7.10    2.90
  11  -4   2    6.50    3.30
  11   4   2    9.80    3.50
  12  -4   2    4.80    3.00
  12   4   2    1.30    3.00
  12  -5  -2   -0.20    2.70
  12   5  -2    1.60    3.00
  11  -5  -2    1.60    2.70
  11   5  -2   -0.60    2.40
  10  -5  -2   48.20    5.70
  10   5  -2   57.09    6.20
  -9  -5   2   72.49    3.10
   9  -5  -2   69.79    5.70
  -9  -5   2   74.69    2.90
   9   5  -2   73.69    6.00
  -8  -5   2   14.20    1.80
   8  -5  -2   14.50    1.70
  -8  -5   2   14.00    1.70
   8  -5  -2   26.30    3.80
   8   5  -2   18.20    3.30
   7  -5  -2    5.00    1.10
  -7  -5   2    4.30    1.30
   7  -5  -2    0.30    1.80
   7  -5  -2    6.30    1.30
   7   5  -2    6.10    2.30
   6  -5  -2    2.60    1.10
   6  -5  -2    6.10    2.10
  -6  -5   2    2.70    1.10
   6  -5  -2    1.60    1.00
   6   5  -2    2.10    1.80
   6   5  -2    3.30    1.20
   5  -5  -2   34.80    3.10
   5  -5  -2   31.90    2.30
   5  -5  -2   33.40    2.30
  -5  -5   2   40.70    2.60
  -5  -5   2   37.20    3.00
   5  -5  -2   33.30    2.70
   5   5  -2   37.20    2.50
   5   5  -2   34.80    3.00
   4  -5  -2  125.59    5.60
  -4  -5   2  142.29    5.90
   4  -5  -2  125.69    5.80
  -4  -5   2  134.69    5.40
   4  -5  -2  132.89    5.30
   4  -5  -2  136.39    5.30
   4   5  -2  133.19    5.40
   4   5  -2  138.19    5.90
  -3  -5   2    8.10    1.40
   3  -5  -2   11.00    1.50
   3  -5  -2   10.20    1.50
   3  -5  -2   10.10    1.50
  -3  -5   2    8.50    1.40
   3   5  -2    8.20    1.40
   3   5  -2    8.60    1.50
  -3   5   2   12.20    1.90
   2  -5  -2 1025.70   31.30
  -2  -5   2 1015.00   31.20
   2  -5  -2 1029.00   31.30
   2  -5  -2  991.80   31.20
  -2  -5   2 1010.70   31.40
   2   5  -2  992.40   31.30
   2   5  -2 1004.70   31.10
  -2   5   2 1001.20   31.30
  -1  -5   2   90.49    3.60
   1  -5  -2   89.59    3.70
  -1  -5   2   88.79    4.00
   1  -5  -2   87.39    3.90
   1  -5  -2   88.29    4.00
   1   5  -2   86.49    4.00
  -1   5   2   92.39    3.80
   0  -5  -2  113.39    4.70
   0  -5   2  119.69    4.40
   0  -5  -2  106.49    4.50
   0  -5   2  120.29    4.80
   0  -5  -2  116.39    4.70
   0   5  -2  114.09    4.70
   0   5  -2  112.69    4.10
   0   5   2  105.39    4.40
  -1  -5  -2   10.20    1.50
  -1  -5  -2   11.60    1.50
   1  -5   2    8.60    1.30
  -1  -5  -2   10.10    1.50
   1   5   2    9.60    1.40
  -1   5  -2    9.40    1.10
  -1   5  -2    9.10    1.40
   2  -5   2   20.20    1.80
  -2  -5  -2   24.20    2.00
  -2  -5  -2   21.90    1.80
  -2  -5  -2   18.60    1.80
   2  -5   2   21.60    1.50
  -2   5  -2   18.90    1.90
   2   5   2   20.10    1.90
  -3  -5  -2   51.49    2.80
   3  -5   2   48.20    2.70
  -3  -5  -2   49.30    3.10
   3  -5   2   48.60    2.70
  -3  -5  -2   45.60    2.80
   3  -5   2   44.60    2.60
   3   5   2   50.69    3.10
  -3   5  -2   51.59    2.70
   4  -5   2    5.90    1.30
  -4  -5  -2    3.10    1.10
   4  -5   2    4.00    1.20
  -4  -5  -2    5.40    1.40
   4  -5   2    5.70    1.40
  -4  -5  -2    6.30    1.30
  -4   5  -2    4.20    1.20
   4   5   2    5.60    1.70
  -5  -5  -2  132.99    5.30
  -5  -5  -2  127.99    6.30
   5  -5   2  128.89    5.20
  -5  -5  -2  128.59    5.20
   5  -5   2  126.49    5.90
   5   5   2  129.39    6.30
  -5   5  -2  134.39    5.10
  -6  -5  -2   43.60    2.90
   6  -5   2   47.30    3.70
  -6  -5  -2   41.80    2.60
   6  -5   2   45.70    2.60
   6  -5   2   40.40    3.20
  -6   5  -2   49.10    2.60
   6   5   2   49.00    4.30
  -7  -5  -2    6.70    1.30
  -7  -5  -2    9.00    1.60
   7  -5   2    6.00    1.20
   7  -5   2    6.00    1.20
   7  -5   2    6.50    2.20
   7   5   2    4.60    2.40
   8  -5   2    3.10    1.10
  -8  -5  -2    5.50    1.40
   8  -5   2    7.80    2.70
   8  -5   2    4.70    0.90
  -8  -5  -2    3.50    1.10
   8   5   2   10.00    2.90
   9  -5   2    4.30    2.50
   9   5   2   -0.30    2.20
  10  -5   2    2.30    2.70
  10   5   2   -2.00    2.10
  11  -5   2    5.40    3.00
  11   5   2    6.30    3.20
  12  -5   2    1.10    2.70
  12   5   2    1.10    3.10
  12  -6  -2    1.90    2.60
  12   6  -2    3.30    3.30
  11  -6  -2    7.00    3.30
  11   6  -2    9.20    3.20
  10  -6  -2   16.70    3.80
  10   6  -2   12.60    3.40
  -9  -6   2    3.90    1.30
  -9  -6   2    3.70    1.30
   9  -6  -2    6.80    2.90
   9   6  -2    7.20    3.10
   8  -6  -2    5.20    1.30
   8  -6  -2    4.70    2.40
  -8  -6   2    7.70    1.80
  -8  -6   2    5.80    1.50
   8  -6  -2    4.40    1.30
   8   6  -2    6.80    2.50
   7  -6  -2   12.00    1.90
   7  -6  -2   16.20    2.00
  -7  -6   2   17.80    2.20
   7  -6  -2   18.90    3.40
   7   6  -2   17.20    3.30
   6  -6  -2   23.90    2.20
  -6  -6   2   25.90    2.60
   6  -6  -2   28.90    2.30
   6  -6  -2   34.00    3.90
   6   6  -2   20.00    2.40
   6   6  -2   22.10    3.20
  -5  -6   2    6.40    1.50
   5  -6  -2    5.30    1.70
   5  -6  -2    2.10    1.50
   5  -6  -2    4.80    1.40
  -5  -6   2    4.70    1.60
   5  -6  -2    5.40    1.40
   5   6  -2    9.30    2.10
   5   6  -2    7.20    1.70
  -4  -6   2   67.69    3.90
   4  -6  -2   65.29    3.50
   4  -6  -2   73.79    3.90
   4  -6  -2   69.89    4.10
  -4  -6   2   67.69    3.60
   4  -6  -2   68.29    3.50
   4   6  -2   63.29    3.60
   4   6  -2   69.19    3.90
   3  -6  -2    1.40    1.10
   3  -6  -2    2.60    1.00
   3  -6  -2    2.60    1.20
  -3  -6   2    3.20    1.20
  -3  -6   2    4.30    1.30
  -3   6   2    2.60    1.20
   3   6  -2    2.90    1.20
   3   6  -2    3.10    1.30
   2  -6  -2  101.49    4.30
   2  -6  -2  100.49    4.50
  -2  -6   2  102.19    4.60
  -2  -6   2  100.89    4.30
   2  -6  -2  102.69    4.50
   2   6  -2  105.59    4.70
  -2   6   2  100.39    4.50
   2   6  -2   98.19    4.30
   1  -6  -2   72.09    3.60
  -1  -6   2   71.09    3.70
   1  -6  -2   66.49    3.30
  -1  -6   2   72.19    3.20
  -1   6   2   67.99    3.40
   1   6  -2   71.69    3.20
   1   6  -2   73.39    3.70
   0  -6   2   55.79    3.20
   0  -6   2   60.69    2.60
   0  -6  -2   55.49    3.20
   0  -6  -2   57.09    3.00
   0   6  -2   56.49    3.20
   0   6   2   55.49    2.90
   0   6  -2   61.79    2.70
   0   6   2   58.49    3.30
   1  -6   2   76.99    3.80
  -1  -6  -2   81.09    3.90
  -1  -6  -2   79.69    3.80
   1  -6   2   79.39    3.20
  -1   6  -2   76.89    3.30
  -1   6  -2   81.29    3.90
   1   6   2   69.99    3.60
  -2  -6  -2    4.20    1.30
  -2  -6  -2    1.10    0.90
  -2  -6  -2    1.30    1.00
   2  -6   2    2.90    0.90
   2  -6   2    0.50    0.90
  -2   6  -2    1.60    1.10
  -2   6  -2    2.40    1.00
   2   6   2    1.30    1.00
  -3  -6  -2    5.70    1.50
   3  -6   2    4.40    1.10
   3  -6   2    4.80    1.20
   3  -6   2    5.00    1.20
  -3  -6  -2    5.70    1.30
  -3  -6  -2    7.10    1.60
  -3   6  -2    3.90    1.20
   3   6   2    3.80    1.20
   4  -6   2    4.30    1.30
  -4  -6  -2    3.40    1.40
   4  -6   2    3.10    1.20
   4  -6   2    4.70    1.40
  -4  -6  -2    2.40    1.10
  -4  -6  -2    4.20    1.50
  -4   6  -2    3.60    1.30
   4   6   2    3.80    1.40
   5  -6   2   92.99    4.80
  -5  -6  -2   99.59    4.50
   5  -6   2   97.69    5.00
   5  -6   2   95.39    4.50
  -5  -6  -2  106.79    4.70
  -5   6  -2   98.49    4.40
   5   6   2   94.49    5.30
   6  -6   2   28.50    2.30
  -6  -6  -2   27.70    2.70
  -6  -6  -2   24.90    2.30
   6  -6   2   26.30    3.30
  -6   6  -2   31.30    2.30
   6   6   2   29.00    3.70
   7  -6   2    7.90    1.60
   7  -6   2    8.30    2.50
  -7  -6  -2    6.50    1.80
  -7  -6  -2    7.10    1.60
   7  -6   2   11.00    1.70
   7   6   2   11.60    2.60
  -8  -6  -2   35.00    2.70
   8  -6   2   34.60    4.40
   8  -6   2   36.30    2.20
  -8  -6  -2   25.50    2.40
   8  -6   2   30.90    2.10
   8   6   2   34.30    4.60
  -9  -6  -2    7.80    1.80
   9  -6   2   13.80    3.50
  -9  -6  -2    5.00    1.30
   9   6   2   10.50    3.10
  10  -6   2    9.10    3.30
  10   6   2    8.40    4.20
  11  -6   2   -2.00    2.10
  11   6   2    3.40    2.60
  11  -7  -2   44.00    6.00
  11   7  -2   47.70    6.10
  10  -7  -2   26.50    4.70
 -10  -7   2   22.60    2.20
 -10  -7   2   17.20    2.00
  10   7  -2   21.60    4.60
   9  -7  -2    8.30    3.20
  -9  -7   2    5.80    1.70
   9  -7  -2    4.90    1.30
   9  -7  -2    6.40    1.40
  -9  -7   2    7.20    1.70
   9   7  -2    7.40    2.90
   8  -7  -2   16.60    3.40
   8  -7  -2   16.60    2.10
  -8  -7   2   14.30    2.30
  -8  -7   2   16.70    2.30
   8  -7  -2   13.20    2.00
   8   7  -2   16.10    3.30
   7  -7  -2    3.80    1.50
   7  -7  -2    4.50    2.20
   7  -7  -2    4.00    1.50
  -7  -7   2    2.40    1.40
   7   7  -2    6.80    1.90
   7   7  -2    0.70    1.80
  -6  -7   2    9.60    1.90
   6  -7  -2   12.20    2.00
   6  -7  -2   10.60    1.90
   6   7  -2   12.90    2.90
   6   7  -2   11.00    2.00
  -5  -7   2   44.70    3.50
   5  -7  -2   49.60    3.70
   5  -7  -2   51.69    3.40
   5  -7  -2   41.50    2.90
  -5  -7   2   50.39    3.30
   5  -7  -2   46.50    3.10
   5   7  -2   48.30    3.60
   5   7  -2   44.50    3.30
  -4  -7   2   10.60    2.00
   4  -7  -2    8.80    1.80
   4  -7  -2    9.40    1.70
  -4  -7   2    9.40    1.80
   4  -7  -2   10.00    1.80
   4   7  -2    8.90    1.80
  -4   7   2   13.10    2.20
   4   7  -2    8.60    1.90
  -3  -7   2   37.30    2.70
   3  -7  -2   36.60    2.70
  -3  -7   2   35.10    2.70
   3  -7  -2   33.90    2.40
   3  -7  -2   29.60    2.40
   3   7  -2   33.60    2.60
   3   7  -2   33.80    2.80
  -3   7   2   36.80    2.80
  -2  -7   2   50.79    3.20
  -2  -7   2   53.09    2.90
   2  -7  -2   45.70    3.10
   2  -7  -2   49.10    2.80
   2  -7  -2   48.20    3.00
   2   7  -2   49.30    3.20
   2   7  -2   49.00    2.80
  -2   7   2   45.70    3.00
  -1  -7   2  437.06   14.70
   1  -7  -2  444.96   15.30
   1  -7  -2  443.86   14.90
  -1  -7   2  460.35   15.40
  -1   7   2  462.95   15.00
  -1   7   2  454.15   15.30
   1   7  -2  460.95   14.60
   1   7  -2  446.96   15.30
   0  -7   2  328.27   11.70
   0  -7  -2  337.97   11.40
   0  -7  -2  327.67   11.60
   0  -7   2  327.87   10.90
   0   7  -2  322.27   11.60
   0   7  -2  323.67   10.80
   0   7   2  337.07   11.70
   0   7   2  330.67   11.30
   1  -7   2    7.80    1.60
  -1  -7  -2    8.10    1.50
  -1  -7  -2    7.00    1.50
   1  -7   2   11.20    1.40
   1   7   2    9.60    1.80
  -1   7  -2   10.20    1.80
   1   7   2    7.00    1.40
  -1   7  -2   10.90    1.50
  -2  -7  -2  439.46   15.10
  -2  -7  -2  461.25   15.20
   2  -7   2  447.66   14.40
   2  -7   2  432.86   15.10
  -2  -7  -2  440.06   15.20
  -2   7  -2  458.85   14.60
   2   7   2  435.06   15.10
  -2   7  -2  442.56   15.00
  -3  -7  -2   32.90    2.70
  -3  -7  -2   31.00    2.50
   3  -7   2   29.10    2.30
   3  -7   2   29.00    2.40
   3  -7   2   31.40    2.20
  -3  -7  -2   32.20    2.70
   3   7   2   31.40    2.70
  -3   7  -2   31.60    2.60
   4  -7   2  519.35   17.70
  -4  -7  -2  543.15   17.80
   4  -7   2  536.75   17.60
  -4  -7  -2  509.05   18.30
   4  -7   2  522.65   17.70
  -4  -7  -2  550.24   17.90
   4   7   2  533.45   18.40
  -4   7  -2  548.35   17.70
   5  -7   2   15.90    2.20
  -5  -7  -2   11.50    1.90
   5  -7   2   15.30    2.20
   5  -7   2   20.80    2.80
  -5  -7  -2   13.20    2.10
  -5   7  -2   14.10    2.00
   5   7   2   13.60    2.70
  -6  -7  -2  104.79    5.00
   6  -7   2  107.69    5.00
   6  -7   2  107.09    5.80
  -6  -7  -2  105.49    5.20
   6   7   2  110.09    6.20
  -6   7  -2  107.89    4.90
  -7  -7  -2  148.39    6.30
   7  -7   2  141.69    6.20
   7  -7   2  160.58    7.60
  -7  -7  -2  154.98    6.50
   7  -7   2  148.99    6.20
   7   7   2  145.49    7.90
   8  -7   2    4.60    1.40
   8  -7   2    4.10    1.30
   8  -7   2    6.00    2.50
  -8  -7  -2    3.60    1.40
  -8  -7  -2    4.30    1.70
   8   7   2    2.40    2.40
  -9  -7  -2  202.88    7.90
   9  -7   2  194.88    7.50
  -9  -7  -2  229.38    8.10
   9  -7   2  226.88   10.60
   9  -7   2  219.58    7.50
   9   7   2  205.98   10.70
  10  -7   2    8.70    3.20
  10   7   2    8.20    3.20
  11  -7   2   49.50    6.50
  11   7   2   40.90    5.90
  11  -8  -2    6.00    3.00
  11   8  -2    6.20    3.10
  10  -8  -2   10.20    1.60
 -10  -8   2   12.20    2.10
 -10  -8   2   14.70    2.10
  10  -8  -2   13.00    1.70
  10  -8  -2   17.20    3.90
  10   8  -2   15.50    4.10
  -9  -8   2    5.10    1.90
  -9  -8   2    4.20    2.80
   9  -8  -2    2.10    1.40
   9  -8  -2    1.80    1.30
   9  -8  -2    1.30    2.30
   9   8  -2    2.30    2.40
   8  -8  -2    1.70    2.10
   8  -8  -2    1.20    1.40
  -8  -8   2   -0.50    1.80
   8  -8  -2    1.00    1.40
  -8  -8   2    2.00    1.50
   8   8  -2   -1.00    2.10
   7  -8  -2   21.40    3.60
   7  -8  -2   29.20    2.70
  -7  -8   2   20.90    2.80
   7   8  -2   27.60    3.90
   7   8  -2   26.50    3.10
   6  -8  -2    4.70    2.10
   6  -8  -2    4.60    1.70
  -6  -8   2    3.40    1.50
   6  -8  -2    6.40    1.80
   6   8  -2    3.60    1.80
   6   8  -2    5.40    2.10
   5  -8  -2    2.40    1.70
  -5  -8   2    4.20    1.50
   5  -8  -2   -0.40    1.10
   5  -8  -2    0.70    1.50
   5   8  -2    4.10    1.70
   5   8  -2    4.20    1.60
   4  -8  -2   23.40    2.70
   4  -8  -2   20.20    2.60
  -4  -8   2   23.90    2.80
   4  -8  -2   26.00    2.40
  -4  -8   2   24.40    2.80
   4   8  -2   21.70    2.80
   4   8  -2   23.30    2.80
  -4   8   2   27.70    3.20
   3  -8  -2   21.60    2.50
   3  -8  -2   24.20    2.80
  -3  -8   2   19.90    2.40
   3  -8  -2   17.90    2.50
  -3  -8   2   24.30    2.80
  -3   8   2   24.60    2.70
   3   8  -2   18.30    2.60
   3   8  -2   22.00    2.50
   2  -8  -2  191.28    7.80
  -2  -8   2  197.08    7.40
   2  -8  -2  194.18    7.80
  -2  -8   2  188.28    7.80
   2  -8  -2  184.68    7.30
  -2   8   2  190.98    7.50
   2   8  -2  194.08    7.30
   2   8  -2  191.88    7.90
   1  -8  -2  307.37   10.80
  -1  -8   2  305.97   10.60
   1  -8  -2  308.07   11.30
  -1  -8   2  294.47   11.20
  -1   8   2  316.57   10.90
   1   8  -2  304.77   10.50
  -1   8   2  308.57   11.20
   1   8  -2  293.47   11.10
   0  -8   2  103.19    5.30
   0  -8  -2  115.59    5.40
   0  -8   2  118.99    4.70
   0  -8  -2  113.69    5.00
   0   8   2  111.09    5.30
   0   8  -2  108.59    4.60
   0   8  -2  106.89    5.30
   0   8   2  114.49    5.00
  -1  -8  -2   33.90    2.60
   1  -8   2   31.50    2.70
  -1  -8  -2   33.20    2.70
   1  -8   2   36.00    2.20
   1   8   2   35.90    3.00
  -1   8  -2   37.60    2.40
  -1   8  -2   34.20    2.90
   1   8   2   32.30    2.60
   2  -8   2  126.69    5.90
   2  -8   2  127.29    5.10
  -2  -8  -2  131.39    6.30
  -2  -8  -2  119.89    5.70
  -2   8  -2  124.79    5.80
   2   8   2  124.59    5.70
  -2   8  -2  133.09    5.30
  -3  -8  -2   97.69    5.00
  -3  -8  -2   98.79    5.00
   3  -8   2  101.89    4.40
   3  -8   2   93.29    4.80
   3  -8   2   95.29    4.50
  -3  -8  -2   98.69    4.90
  -3   8  -2   92.99    4.80
   3   8   2   94.59    5.00
   4  -8   2   22.50    2.80
  -4  -8  -2   17.10    2.50
   4  -8   2   19.70    2.30
   4  -8   2   19.20    2.50
  -4  -8  -2   17.30    2.30
  -4   8  -2   16.10    2.30
   4   8   2   20.40    2.90
  -5  -8  -2   -1.80    1.60
   5  -8   2    0.70    1.20
   5  -8   2    1.20    1.20
  -5  -8  -2    1.40    1.40
   5  -8   2    3.60    1.70
   5   8   2    2.10    1.70
  -5   8  -2    2.50    1.50
   6  -8   2    7.30    2.10
  -6  -8  -2   10.40    2.00
  -6  -8  -2   12.80    2.30
   6  -8   2   11.10    2.50
   6   8   2    9.90    2.60
  -6   8  -2   14.90    2.20
   7  -8   2    2.50    1.60
   7  -8   2    1.50    1.40
  -7  -8  -2    0.40    1.40
  -7  -8  -2    3.00    1.80
   7  -8   2    1.80    1.90
   7   8   2    1.30    2.30
  -8  -8  -2   11.90    2.30
   8  -8   2   14.40    2.10
   8  -8   2   22.60    2.50
  -8  -8  -2   20.90    2.90
   8  -8   2   18.10    3.40
   8   8   2   16.60    3.40
  -9  -8  -2    9.90    2.00
   9  -8   2   13.00    1.90
  -9  -8  -2   16.40    2.40
   9  -8   2   12.30    1.80
   9  -8   2   15.70    3.50
   9   8   2   16.20    4.00
 -10  -8  -2    7.20    1.70
 -10  -8  -2    6.40    1.80
  10  -8   2   11.50    3.50
  10   8   2    6.10    3.30
  11  -8   2    1.90    2.60
  11   8   2    2.10    2.90
  11  -9  -2   27.30    5.30
 -11  -9   2   16.50    2.20
  11   9  -2   18.30    4.50
 -10  -9   2    2.40    1.90
  10  -9  -2    2.90    1.50
  10   9  -2    1.90    2.90
  -9  -9   2   72.09    4.70
   9  -9  -2   74.29    6.20
   9  -9  -2   61.89    4.20
   9  -9  -2   75.19    4.20
  -9  -9   2   65.19    4.40
   9   9  -2   76.49    6.30
  -8  -9   2    3.80    2.40
   8  -9  -2    9.00    2.10
   8  -9  -2    9.00    3.00
   8  -9  -2    6.20    2.00
  -8  -9   2   10.00    2.60
   8   9  -2   13.90    3.30
   7  -9  -2    3.00    1.70
   7  -9  -2    4.30    1.70
   7  -9  -2    6.10    2.50
   7   9  -2    6.80    2.20
   7   9  -2    5.40    2.30
   6  -9  -2   31.50    3.80
   6  -9  -2   18.70    2.70
   6  -9  -2   23.90    3.00
   6   9  -2   29.50    3.40
   6   9  -2   28.90    3.80
   5  -9  -2  122.09    6.20
   5  -9  -2  129.39    6.40
   5  -9  -2  138.19    7.00
  -5  -9   2  142.29    7.30
   5   9  -2  138.49    6.80
   5   9  -2  143.49    6.60
  -4  -9   2   85.49    4.90
   4  -9  -2   90.09    4.90
  -4  -9   2   87.49    5.00
   4  -9  -2   98.09    5.20
   4  -9  -2   90.69    5.00
  -4   9   2   99.19    5.20
   4   9  -2   97.29    5.20
   4   9  -2   88.79    4.90
   3  -9  -2   -0.80    1.00
   3  -9  -2   -0.60    0.80
  -3  -9   2    2.50    1.20
   3  -9  -2    0.10    1.40
  -3  -9   2    0.40    1.20
  -3   9   2    0.10    1.30
   3   9  -2   -0.50    1.10
   3   9  -2    0.20    1.50
  -2  -9   2  186.08    7.90
   2  -9  -2  178.88    7.80
   2  -9  -2  183.48    7.40
  -2  -9   2  190.78    7.40
   2  -9  -2  173.88    7.70
   2   9  -2  186.38    7.90
  -2   9   2  183.98    7.50
   2   9  -2  189.08    7.30
  -1  -9   2    2.00    1.40
   1  -9  -2    0.60    1.20
  -1  -9   2    0.30    0.90
   1   9  -2    0.40    1.10
  -1   9   2    0.20    1.40
  -1   9   2    0.40    1.20
   1   9  -2   -1.50    1.30
   0  -9   2 1133.59   34.60
   0  -9  -2 1088.79   35.50
   0  -9   2 1098.99   35.60
   0   9  -2 1156.68   34.60
   0   9  -2 1117.09   35.50
   0   9   2 1121.19   35.50
   0   9   2 1084.89   35.00
  -1  -9  -2   51.39    3.40
   1  -9   2   57.59    3.00
   1  -9   2   54.89    3.70
  -1  -9  -2   52.49    3.60
   1   9   2   56.09    3.50
  -1   9  -2   51.29    3.10
  -1   9  -2   51.49    3.70
   1   9   2   57.19    3.80
  -2  -9  -2  832.62   27.80
   2  -9   2  862.41   27.00
  -2  -9  -2  829.42   27.90
   2  -9   2  827.82   27.90
  -2  -9  -2  882.01   28.10
   2   9   2  877.61   27.70
  -2   9  -2  855.91   27.80
  -2   9  -2  880.61   27.20
   3  -9   2   22.10    2.80
  -3  -9  -2   24.90    3.10
  -3  -9  -2   26.70    3.00
   3  -9   2   29.00    2.30
   3   9   2   24.20    2.90
  -3   9  -2   24.50    2.90
  -3   9  -2   30.80    3.10
  -4  -9  -2  267.07   10.70
   4  -9   2  282.97   10.40
   4  -9   2  273.37   10.60
  -4  -9  -2  278.17   10.80
   4  -9   2  274.47   10.10
  -4   9  -2  282.67   10.60
   4   9   2  262.87   12.20
   5  -9   2  406.06   14.60
   5  -9   2  427.36   14.90
  -5  -9  -2  408.66   15.70
   5  -9   2  391.96   14.70
  -5  -9  -2  418.46   15.00
  -5   9  -2  407.26   14.60
   5   9   2  435.16   15.60
   6  -9   2  205.08    8.90
  -6  -9  -2  219.38    9.20
   6   9   2  222.58   10.00
  -6   9  -2  223.48    8.90
   7  -9   2  100.09    5.50
   7  -9   2  108.89    6.50
  -7  -9  -2  125.19    6.00
   7  -9   2  114.69    5.70
   7   9   2  115.19    7.00
   8  -9   2   13.70    2.30
   8  -9   2    5.30    1.70
  -8  -9  -2    3.70    1.90
  -8  -9  -2   11.70    2.60
   8  -9   2   10.10    3.00
   8   9   2   11.10    3.30
   9  -9   2   97.09    6.60
  -9  -9  -2   91.29    5.10
   9  -9   2   82.89    4.40
  -9  -9  -2   68.69    4.70
  10  -9   2   20.60    4.20
  10  -9   2   17.10    2.10
 -10  -9  -2   21.10    2.70
  10   9   2   18.90    4.10
  11  -9   2   43.00    5.70
  11   9   2   53.19    6.70
  11 -10  -2    0.20    2.80
 -11 -10   2    0.80    2.00
  11  10  -2    3.00    3.30
 -10 -10   2   58.89    4.50
  10 -10  -2   56.79    6.50
  10 -10  -2   60.39    3.90
  10  10  -2   67.29    6.50
  -9 -10   2   -3.70    1.90
   9 -10  -2   -3.60    2.10
   9 -10  -2   -0.80    1.40
   9  10  -2   -2.80    2.10
   8 -10  -2   65.69    5.70
   8 -10  -2   67.29    4.40
   8  10  -2   67.49    5.80
   7 -10  -2   26.70    3.90
   7 -10  -2   27.80    3.20
   7  10  -2   27.10    4.00
   6 -10  -2  101.89    5.70
   6 -10  -2  101.99    6.20
   6  10  -2  111.79    6.40
   5 -10  -2   37.80    3.70
   5 -10  -2   38.20    3.50
   5  10  -2   34.90    3.90
   5  10  -2   38.10    5.80
   4 -10  -2   14.10    2.50
  -4  10   2   17.40    2.90
   4  10  -2   12.10    2.50
   4  10  -2   13.00    2.30
   3 -10  -2  163.08    7.00
   3 -10  -2  170.58    7.50
  -3 -10   2  162.68    7.20
   3  10  -2  164.18    7.50
  -3  10   2  162.28    7.30
   3  10  -2  166.08    7.10
   2 -10  -2    0.30    1.10
   2 -10  -2   -0.70    1.30
   2  10  -2    0.00    1.10
   2  10  -2   -0.10    1.40
  -2  10   2   -0.70    1.20
   1 -10  -2  327.47   12.00
  -1 -10   2  333.07   11.80
   1  10  -2  341.77   11.70
  -1  10   2  330.07   12.00
   1  10  -2  329.47   12.50
   0 -10   2  124.79    5.30
   0 -10  -2  118.99    5.60
   0  10  -2  126.09    5.30
   0  10   2  115.49    6.10
   0  10  -2  123.49    6.20
   0  10   2  128.39    5.80
   1 -10   2  155.18    6.10
  -1 -10  -2  147.79    7.10
  -1 -10  -2  148.29    6.60
   1  10   2  152.08    6.60
  -1  10  -2  142.89    6.90
  -1  10  -2  140.49    6.10
   2 -10   2  243.58    9.00
   2  10   2  249.78    9.70
  -2  10  -2  251.67    9.20
  -2  10  -2  232.58    9.80
  -3 -10  -2  288.47   11.00
   3 -10   2  269.97   10.50
  -3  10  -2  259.67   10.20
  -3  10  -2  277.07   10.70
   3  10   2  265.67   10.70
   4 -10   2  333.97   12.30
   4 -10   2  345.87   12.10
  -4 -10  -2  342.97   13.10
  -4  10  -2  330.37   12.60
   4  10   2  329.97   13.00
  -5 -10  -2   93.99    6.40
   5 -10   2   90.49    5.20
   5  10   2   88.19    5.60
  -5  10  -2   83.39    5.10
   6 -10   2   94.89    5.70
  -6  10  -2   86.89    5.20
   6  10   2   99.39    6.30
  -7 -10  -2    0.20    3.40
   7 -10   2    2.60    1.70
   7 -10   2    1.60    2.10
   7  10   2    0.10    2.30
   8 -10   2   64.99    5.40
   8 -10   2   58.79    4.20
  -8 -10  -2   71.39    6.00
   8  10   2   66.29    5.90
   9 -10   2   30.00    4.60
  -9 -10  -2   28.10    3.60
   9 -10   2   32.50    3.30
   9  10   2   26.10    4.40
  10 -10   2    6.70    1.70
 -10 -10  -2    8.50    2.40
  10  10   2   11.30    3.80
  10 -11  -2   12.60    2.90
 -10 -11   2    7.70    2.60
  10 -11  -2    7.50    3.40
  10  11  -2    9.30    3.40
   9 -11  -2   17.90    2.80
  -9 -11   2   18.50    3.40
   9 -11  -2   20.90    4.20
   9  11  -2   18.70    6.30
   8 -11  -2    5.50    3.00
   8 -11  -2    2.90    1.90
  -8 -11   2    4.40    2.50
   8  11  -2    3.00    3.00
   7 -11  -2    4.70    2.50
   7 -11  -2    5.70    2.20
   7  11  -2    3.10    2.30
   6 -11  -2   22.70    3.20
   6 -11  -2   16.00    3.10
   6  11  -2   13.50    3.00
   6  11  -2   20.10    3.40
   5 -11  -2   19.30    3.00
   5 -11  -2   19.10    3.10
   5  11  -2   15.70    2.90
   5  11  -2   18.70    3.00
   4 -11  -2   73.09    4.80
   4  11  -2   68.89    4.90
   4  11  -2   61.89    5.00
  -4  11   2   76.99    5.80
  -3 -11   2   22.60    3.20
   3 -11  -2   28.60    3.60
   3  11  -2   28.00    3.00
   3  11  -2   20.70    3.10
  -3  11   2   31.30    3.70
  -2 -11   2   78.79    4.50
   2 -11  -2   87.59    5.30
  -2  11   2   80.09    4.70
   2  11  -2   81.19    4.50
   2  11  -2   72.99    5.00
   1 -11  -2    4.70    1.90
  -1 -11   2    4.20    1.60
   1 -11  -2    3.90    2.00
  -1  11   2    7.50    2.00
   1  11  -2    6.10    2.20
   1  11  -2    4.20    1.50
   0 -11  -2   41.90    3.90
   0 -11  -2   34.80    3.50
   0 -11   2   41.20    2.90
   0  11   2   42.60    3.40
   0  11  -2   45.30    3.90
   0  11  -2   48.30    3.10
  -1 -11  -2   97.49    5.90
   1 -11   2   96.79    4.70
   1  11   2   96.49    5.20
  -1  11  -2   99.29    5.70
  -1  11  -2   96.29    4.80
  -2 -11  -2  129.09    6.80
  -2  11  -2  124.99    6.50
  -2  11  -2  132.19    5.90
   2  11   2  131.99    6.40
   3 -11   2   96.19    4.80
  -3 -11  -2  100.29    6.00
   3  11   2   97.99    5.70
  -3  11  -2  100.69    5.80
  -3  11  -2  108.09    5.40
  -4 -11  -2   69.69    5.10
   4 -11   2   67.99    4.40
   4 -11   2   62.19    3.90
   4  11   2   65.99    4.90
  -4  11  -2   59.59    4.60
   5 -11   2  242.78    9.80
  -5 -11  -2  230.68   10.20
   5  11   2  223.88   10.20
  -5  11  -2  226.88    9.70
  -6 -11  -2   17.60    3.20
   6 -11   2   25.50    3.60
   6  11   2   18.00    3.50
  -6  11  -2   20.70    3.10
  -7 -11  -2   88.19    5.80
   7 -11   2   75.09    5.10
   7 -11   2   84.19    5.80
   7  11   2   89.09    6.30
   8 -11   2    9.60    2.90
  -8 -11  -2    1.10    2.20
   8 -11   2    7.50    2.20
   8  11   2    3.50    2.80
   9 -11   2   48.00    4.20
   9 -11   2   51.79    5.80
  -9 -11  -2   55.59    4.80
   9  11   2   46.70    6.00
 -10 -11  -2    3.00    2.40
  10 -11   2    0.90    2.60
  10 -11   2    2.10    1.60
  10  11   2   -1.00    2.80
 -10 -12   2  134.19    7.40
  10 -12  -2  130.49    8.80
  10 -12  -2  118.99    6.50
  10  12  -2  123.09    8.90
   9 -12  -2    1.90    2.10
  -9 -12   2   -0.40    2.40
   9  12  -2    0.00    2.50
   8 -12  -2  160.68    9.20
   8 -12  -2  164.18    8.10
  -8 -12   2  176.88    9.00
   8  12  -2  173.38    9.40
   7 -12  -2    4.90    2.10
   7 -12  -2    5.70    2.90
  -7 -12   2    6.20    2.90
   7  12  -2    5.80    2.80
   6 -12  -2   50.89    4.40
   6 -12  -2   51.09    4.80
   6  12  -2   47.50    4.60
   6  12  -2   46.50    4.90
   5 -12  -2  103.79    6.40
   5 -12  -2  107.09    6.30
   5  12  -2  102.49    6.40
   5  12  -2  109.09    6.30
   4 -12  -2   23.90    3.60
   4  12  -2   29.50    4.10
  -4  12   2   26.20    3.70
   4  12  -2   23.70    3.30
   3 -12  -2  125.69    6.70
   3  12  -2  112.99    6.50
   3  12  -2  111.69    5.80
  -3  12   2  110.89    6.30
   2 -12  -2   32.40    4.00
  -2 -12   2   36.40    3.20
   2  12  -2   36.90    3.30
   2  12  -2   33.80    4.00
  -2  12   2   38.50    3.70
  -1 -12   2   85.79    4.90
   1 -12  -2  106.29    6.20
   1  12  -2   98.49    5.00
  -1  12   2   98.09    5.40
   1  12  -2  100.59    5.90
   0 -12  -2   72.49    5.30
   0 -12   2   72.69    4.20
   0  12   2   77.29    4.70
   0  12  -2   77.79    5.20
   0  12  -2   81.59    4.40
  -1 -12  -2  175.28    8.40
   1 -12   2  170.88    7.10
  -1  12  -2  159.78    8.00
  -1  12  -2  171.28    7.20
  -2 -12  -2  163.38    8.20
   2 -12   2  164.88    6.80
  -2  12  -2  163.28    7.90
  -2  12  -2  145.99    6.90
   2  12   2  158.38    7.50
   3 -12   2  398.76   14.40
  -3 -12  -2  451.45   16.00
  -3  12  -2  385.66   15.40
  -3  12  -2  403.96   14.80
   3  12   2  433.86   15.50
  -4 -12  -2   67.59    5.40
   4 -12   2   67.29    4.60
   4  12   2   69.59    5.10
  -4  12  -2   66.09    5.00
   5 -12   2  173.78    8.20
  -5 -12  -2  179.28    9.00
  -5  12  -2  167.88    8.30
   5  12   2  185.68    8.90
  -6 -12  -2  140.39    7.70
   6 -12   2  134.19    7.20
   6  12   2  130.49    7.70
  -7 -12  -2   36.20    4.50
   7 -12   2   36.10    4.10
   7 -12   2   39.90    4.80
   7  12   2   30.00    4.40
   8 -12   2  144.69    7.60
   8 -12   2  158.38    8.60
  -8 -12  -2  162.58    8.40
   8  12   2  158.68    9.30
  -9 -12  -2   -1.10    2.40
   9 -12   2    1.80    1.90
   9 -12   2    2.40    2.70
   9  12   2    3.10    3.10
  -9 -13   2    4.70    3.00
   9 -13  -2    3.60    2.50
   9 -13  -2    3.30    2.30
   9  13  -2    4.30    3.20
  -8 -13   2   13.10    3.80
   8 -13  -2    7.80    3.50
   8 -13  -2   16.20    3.00
   8  13  -2   14.70    4.60
   7 -13  -2   -1.50    2.20
  -7 -13   2   -2.30    2.30
   7 -13  -2    0.60    2.10
   7  13  -2    1.00    2.50
   6 -13  -2    2.60    2.20
   6 -13  -2    3.00    2.40
   6  13  -2    3.40    2.40
   6  13  -2    2.80    2.60
   5 -13  -2   -0.90    1.90
   5 -13  -2   -3.80    2.10
   5  13  -2   -0.40    2.30
   5  13  -2    2.90    2.30
   4 -13  -2   47.60    4.60
   4  13  -2   39.40    4.70
   4  13  -2   48.70    4.30
  -4  13   2   43.10    4.60
   3 -13  -2   45.40    5.10
   3  13  -2   61.89    5.10
  -3  13   2   59.59    4.70
   3  13  -2   63.79    4.40
   2 -13  -2   56.59    5.10
   2  13  -2   62.99    4.30
  -2  13   2   67.49    4.80
   2  13  -2   54.79    5.00
   1 -13  -2   50.19    4.90
   1  13  -2   46.80    4.60
  -1  13   2   51.69    4.10
   1  13  -2   53.89    3.90
   0 -13  -2   67.89    5.30
   0 -13   2   53.09    3.90
   0  13   2   67.79    4.60
   0  13  -2   56.69    4.80
   0  13  -2   68.19    4.20
   1 -13   2   46.10    3.40
  -1 -13  -2   47.60    4.70
  -1  13  -2   47.70    4.40
  -1  13  -2   48.60    3.70
   1  13   2   49.20    4.10
  -2 -13  -2   27.70    3.90
   2 -13   2   20.50    2.70
  -2  13  -2   22.40    3.60
   2  13   2   29.00    3.50
  -2  13  -2   26.80    3.30
  -3 -13  -2   64.89    5.40
   3  13   2   62.49    4.80
  -3  13  -2   62.79    4.50
  -3  13  -2   55.39    4.90
  -4 -13  -2   30.80    4.30
   4  13   2   31.90    4.10
  -4  13  -2   29.90    4.10
  -5 -13  -2    8.00    2.80
   5 -13   2    7.70    2.40
   5  13   2    9.50    2.80
  -5  13  -2    4.90    2.30
  -6 -13  -2    6.00    3.00
   6 -13   2    9.20    2.90
   6  13   2    5.40    2.70
   7 -13   2   18.50    3.60
  -7 -13  -2   22.80    4.00
   7 -13   2   19.30    3.30
   7  13   2   15.90    3.90
  -8 -13  -2    3.00    2.90
   8 -13   2    0.20    2.10
   8 -13   2    2.80    2.30
   8  13   2    0.10    3.00
   9 -13   2   16.30    3.00
  -9 -13  -2   15.90    3.60
   9 -13   2   14.70    4.50
   9  13   2   21.00    4.60
  -9 -14   2    4.90    3.30
   9 -14  -2    5.90    2.70
   8 -14  -2    3.80    2.40
  -8 -14   2   -0.10    2.90
   8  14  -2    2.10    3.30
   7 -14  -2   30.10    4.30
   7 -14  -2   25.30    4.40
  -7 -14   2   23.10    4.30
   7  14  -2   26.30    4.40
   6 -14  -2   -1.60    2.10
   6 -14  -2   -0.50    2.20
   6  14  -2    2.10    2.40
   5 -14  -2   58.49    5.30
   5 -14  -2   58.09    5.20
   5  14  -2   59.79    5.50
   5  14  -2   63.59    5.20
   4 -14  -2    4.90    2.70
   4  14  -2    9.10    2.90
  -4  14   2    9.60    2.90
   4  14  -2   12.40    2.90
   3 -14  -2   25.10    4.00
   3  14  -2   21.50    3.80
   3  14  -2   22.80    3.40
  -3  14   2   24.20    3.70
   2 -14  -2    2.20    2.50
   2  14  -2    4.30    2.00
   2  14  -2    1.70    2.40
  -2  14   2    2.80    2.00
   1 -14  -2   76.19    6.10
   1  14  -2   76.99    5.90
  -1  14   2   75.99    5.20
   1  14  -2   76.79    4.90
   0 -14  -2   43.40    5.30
   0  14  -2   38.50    3.70
   0  14  -2   41.00    4.90
   0  14   2   44.70    4.00
  -1 -14  -2   33.20    4.50
  -1  14  -2   34.90    3.70
   1  14   2   37.10    4.00
  -1  14  -2   23.50    3.70
  -2 -14  -2   18.10    3.90
   2  14   2   24.70    3.60
  -2  14  -2   27.50    3.40
  -2  14  -2   22.80    3.60
  -3 -14  -2   66.59    5.90
   3  14   2   63.39    5.10
  -3  14  -2   72.49    8.80
  -3  14  -2   65.49    5.50
  -4 -14  -2   11.20    3.60
   4 -14   2   11.40    2.60
  -4  14  -2    6.70    2.90
   4  14   2   10.20    2.80
  -5 -14  -2   13.20    3.70
   5 -14   2   19.40    3.40
   5  14   2   23.30    4.20
  -5  14  -2   20.50    3.70
  -6 -14  -2   25.70    4.40
   6 -14   2   37.20    4.50
   6 -14   2   25.30    4.00
   6  14   2   29.00    4.60
   7 -14   2   14.40    3.50
   7 -14   2   13.70    3.20
  -7 -14  -2    8.90    3.30
   7  14   2   12.60    3.60
   8 -14   2   22.20    3.70
   8 -14   2   23.70    4.30
  -8 -14  -2   29.80    4.60
   8  14   2   26.20    4.70
   8 -15  -2    0.30    2.20
   8 -15  -2   -0.50    2.60
  -8 -15   2   -4.50    2.70
   8  15  -2   -1.50    2.60
   7 -15  -2   -1.40    2.20
   7 -15  -2   -0.70    2.70
  -7 -15   2    2.60    3.20
  -6 -15   2   15.10    4.10
   6 -15  -2   10.70    3.30
   6 -15  -2   14.80    3.50
   6  15  -2   15.90    3.60
   5 -15  -2    5.20    2.60
   5 -15  -2    8.80    3.30
   5  15  -2   10.20    3.00
   5  15  -2    5.70    3.00
   4 -15  -2   28.80    4.30
  -4  15   2   28.40    4.30
   4  15  -2   28.10    4.50
   4  15  -2   30.70    4.00
   3 -15  -2   -2.50    2.50
   3  15  -2    7.60    3.10
   3  15  -2    4.70    2.30
  -3  15   2    4.00    2.60
   2 -15  -2   73.39    6.20
   2  15  -2   71.19    6.10
   2  15  -2   67.89    4.90
  -2  15   2   73.69    5.50
   1 -15  -2    7.70    3.40
   1  15  -2   13.30    2.60
   1  15  -2   13.70    3.50
  -1  15   2   12.20    3.10
   0 -15  -2   51.99    5.90
   0  15   2   64.89    5.00
   0  15  -2   59.99    4.50
   0  15  -2   58.59    5.50
  -1 -15  -2   24.50    4.50
   1  15   2   27.20    3.80
  -1  15  -2   26.40    3.90
  -1  15  -2   24.90    3.60
  -2 -15  -2   39.10    5.10
   2  15   2   36.70    4.30
  -2  15  -2   35.30    4.00
  -2  15  -2   35.30    4.60
  -3 -15  -2    8.10    3.40
  -3  15  -2   17.80    3.70
  -3  15  -2   18.10    3.30
   3  15   2   23.10    3.80
   4 -15   2    4.10    2.20
  -4 -15  -2   -1.50    3.00
   4  15   2    2.00    2.50
  -4  15  -2   -0.30    2.30
  -5 -15  -2   14.10    4.00
   5 -15   2   16.50    3.40
   5  15   2   15.20    3.50
  -6 -15  -2   18.10    4.30
   6 -15   2   17.90    4.00
   6 -15   2   12.50    3.10
   7 -15   2   -0.10    2.30
  -7 -15  -2    5.20    3.40
   7 -15   2    1.10    2.30
   7  15   2    5.10    3.40
  -7 -16   2    0.80    3.30
   7 -16  -2    2.60    2.80
   7 -16  -2   -2.10    2.50
   7  16  -2   -0.70    2.70
  -6 -16   2    6.90    3.80
   6 -16  -2    4.10    2.80
   6  16  -2    6.00    3.20
   5 -16  -2    1.50    2.40
   5 -16  -2    0.30    2.60
   5  16  -2    0.20    2.40
   4 -16  -2    4.20    3.20
  -4  16   2    5.50    2.90
   4  16  -2    6.90    3.60
   4  16  -2    2.80    2.50
   3 -16  -2    5.50    3.10
   3  16  -2    5.10    3.10
  -3  16   2    7.50    3.00
   3  16  -2   -0.70    2.10
   2 -16  -2    0.80    2.70
   2  16  -2   -1.00    2.00
   2  16  -2   -4.00    2.40
  -2  16   2   -1.20    2.20
   1 -16  -2   13.90    4.20
   1  16  -2   26.20    4.30
   1  16  -2   25.60    3.50
  -1  16   2   24.50    3.90
   0 -16  -2   -1.80    2.90
   0  16  -2    5.60    2.90
   0  16  -2    6.90    2.70
   0  16   2    4.70    2.60
  -1 -16  -2   13.00    3.80
  -1  16  -2   14.40    3.00
   1  16   2   27.80    4.20
  -1  16  -2   27.80    4.70
  -2 -16  -2    5.70    3.40
  -2  16  -2   -2.60    2.30
  -2  16  -2   -0.60    2.30
   2  16   2    1.40    2.40
  -3 -16  -2    0.60    2.70
  -3  16  -2   -0.40    2.10
  -3  16  -2   -0.40    2.60
   3  16   2   -1.70    2.20
   4 -16   2    0.90    2.20
  -4 -16  -2    2.40    3.10
   4  16   2   -2.00    2.30
  -4  16  -2    1.40    2.70
   5 -16   2   10.90    3.00
   5 -16   2    9.30    4.20
   5  16   2    1.80    3.20
   6 -16   2    1.80    2.50
  -6 -16  -2   -1.80    2.80
   6 -16   2    1.30    4.30
   6  16   2   -3.20    2.30
  -7 -16  -2    0.50    3.30
   7 -16   2   -1.30    2.40
   7 -16   2    1.20    2.50
   7  16   2   -1.20    2.90
   6 -17  -2    3.90    2.80
   6 -17  -2    0.60    3.00
  -6 -17   2    5.60    3.50
   6  17  -2    3.40    2.90
   5 -17  -2   -1.00    2.70
  -5 -17   2   -1.20    3.50
   5 -17  -2    4.50    3.00
   5  17  -2    3.50    2.80
  -4 -17   2   -0.80    3.10
   4 -17  -2    2.90    3.10
   4  17  -2    4.30    2.80
  -4  17   2   -0.20    2.70
   3 -17  -2   -3.50    2.40
   3  17  -2   -1.30    2.80
  -3  17   2   -6.00    2.10
   3  17  -2   -1.30    2.10
   2 -17  -2   -0.90    2.80
  -2  17   2    2.40    2.80
   2  17  -2    5.80    3.10
   2  17  -2    1.70    2.30
   1 -17  -2    0.80    3.10
   1  17  -2    1.10    3.10
   1  17  -2    0.20    2.00
  -1  17   2   -0.90    2.50
   0 -17  -2   13.60    3.80
   0  17  -2    5.60    2.60
   0  17  -2    9.50    3.60
   0  17   2    7.70    2.90
  -1 -17  -2    7.80    3.50
  -1  17  -2    2.50    2.40
   1  17   2    4.60    2.80
  -1  17  -2    9.10    3.40
  -2 -17  -2    1.70    3.30
   2  17   2    0.90    2.50
  -2  17  -2   -0.80    2.30
  -2  17  -2    1.50    2.90
  -3 -17  -2   11.50    4.10
  -3  17  -2   15.70    3.90
   3  17   2   16.20    3.60
  -3  17  -2    7.90    3.00
  -4 -17  -2    0.60    3.20
   4 -17   2    1.80    2.70
   4 -17   2   -1.20    2.50
   4  17   2    2.60    3.60
   5 -17   2    4.80    2.80
   5 -17   2   -0.30    2.70
  -5 -17  -2    5.50    3.90
   5  17   2    0.10    2.80
   6 -17   2    0.40    2.50
   6 -17   2   -2.00    2.30
  -6 -17  -2    2.50    3.40
   6  17   2   -4.30    2.70
   5 -18  -2   16.00    3.90
   5 -18  -2   11.80    3.80
  -5 -18   2   10.00    4.40
   5  18  -2   12.40    4.70
   4 -18  -2    1.70    3.40
  -4 -18   2   -3.70    3.30
   4  18  -2   -1.50    2.40
  -4  18   2    0.30    2.90
   3 -18  -2   -0.30    3.20
  -3 -18   2    5.70    3.50
  -3  18   2    1.40    2.80
   3  18  -2    2.10    2.50
   2 -18  -2    0.00    3.60
   2  18  -2   -4.00    2.10
  -2  18   2    2.00    2.90
   2  18  -2    3.30    3.20
   1 -18  -2   36.00    6.00
   1  18  -2   41.00    4.60
   1  18  -2   41.30    5.80
  -1  18   2   44.90    5.30
   0 -18  -2   -0.60    3.50
   0  18   2    3.80    3.00
   0  18  -2    3.60    3.30
   0  18  -2    1.90    2.70
  -1 -18  -2   39.10    6.00
   1  18   2   31.90    4.40
  -1  18  -2   31.80    4.50
  -1  18  -2   30.00    5.20
  -2 -18  -2    0.70    3.40
  -2  18  -2   -1.80    2.30
   2  18   2    2.90    2.90
  -3 -18  -2   33.90    5.90
   3 -18   2   34.50    5.40
  -3  18  -2   38.60    5.00
  -4 -18  -2    2.20    3.50
   4 -18   2    6.20    3.70
   4 -18   2    1.80    2.60
   4  18   2    8.00    3.30
  -3 -19   2   -0.90    3.60
   3 -19  -2    1.70    3.50
   3  19  -2    1.90    2.60
  -2 -19   2   26.90    5.60
   2 -19  -2   13.20    4.40
   2  19  -2   14.40    3.40
  -2  19   2   12.40    3.80
   1 -19  -2    2.70    3.70
  -1 -19   2    4.50    3.80
   1  19  -2    4.70    3.00
  -1  19   2    4.60    3.10
   0 -19   2   20.00    5.20
   0 -19  -2   28.10    5.90
   0  19   2   17.00    4.00
   0  19  -2   16.70    3.50
  -1 -19  -2   -6.50    3.20
   1 -19   2    0.10    3.60
  -1  19  -2    0.20    2.50
   2 -19   2   17.30    4.80
  -2 -19  -2   20.20    5.20
   2  19   2   15.00    3.50
  -2  19  -2   12.00    3.50
  12   0  -3   -1.50    2.50
  10   0  -3    4.10    2.60
   9   0  -3   -0.30    2.00
   8   0  -3    1.20    1.80
   6   0  -3   -1.00    1.20
  -6   0   3    1.20    1.10
   5   0  -3    1.40    1.20
  -5   0   3   -1.10    0.40
  -5   0   3    0.50    0.90
   5   0  -3   -0.40    0.50
  -4   0   3    1.70    0.60
  -4   0   3    2.60    1.00
   4   0  -3    1.90    0.70
   4   0  -3    3.00    1.20
   3   0  -3    0.30    0.90
   3   0  -3    0.40    0.60
  -3   0   3   -0.80    0.50
  -3   0   3   -0.40    0.70
  -2   0   3    3.10    0.70
   2   0  -3    2.90    0.70
   2   0  -3    1.80    0.80
  -2   0   3    2.70    0.80
  -1   0   3    0.70    0.50
   1   0  -3    1.20    0.50
   1   0  -3    1.60    0.50
  -1   0   3    1.70    0.50
   0   0   3    0.40    0.40
   0   0  -3    0.40    0.50
   0   0   3    0.70    0.30
   0   0  -3    0.20    0.30
  -1   0  -3    1.50    0.60
   1   0   3    1.30    0.50
  -1   0  -3    1.00    0.60
   1   0   3    0.50    0.50
  -2   0  -3    0.60    0.60
   2   0   3   -0.10    0.50
  -2   0  -3    0.80    0.60
   3   0   3    1.40    0.90
  -3   0  -3    1.20    0.60
  -3   0  -3    1.20    0.80
   3   0   3    1.10    0.50
   4   0   3    0.00    0.50
  -4   0  -3   -0.40    0.50
   4   0   3   -1.00    0.80
  -4   0  -3   -0.20    0.90
   5   0   3    5.70    1.60
  -5   0  -3    4.90    0.60
   5   0   3    4.10    0.60
   6   0   3    1.30    1.30
  -6   0  -3    0.30    1.00
   7   0   3    2.80    1.70
   8   0   3    0.30    1.80
   9   0   3    2.70    2.30
  10   0   3    5.90    3.00
  11   0   3    0.20    2.30
  12   0   3    2.60    2.70
  12  -1  -3   15.10    4.50
  12   1  -3   16.40    4.10
  10  -1  -3   23.00    4.40
  10   1  -3   18.20    3.80
   9  -1  -3    7.90    2.60
   9   1  -3    7.60    2.70
   8  -1  -3   15.50    3.20
   8   1  -3    9.10    2.60
   6  -1  -3   28.30    3.20
  -6  -1   3   27.50    1.30
  -6  -1   3   28.90    2.60
   6   1  -3   29.60    1.40
   6   1  -3   31.00    3.40
  -6   1   3   26.00    2.50
   5  -1  -3  354.26   12.80
   5  -1  -3  368.56   11.20
  -5  -1   3  357.76   11.20
  -5  -1   3  351.26   12.60
   5   1  -3  355.16   12.80
  -5   1   3  348.47   12.60
   5   1  -3  366.06   11.20
  -5   1   3  361.66   11.10
   4  -1  -3   50.49    2.20
  -4  -1   3   48.00    2.20
  -4  -1   3   49.20    2.90
   4  -1  -3   49.70    3.00
  -4   1   3   50.19    2.10
   4   1  -3   46.60    3.00
  -4   1   3   49.30    2.80
   4   1  -3   48.90    2.10
   3  -1  -3  403.36   12.30
  -3  -1   3  390.86   12.40
   3  -1  -3  389.86   12.90
  -3  -1   3  385.16   12.90
  -3   1   3  394.16   12.30
   3   1  -3  398.66   12.40
  -3   1   3  391.66   12.80
   3   1  -3  389.76   12.90
   2  -1  -3  769.92   23.60
   2  -1  -3  784.62   23.90
  -2  -1   3  773.12   23.60
   2   1  -3  766.12   23.60
  -2   1   3  777.02   23.50
   2   1  -3  766.52   23.80
   1  -1  -3   46.60    2.00
   1  -1  -3   46.00    2.10
  -1  -1   3   45.40    2.10
  -1  -1   3   48.40    1.90
   1   1  -3   48.60    2.10
  -1   1   3   48.80    2.10
  -1   1   3   46.60    2.00
   1   1  -3   48.00    1.90
   0  -1  -3 1086.09   32.90
   0  -1   3 1074.69   32.90
   0   1   3 1101.99   32.90
   1   1   3 1298.27   39.10
   2  -1   3   90.69    3.50
   2  -1   3   85.19    3.20
  -2  -1  -3   83.99    3.60
  -2  -1  -3   86.29    3.20
  -2   1  -3   85.89    3.60
  -2   1  -3   87.19    3.30
   2   1   3   86.29    3.60
   2   1   3   79.69    3.20
   3  -1   3   40.40    2.50
  -3  -1  -3   44.50    2.00
   3  -1   3   43.50    2.00
  -3  -1  -3   47.30    2.70
  -3   1  -3   45.90    2.00
  -3   1  -3   39.00    2.40
   3   1   3   46.50    2.00
   3   1   3   40.00    2.60
   4  -1   3  362.66   11.10
   4  -1   3  344.87   12.20
  -4  -1  -3  350.16   11.20
  -4  -1  -3  338.67   12.30
  -4   1  -3  365.46   11.10
   4   1   3  361.16   12.50
   4   1   3  360.66   11.10
  -4   1  -3  352.66   12.20
  -5  -1  -3   30.10    1.40
  -5  -1  -3   30.50    2.60
  -5  -1  -3   31.70    1.50
   5  -1   3   30.30    3.10
   5  -1   3   28.30    1.40
  -5   1  -3   26.60    2.40
  -5   1  -3   30.80    1.40
   5   1   3   28.10    2.70
   6  -1   3  108.39    5.70
  -6   1  -3  112.19    5.50
   6   1   3  110.79    5.80
   7  -1   3   -0.40    1.60
   7   1   3    0.50    1.60
   8  -1   3   46.00    5.20
   8   1   3   43.40    4.30
   9  -1   3    0.10    2.00
   9   1   3    3.10    2.50
  10  -1   3    0.40    2.50
  10   1   3   -0.80    2.10
  11  -1   3   17.90    4.20
  11   1   3   15.80    3.90
  12  -1   3    9.20    3.40
  12   1   3    8.10    3.60
  12  -2  -3   24.80    4.50
  12   2  -3   23.60    4.70
  11  -2  -3    3.70    4.90
  11   2  -3    5.20    3.50
  10  -2  -3   24.10    4.10
  10   2  -3   21.90    4.30
   9  -2  -3   33.20    4.50
   9   2  -3   43.00    5.30
   8  -2  -3   14.60    3.30
   8   2  -3   11.60    3.00
   7  -2  -3   36.40    4.50
   7   2  -3   30.00    4.40
   6  -2  -3   10.20    1.00
  -6  -2   3    8.80    1.00
  -6  -2   3    7.10    1.70
   6  -2  -3    8.80    2.00
   6  -2  -3   11.80    1.10
   6   2  -3   12.60    2.40
  -6   2   3   13.70    2.20
   6   2  -3   10.60    1.10
   5  -2  -3  490.05   14.90
   5  -2  -3  479.55   16.40
  -5  -2   3  497.85   15.10
  -5  -2   3  461.55   16.20
   5  -2  -3  471.25   14.90
   5   2  -3  472.05   16.40
   5   2  -3  471.75   14.90
   4  -2  -3  112.59    5.00
   4  -2  -3  113.09    4.20
   4  -2  -3  114.19    5.00
  -4  -2   3  116.09    5.00
  -4   2   3  114.29    4.10
   4   2  -3  110.59    5.00
   4   2  -3  111.29    4.20
   3  -2  -3   20.40    1.40
   3  -2  -3   18.00    1.80
  -3  -2   3   17.90    1.60
   3  -2  -3   20.50    1.80
   3   2  -3   17.70    1.70
  -3   2   3   21.00    1.40
   3   2  -3   18.60    1.50
   2  -2  -3 1783.42   54.39
   2  -2  -3 1803.32   54.09
  -2  -2   3 1825.52   54.49
  -2   2   3 1885.91   54.39
   2   2  -3 1745.73   54.19
   2   2  -3 1758.32   54.19
   1  -2  -3  454.65   14.70
  -1  -2   3  471.15   14.40
  -1  -2   3  483.85   15.10
   1  -2  -3  485.35   15.00
   1   2  -3  466.85   14.80
   1   2  -3  460.35   14.40
  -1   2   3  483.45   15.00
  -1   2   3  454.95   14.70
   0  -2  -3   44.50    2.20
   0  -2   3   43.00    2.30
   0  -2  -3   39.20    2.00
   0   2   3   42.80    2.00
   0   2  -3   40.90    2.10
   0   2   3   46.00    2.30
   1  -2   3  103.59    4.10
   1  -2   3   95.69    3.40
  -1  -2  -3   96.19    3.80
  -1  -2  -3  101.19    3.80
  -1   2  -3  100.09    3.80
   1   2   3  107.39    4.00
  -1   2  -3   96.79    3.40
  -2  -2  -3   26.10    1.90
   2  -2   3   26.80    1.60
   2  -2   3   29.10    1.70
  -2  -2  -3   24.10    1.60
   2   2   3   25.70    1.90
  -2   2  -3   28.80    1.70
   3  -2   3  101.89    4.20
   3  -2   3   99.79    3.80
  -3  -2  -3   95.99    4.40
  -3  -2  -3   94.89    3.70
   3   2   3  105.69    4.20
  -3   2  -3  100.59    3.80
  -3   2  -3   95.99    4.10
   3   2   3   99.09    4.40
  -4  -2  -3  354.06   12.60
  -4  -2  -3  355.76   11.40
   4  -2   3  365.46   11.40
   4  -2   3  359.56   12.40
  -4   2  -3  348.97   12.20
   4   2   3  358.16   12.60
  -4   2  -3  366.66   11.40
  -5  -2  -3  110.29    3.90
   5  -2   3  116.59    5.40
   5  -2   3  107.79    3.90
  -5  -2  -3  105.09    4.00
  -5  -2  -3  106.49    5.30
  -5   2  -3  102.19    4.90
   5   2   3  109.49    5.40
  -5   2  -3  109.19    3.80
  -6  -2  -3   17.60    1.20
   6  -2   3   26.30    3.50
  -6  -2  -3   16.20    1.10
   6  -2   3   18.30    1.10
   6   2   3   17.80    2.60
  -6   2  -3   17.70    2.40
   7  -2   3   58.99    5.50
   7   2   3   55.59    4.40
   8  -2   3   82.09    5.60
   8   2   3   73.79    5.40
   9  -2   3    3.90    2.40
   9   2   3    3.90    2.60
  10  -2   3    3.30    2.70
  10   2   3    2.00    2.50
  11  -2   3    2.40    2.60
  11   2   3   -0.50    2.50
  12  -2   3    5.30    3.00
  12   2   3    8.30    3.40
  12  -3  -3   23.50    4.60
  12   3  -3   33.70    5.40
  11  -3  -3   13.50    4.10
  11   3  -3   11.10    3.50
  10  -3  -3   17.00    3.60
  10   3  -3   18.50    4.10
   9  -3  -3  118.39    7.30
   9   3  -3  107.09    7.10
   8  -3  -3  126.09    7.20
   8   3  -3  137.49    7.40
   7  -3  -3  271.07    8.90
   7  -3  -3  290.67   11.40
   7  -3  -3  280.47    8.90
   7   3  -3  272.47   11.30
   7   3  -3  279.47    9.10
   6  -3  -3  146.59    5.30
  -6  -3   3  147.29    5.40
  -6  -3   3  144.99    6.70
   6  -3  -3  142.29    7.20
   6  -3  -3  151.58    7.00
   6   3  -3  154.18    7.00
   5  -3  -3 1024.50   32.00
   5  -3  -3 1021.70   30.60
  -5  -3   3 1003.00   30.80
   5  -3  -3 1025.10   32.00
  -5  -3   3  917.71   34.40
   5   3  -3 1008.20   32.10
   5   3  -3 1002.60   30.70
   4  -3  -3    7.50    1.20
  -4  -3   3    7.10    1.10
   4  -3  -3    5.90    1.40
  -4  -3   3    6.70    1.30
   4  -3  -3    4.40    1.20
   4  -3  -3    9.70    1.30
   4   3  -3    6.80    1.40
   4   3  -3    7.30    1.20
  -3  -3   3  675.83   21.50
   3  -3  -3  673.73   21.50
   3  -3  -3  688.03   21.10
  -3  -3   3  666.33   21.20
   3  -3  -3  682.13   21.60
   3   3  -3  678.63   21.50
   3   3  -3  682.83   21.20
  -3   3   3  681.83   21.00
   2  -3  -3 4866.61  191.38
  -2  -3   3 5304.97  196.48
   2  -3  -3 4973.90  162.28
  -2  -3   3 4941.11  162.38
   2  -3  -3 4987.70  161.88
  -2   3   3 5065.99  200.48
   2   3  -3 4940.51  189.48
   2   3  -3 4913.31  162.68
   1  -3  -3 9723.93  302.17
  -1  -3   3 9961.20  330.17
  -1  -3   3 9756.22  301.27
   1  -3  -3 9891.31  317.87
   1   3  -3 9999.00  333.67
  -1   3   3 9788.82  322.07
  -1   3   3 9541.95  301.87
   1   3  -3 9517.75  301.07
   0  -3  -3 3244.78  109.59
   0  -3   3 3368.76  107.39
   0  -3   3 3437.76  144.39
   0  -3  -3 3448.46  108.59
   0   3   3 3259.37  108.89
   0   3  -3 3331.67  107.39
   0   3   3 3181.28  109.19
   0   3  -3 3149.98  141.39
   1  -3   3  104.99    3.50
   1  -3   3  100.69    3.50
  -1  -3  -3  101.59    4.00
   1  -3   3  100.69    4.00
  -1  -3  -3  105.59    4.10
   1   3   3  100.79    4.00
   1   3   3  103.79    4.10
  -1   3  -3   99.49    4.10
   2  -3   3   35.20    1.90
  -2  -3  -3   39.80    2.10
  -2  -3  -3   38.80    2.40
   2  -3   3   37.60    2.10
   2   3   3   40.30    2.10
  -2   3  -3   37.80    2.30
   2   3   3   36.90    2.30
   3  -3   3    0.60    0.80
   3  -3   3    0.80    0.70
  -3  -3  -3    0.60    0.70
  -3  -3  -3    1.40    0.90
  -3  -3  -3   -0.30    0.60
  -3   3  -3    0.80    0.80
   3   3   3    0.10    0.90
  -4  -3  -3  402.36   14.20
   4  -3   3  424.46   13.90
  -4  -3  -3  418.96   13.20
   4  -3   3  411.86   13.20
  -4  -3  -3  412.96   13.20
  -4   3  -3  391.76   13.60
   4   3   3  408.86   14.30
   5  -3   3  251.67    9.50
  -5  -3  -3  247.38    8.20
   5  -3   3  244.38    8.30
  -5  -3  -3  242.08    9.60
   5   3   3  241.18    9.60
  -5   3  -3  229.78    9.00
  -5   3  -3  251.47    8.10
  -6  -3  -3  315.57   10.40
   6  -3   3  325.27   10.30
  -6  -3  -3  316.97   10.50
   6  -3   3  314.27   12.00
  -6   3  -3  319.57   10.10
   6   3   3  332.57   12.40
  -6   3  -3  308.37   11.70
   7  -3   3  174.28   10.90
  -7  -3  -3  155.18    5.30
  -7  -3  -3  154.58    5.40
   7   3   3  166.28    8.00
   8  -3   3   69.59    5.20
   8   3   3   68.19    5.40
   9  -3   3   43.70    5.30
   9   3   3   52.29    5.80
  10  -3   3   19.90    4.00
  10   3   3   18.80    3.80
  11  -3   3   52.19    6.10
  11   3   3   46.00    6.20
  12  -3   3   30.60    5.40
  12   3   3   25.50    4.90
  12  -4  -3    3.60    3.00
  12   4  -3    8.10    3.70
  11  -4  -3    1.00    2.40
  11   4  -3   -2.00    2.30
  10  -4  -3  112.39    7.50
  10   4  -3   95.79    7.20
   9  -4  -3    1.30    2.50
   9   4  -3    0.90    2.10
   8  -4  -3  309.07    9.70
   8  -4  -3  312.87   12.60
   8  -4  -3  300.27    9.70
  -8  -4   3  303.77   10.60
  -8  -4   3  295.77   10.10
   8   4  -3  307.17   12.80
  -7  -4   3    0.70    0.90
   7  -4  -3   -1.30    1.50
   7  -4  -3    1.60    0.80
   7   4  -3    3.30    1.00
   7   4  -3    2.10    1.80
   6  -4  -3  273.87   10.90
   6  -4  -3  286.57    9.50
  -6  -4   3  288.17    9.70
   6  -4  -3  285.47    9.50
   6   4  -3  276.17    9.50
   6   4  -3  270.87   11.00
  -5  -4   3   98.99    4.20
   5  -4  -3   97.79    4.00
   5  -4  -3   91.49    4.70
   5  -4  -3   97.69    5.00
  -5  -4   3   91.29    4.80
   5  -4  -3  100.29    4.00
   5   4  -3  101.09    5.10
   5   4  -3   93.19    4.10
   4  -4  -3  568.84   18.00
   4  -4  -3  586.74   18.00
  -4  -4   3  561.74   18.60
  -4  -4   3  565.14   18.20
   4  -4  -3  565.54   18.70
   4  -4  -3  561.34   18.70
   4   4  -3  562.14   18.10
   4   4  -3  564.74   18.70
  -3  -4   3   25.20    2.00
   3  -4  -3   27.50    1.90
   3  -4  -3   25.70    1.90
  -3  -4   3   25.40    1.90
   3  -4  -3   27.30    2.00
  -3   4   3   23.50    2.20
   3   4  -3   22.90    1.90
   3   4  -3   23.10    2.00
   2  -4  -3  362.76   12.10
   2  -4  -3  375.66   12.10
   2  -4  -3  376.56   12.00
  -2  -4   3  362.46   12.10
  -2  -4   3  360.96   11.90
  -2   4   3  347.37   12.10
   2   4  -3  366.46   12.10
   2   4  -3  369.06   11.90
   1  -4  -3  230.68    7.80
   1  -4  -3  231.78    7.70
  -1  -4   3  215.98    7.80
  -1  -4   3  214.68    7.20
   1  -4  -3  212.48    7.70
  -1   4   3  222.08    7.60
   1   4  -3  211.28    7.80
   1   4  -3  226.98    7.20
   0  -4   3  132.39    5.20
   0  -4  -3  124.09    4.90
   0  -4   3  139.59    4.30
   0  -4  -3  128.29    5.10
   0  -4  -3  125.39    5.00
   0   4  -3  136.79    5.20
   0   4   3  122.99    4.90
   0   4  -3  134.29    4.30
  -1  -4  -3   27.30    1.90
   1  -4   3   29.60    2.00
  -1  -4  -3   30.40    2.00
  -1  -4  -3   25.50    1.90
   1  -4   3   27.30    1.30
  -1   4  -3   30.40    2.00
   1   4   3   25.50    1.90
  -1   4  -3   27.00    1.50
  -2  -4  -3    8.40    1.30
   2  -4   3   10.70    1.50
   2  -4   3    9.70    1.20
   2  -4   3   11.20    1.20
  -2  -4  -3    8.50    1.30
  -2  -4  -3    9.90    1.50
  -2   4  -3   12.70    1.50
   2   4   3    7.00    1.30
   3  -4   3  167.38    6.20
  -3  -4  -3  163.48    6.10
  -3  -4  -3  167.38    6.10
  -3  -4  -3  162.18    6.70
   3  -4   3  166.48    6.20
  -3   4  -3  170.38    6.10
   3   4   3  165.48    6.70
   4  -4   3   40.30    2.70
  -4  -4  -3   41.30    2.30
   4  -4   3   41.80    2.40
  -4  -4  -3   37.50    2.40
  -4   4  -3   38.80    2.50
   4   4   3   43.50    3.10
  -4   4  -3   38.50    2.30
  -5  -4  -3   10.30    2.00
   5  -4   3   16.00    1.50
  -5  -4  -3   17.80    1.80
  -5  -4  -3   16.50    1.70
   5  -4   3   20.00    2.70
  -5   4  -3   15.80    2.10
  -5   4  -3   15.50    1.50
   5   4   3   17.70    2.60
   6  -4   3   95.99    5.30
  -6  -4  -3  103.59    4.20
  -6  -4  -3   99.09    4.00
   6  -4   3   99.79    4.00
  -6   4  -3   87.99    4.80
  -6   4  -3   98.89    3.90
  -7  -4  -3  266.97    9.50
  -7  -4  -3  257.57    8.80
   7  -4   3  262.57   11.90
   7   4   3  258.27   11.10
   8  -4   3    0.30    1.80
  -8  -4  -3    1.20    0.70
  -8  -4  -3    1.40    0.80
   8   4   3   -0.30    1.70
   9  -4   3  151.78    8.20
   9   4   3  145.19    8.40
  10  -4   3  113.69    7.40
  10   4   3   96.59    7.20
  11  -4   3   21.80    4.30
  11   4   3   29.20    5.00
  12  -4   3    5.50    3.10
  12   4   3    8.60    3.70
  12  -5  -3    1.10    2.80
  12   5  -3    4.10    3.20
  11  -5  -3   -0.60    2.40
  11   5  -3    2.00    2.60
  10  -5  -3    5.80    2.60
  10   5  -3    8.50    3.30
  -9  -5   3   77.99    4.70
   9  -5  -3   88.39    6.30
  -9  -5   3   87.29    4.00
   9   5  -3   95.99    6.60
   8  -5  -3   76.69    3.50
   8  -5  -3   78.69    3.50
   8  -5  -3   77.19    5.60
  -8  -5   3   82.39    3.80
   8   5  -3   77.39    5.70
   7  -5  -3  229.18    8.10
   7  -5  -3  231.18   10.00
  -7  -5   3  231.78    8.40
   7  -5  -3  223.38    8.10
   7   5  -3  237.18   10.20
   7   5  -3  233.38    8.30
   6  -5  -3   10.80    1.60
   6  -5  -3   11.20    1.60
   6  -5  -3    9.90    2.20
  -6  -5   3   12.50    1.70
   6   5  -3   12.90    1.80
   6   5  -3   12.30    2.30
   5  -5  -3  586.04   18.40
  -5  -5   3  545.25   19.20
   5  -5  -3  585.14   18.40
   5  -5  -3  566.14   19.20
  -5  -5   3  571.64   18.50
   5  -5  -3  568.54   19.30
   5   5  -3  571.24   18.40
   5   5  -3  573.04   19.40
   4  -5  -3  175.98    7.10
  -4  -5   3  176.48    6.80
   4  -5  -3  174.78    6.60
   4  -5  -3  182.68    7.10
   4  -5  -3  167.38    6.50
  -4  -5   3  178.28    7.10
   4   5  -3  176.18    7.10
   4   5  -3  182.58    6.80
  -3  -5   3  605.74   19.60
   3  -5  -3  592.34   19.40
   3  -5  -3  616.64   19.70
   3  -5  -3  627.44   19.50
  -3  -5   3  603.74   19.60
  -3   5   3  615.14   19.90
   3   5  -3  609.54   19.60
   3   5  -3  605.54   19.60
   2  -5  -3    4.50    1.10
   2  -5  -3    4.50    1.10
   2  -5  -3    3.00    1.10
  -2  -5   3    3.70    1.20
  -2  -5   3    4.30    1.00
   2   5  -3    3.30    1.10
  -2   5   3    5.00    1.20
   2   5  -3    4.00    1.00
   1  -5  -3 1183.98   36.50
  -1  -5   3 1145.29   36.70
   1  -5  -3 1155.88   36.60
   1  -5  -3 1208.18   36.70
   1   5  -3 1185.38   36.70
   1   5  -3 1222.58   36.10
  -1   5   3 1221.68   36.60
   0  -5  -3  354.06   11.70
   0  -5  -3  333.87   11.60
   0  -5  -3  331.77   11.40
   0  -5   3  337.47   11.70
   0  -5   3  356.46   10.80
   0   5  -3  341.27   11.60
   0   5  -3  342.37   10.80
   0   5   3  350.06   11.50
   1  -5   3    2.70    1.00
  -1  -5  -3    0.50    0.80
   1  -5   3    3.10    0.70
  -1  -5  -3    2.00    1.00
  -1  -5  -3    1.70    0.90
  -1   5  -3    3.00    0.70
  -1   5  -3    4.00    1.20
   1   5   3    3.70    1.10
  -2  -5  -3   71.99    3.50
   2  -5   3   72.09    3.00
  -2  -5  -3   69.59    3.40
   2  -5   3   71.59    3.50
   2  -5   3   65.49    3.20
  -2  -5  -3   72.39    3.70
   2   5   3   69.39    3.60
  -2   5  -3   71.89    3.50
  -3  -5  -3  298.17   11.20
  -3  -5  -3  312.57   10.70
   3  -5   3  306.07   10.70
  -3  -5  -3  317.97   10.70
   3  -5   3  322.27   10.60
   3  -5   3  311.27   10.60
  -3   5  -3  319.67   10.70
   3   5   3  300.57   11.10
  -4  -5  -3  115.69    5.70
  -4  -5  -3  116.59    4.90
   4  -5   3  122.69    5.30
  -4  -5  -3  119.19    5.00
   4  -5   3  122.39    5.20
   4  -5   3  123.79    5.00
   4   5   3  117.39    5.70
  -4   5  -3  124.69    5.00
  -5  -5  -3  458.75   15.00
   5  -5   3  455.65   15.60
   5  -5   3  460.05   15.70
  -5  -5  -3  451.25   14.90
   5  -5   3  445.96   14.90
  -5   5  -3  451.75   14.80
   6  -5   3   92.09    4.10
  -6  -5  -3   87.49    4.00
  -6  -5  -3   87.99    4.20
   6  -5   3   97.89    5.20
  -6   5  -3   92.69    4.00
   6   5   3   89.79    5.40
  -7  -5  -3  178.48    6.50
   7  -5   3  173.68    8.20
  -7  -5  -3  169.78    6.40
   7  -5   3  161.18    6.20
   7   5   3  163.28    8.30
   8  -5   3   53.89    4.70
   8  -5   3   53.19    3.30
  -8  -5  -3   47.60    2.60
  -8  -5  -3   51.29    2.80
   8   5   3   52.99    5.70
   9  -5   3   32.00    4.50
   9   5   3   24.30    4.10
  10  -5   3    2.40    2.60
  11  -5   3   53.39    6.50
  11   5   3   62.99    7.20
  12  -6  -3    7.40    3.50
  12   6  -3   11.40    3.80
  11  -6  -3   67.09    7.50
  11   6  -3   54.49    6.50
  10  -6  -3   80.89    6.40
  10   6  -3   74.09    6.40
   9  -6  -3   29.00    4.30
  -9  -6   3   23.60    2.40
   9  -6  -3   21.90    1.90
  -9  -6   3   26.20    2.40
   9  -6  -3   19.70    1.80
   9   6  -3   24.00    4.30
   8  -6  -3  124.89    5.40
   8  -6  -3  133.89    7.50
   8  -6  -3  137.09    5.50
  -8  -6   3  138.09    5.80
   8   6  -3  157.18    8.00
   7  -6  -3   65.39    3.60
   7  -6  -3   68.59    3.60
   7  -6  -3   70.09    5.10
  -7  -6   3   72.89    3.90
   7   6  -3   68.19    5.10
   7   6  -3   75.69    3.90
   6  -6  -3  629.34   20.40
  -6  -6   3  617.84   20.60
   6  -6  -3  646.74   21.80
   6  -6  -3  601.14   20.30
   6   6  -3  637.04   21.80
   6   6  -3  662.73   20.60
   5  -6  -3    1.60    1.20
   5  -6  -3    1.30    1.10
   5  -6  -3   -0.10    1.20
  -5  -6   3    4.20    1.40
   5  -6  -3    2.30    1.50
  -5  -6   3    4.90    1.50
   5   6  -3    0.30    1.10
   5   6  -3    3.50    1.30
  -4  -6   3  285.27   10.60
   4  -6  -3  296.87   11.10
   4  -6  -3  299.17   10.40
  -4  -6   3  287.87   10.50
   4  -6  -3  286.17   10.30
   4   6  -3  289.07   10.40
   4   6  -3  293.97   10.70
  -4   6   3  299.07   10.90
  -3  -6   3   62.79    3.50
  -3  -6   3   64.89    3.40
   3  -6  -3   64.39    3.50
   3  -6  -3   66.79    3.50
   3  -6  -3   59.69    3.30
   3   6  -3   62.49    3.40
   3   6  -3   67.49    3.60
  -3   6   3   60.39    3.60
  -2  -6   3  624.14   20.40
   2  -6  -3  611.84   20.20
   2  -6  -3  638.94   20.30
   2  -6  -3  638.24   20.30
  -2  -6   3  626.84   20.00
  -2   6   3  624.94   20.30
   2   6  -3  635.04   19.90
   2   6  -3  629.34   20.40
   1  -6  -3    7.60    1.50
   1  -6  -3    9.00    1.40
   1  -6  -3    6.70    1.40
  -1  -6   3    6.00    1.30
  -1  -6   3    5.90    1.10
   1   6  -3    6.80    1.10
   1   6  -3    5.00    1.30
  -1   6   3    9.10    1.50
   0  -6  -3  226.88    8.50
   0  -6   3  242.28    8.00
   0  -6   3  237.48    8.70
   0  -6  -3  237.88    8.60
   0  -6  -3  231.48    8.40
   0   6   3  230.78    8.30
   0   6  -3  226.68    8.60
   0   6  -3  229.78    7.70
   1  -6   3  187.08    6.20
  -1  -6  -3  177.88    7.00
   1  -6   3  180.18    7.10
  -1  -6  -3  183.88    7.10
  -1  -6  -3  187.28    7.00
   1   6   3  176.58    6.90
  -1   6  -3  189.98    6.30
  -1   6  -3  178.18    7.10
   2  -6   3  170.68    6.70
   2  -6   3  171.18    6.10
  -2  -6  -3  168.58    6.60
  -2  -6  -3  163.88    6.80
   2  -6   3  164.78    6.00
  -2  -6  -3  171.58    6.70
   2   6   3  168.28    6.80
  -2   6  -3  175.58    6.70
   3  -6   3  444.56   15.10
  -3  -6  -3  452.35   15.10
  -3  -6  -3  464.25   15.10
   3  -6   3  453.45   14.70
   3  -6   3  464.75   14.80
   3   6   3  426.66   15.40
  -3   6  -3  440.26   15.00
   4  -6   3   20.10    2.20
  -4  -6  -3   17.70    2.10
   4  -6   3   14.90    2.00
  -4  -6  -3   18.40    2.20
   4  -6   3   19.70    2.30
  -4  -6  -3   21.90    2.70
  -4   6  -3   18.50    2.10
   4   6   3   16.20    2.50
   5  -6   3  447.66   15.40
  -5  -6  -3  464.85   15.40
   5  -6   3  481.05   16.00
  -5  -6  -3  456.55   15.40
   5   6   3  446.76   16.50
  -5   6  -3  466.35   15.30
   6  -6   3    9.30    1.90
   6  -6   3    6.00    1.40
  -6  -6  -3    5.80    1.50
  -6  -6  -3    6.20    1.80
   6  -6   3    9.30    2.20
   6   6   3   10.10    2.40
  -6   6  -3    9.10    1.60
   7  -6   3  178.68    7.00
   7  -6   3  193.08    8.70
  -7  -6  -3  202.98    7.40
  -7  -6  -3  181.98    7.20
   7   6   3  180.78    9.00
  -8  -6  -3   79.29    3.90
   8  -6   3   72.39    3.50
   8  -6   3   75.59    5.40
   8  -6   3   73.89    3.40
  -8  -6  -3   71.49    3.70
   8   6   3   73.19    5.60
  -9  -6  -3  315.87   10.60
   9  -6   3  307.97   13.30
  -9  -6  -3  301.67   10.30
   9   6   3  305.57   13.60
  10  -6   3   86.59    6.70
  10   6   3   91.19    7.00
  11  -6   3   21.40    4.40
  11   6   3   25.80    4.60
  12  -7  -3    8.30    3.50
  12   7  -3    5.30    3.40
  11  -7  -3    6.30    3.40
  11   7  -3   10.40    3.70
  10  -7  -3    5.10    3.10
 -10  -7   3    4.90    1.50
 -10  -7   3    1.40    1.40
  10   7  -3    6.30    2.90
  -9  -7   3   14.00    2.20
   9  -7  -3   12.80    3.50
  -9  -7   3   13.70    2.10
   9  -7  -3    9.10    1.70
   9  -7  -3   13.10    1.80
   9   7  -3   12.90    3.30
  -8  -7   3   12.20    2.10
   8  -7  -3   13.20    2.10
   8  -7  -3   14.40    2.00
   8  -7  -3   16.40    3.30
   8   7  -3   15.90    3.50
   7  -7  -3    1.40    1.30
  -7  -7   3    1.00    1.40
   7  -7  -3    1.90    1.90
   7  -7  -3    1.50    1.20
   7   7  -3    1.90    1.60
   7   7  -3    0.00    1.60
   6  -7  -3  146.39    6.20
  -6  -7   3  139.99    6.30
   6  -7  -3  132.09    6.00
   6  -7  -3  153.28    7.20
   6   7  -3  142.19    6.20
  -5  -7   3  230.28    8.80
   5  -7  -3  215.78    8.50
  -5  -7   3  219.48    9.10
   5  -7  -3  221.68    9.10
   5  -7  -3  228.98    8.50
   5   7  -3  207.28    9.00
   5   7  -3  231.48    8.70
   4  -7  -3  189.38    7.70
  -4  -7   3  192.78    8.50
   4  -7  -3  191.38    7.60
   4  -7  -3  203.58    7.70
  -4  -7   3  198.58    7.80
   4   7  -3  194.38    7.90
   4   7  -3  189.68    7.70
  -4   7   3  194.78    8.10
   3  -7  -3    1.90    1.10
   3  -7  -3    2.50    1.20
   3  -7  -3    1.30    1.00
  -3  -7   3    2.60    1.30
  -3  -7   3    3.20    1.10
  -3   7   3    2.60    1.30
   3   7  -3    1.40    1.40
   3   7  -3    1.40    1.10
  -2  -7   3  150.28    5.70
   2  -7  -3  133.09    6.00
  -2  -7   3  139.79    6.10
   2  -7  -3  146.29    6.00
   2  -7  -3  141.39    5.80
   2   7  -3  139.39    6.10
  -2   7   3  142.49    6.00
   2   7  -3  137.89    5.50
   1  -7  -3  264.57    9.50
   1  -7  -3  267.27    9.80
  -1  -7   3  265.97    9.90
   1  -7  -3  269.97    9.80
  -1  -7   3  265.07    9.10
  -1   7   3  257.87    9.50
   1   7  -3  271.17    9.00
   1   7  -3  258.97    9.80
   0  -7  -3  424.66   14.40
   0  -7  -3  412.46   14.20
   0  -7   3  426.36   13.50
   0  -7   3  421.16   14.50
   0  -7  -3  423.36   14.40
   0   7   3  430.56   14.20
   0   7  -3  421.66   13.50
   0   7  -3  410.56   14.40
  -1  -7  -3   63.59    3.60
  -1  -7  -3   57.19    3.40
   1  -7   3   64.39    2.80
   1  -7   3   62.29    3.60
  -1  -7  -3   63.39    3.70
  -1   7  -3   59.09    2.90
   1   7   3   64.09    3.50
  -1   7  -3   65.29    3.70
   2  -7   3   65.39    3.70
   2  -7   3   66.39    3.10
  -2  -7  -3   69.09    3.80
  -2  -7  -3   70.89    3.80
  -2  -7  -3   68.69    3.80
  -2   7  -3   67.49    3.30
  -2   7  -3   66.19    3.80
   2   7   3   64.69    3.80
   3  -7   3   32.80    2.60
  -3  -7  -3   34.90    2.80
   3  -7   3   34.50    2.40
  -3  -7  -3   35.80    2.70
  -3  -7  -3   30.90    2.70
   3  -7   3   31.60    2.20
   3   7   3   34.80    2.90
  -3   7  -3   29.00    2.60
   4  -7   3   11.60    1.70
  -4  -7  -3   10.70    2.00
  -4  -7  -3   11.40    1.90
   4  -7   3   12.90    2.00
   4  -7   3    9.80    1.80
  -4   7  -3   10.90    1.90
   4   7   3   15.10    2.30
  -5  -7  -3  119.79    5.70
  -5  -7  -3  129.69    5.70
   5  -7   3  121.39    5.60
   5  -7   3  125.19    5.90
   5  -7   3  131.09    5.80
  -5   7  -3  130.59    5.60
   5   7   3  129.59    7.20
  -6  -7  -3  123.09    5.60
   6  -7   3  113.89    6.00
   6  -7   3  109.49    5.20
  -6  -7  -3  111.89    5.30
  -6   7  -3  112.99    5.20
   6   7   3  116.09    6.50
   7  -7   3   17.60    2.30
  -7  -7  -3   20.20    2.60
   7  -7   3   21.80    3.30
  -7  -7  -3   17.10    2.30
  -7   7  -3   22.30    2.30
   7   7   3   14.70    3.00
  -8  -7  -3    3.40    1.40
   8  -7   3    5.80    1.40
   8  -7   3    2.70    2.20
   8  -7   3    4.40    1.30
  -8  -7  -3    3.30    1.60
   8   7   3    3.70    2.60
   9  -7   3   67.89    5.60
   9  -7   3   53.59    2.80
  -9  -7  -3   61.49    3.60
   9  -7   3   47.30    2.90
  -9  -7  -3   49.50    3.20
   9   7   3   68.69    5.90
  10  -7   3   -0.50    2.30
  10   7   3    2.30    2.80
  11  -7   3   30.40    4.90
  11   7   3   30.80    5.30
  11  -8  -3    2.70    3.00
  11   8  -3    9.00    3.80
  10  -8  -3    6.80    1.50
 -10  -8   3    6.90    1.90
  10  -8  -3   13.00    4.00
  10  -8  -3   10.10    1.60
 -10  -8   3   14.30    2.20
   9  -8  -3    3.40    1.50
   9  -8  -3    1.10    1.30
   9  -8  -3    2.50    2.50
  -9  -8   3    1.00    1.70
   9   8  -3    2.00    2.40
   8  -8  -3   77.99    4.20
  -8  -8   3   65.89    4.30
   8  -8  -3   79.09    5.80
   8   8  -3   77.79    5.80
  -7  -8   3   12.70    2.20
   7  -8  -3   20.50    2.60
   7  -8  -3   22.30    3.50
   7  -8  -3   16.50    2.50
   7   8  -3   18.70    2.70
   7   8  -3   18.20    3.20
   6  -8  -3    9.10    1.90
   6  -8  -3    8.60    2.40
   6  -8  -3   10.50    2.10
  -6  -8   3    7.50    2.00
   6   8  -3    5.80    2.10
   6   8  -3   10.70    2.10
   5  -8  -3    9.90    2.10
  -5  -8   3   11.50    2.10
   5  -8  -3   12.60    2.50
   5  -8  -3   12.20    2.20
   5   8  -3    9.30    2.00
   5   8  -3   14.80    2.40
   4  -8  -3   56.89    3.60
   4  -8  -3   51.89    3.40
  -4  -8   3   48.60    3.40
  -4  -8   3   50.79    3.60
   4  -8  -3   49.00    3.30
  -4   8   3   56.49    3.90
   4   8  -3   52.49    3.60
   4   8  -3   55.59    3.70
   3  -8  -3  186.78    7.70
  -3  -8   3  187.08    7.60
   3  -8  -3  185.08    7.60
   3  -8  -3  200.18    7.90
  -3  -8   3  190.28    7.90
   3   8  -3  197.28    8.00
   3   8  -3  192.88    7.50
  -3   8   3  189.68    7.80
  -2  -8   3  222.18    8.30
   2  -8  -3  225.38    8.80
  -2  -8   3  227.78    9.00
   2  -8  -3  224.28    9.10
   2  -8  -3  219.58    8.80
  -2   8   3  232.88    8.70
   2   8  -3  219.68    8.80
   2   8  -3  228.58    8.30
   1  -8  -3  445.36   15.50
  -1  -8   3  444.26   15.60
  -1  -8   3  453.15   14.80
   1  -8  -3  444.56   15.20
   1  -8  -3  454.65   15.50
  -1   8   3  444.36   15.20
   1   8  -3  448.46   15.60
   1   8  -3  465.45   14.70
   0  -8   3   86.79    3.80
   0  -8  -3   87.99    4.60
   0  -8   3   83.39    4.60
   0  -8  -3   94.49    4.70
   0  -8  -3   85.09    4.30
   0   8  -3   83.59    4.60
   0   8   3   91.59    4.40
   0   8  -3   88.19    3.80
   1  -8   3   29.60    1.90
  -1  -8  -3   29.60    2.80
   1  -8   3   27.90    2.60
  -1  -8  -3   29.80    3.10
  -1   8  -3   29.20    2.10
   1   8   3   28.10    2.50
  -1   8  -3   22.00    2.60
  -2  -8  -3   24.20    2.80
   2  -8   3   22.10    2.60
  -2  -8  -3   25.30    3.00
  -2  -8  -3   24.10    2.80
   2  -8   3   22.70    1.80
  -2   8  -3   26.70    2.20
   2   8   3   25.40    2.50
  -2   8  -3   23.70    2.70
  -3  -8  -3  172.28    7.20
  -3  -8  -3  154.08    7.20
  -3  -8  -3  170.48    7.20
   3  -8   3  169.48    7.20
   3  -8   3  168.88    6.60
   3  -8   3  164.08    6.40
  -3   8  -3  175.78    7.10
   3   8   3  164.68    7.30
  -4  -8  -3   31.80    3.10
  -4  -8  -3   27.90    3.00
   4  -8   3   24.70    2.20
   4  -8   3   25.90    2.50
   4  -8   3   23.80    2.80
   4   8   3   20.70    2.90
  -4   8  -3   26.20    2.80
  -5  -8  -3  211.48    8.30
   5  -8   3  193.98    8.10
   5  -8   3  186.78    8.00
  -5  -8  -3  196.78    8.00
   5  -8   3  184.68    7.80
  -5   8  -3  201.08    7.90
   5   8   3  190.78    8.70
  -6  -8  -3   21.10    2.60
   6  -8   3   20.00    2.60
  -6  -8  -3   19.50    2.80
   6  -8   3   28.20    3.40
  -6   8  -3   28.30    2.90
   6   8   3   16.00    3.10
  -7  -8  -3   12.70    2.50
   7  -8   3   23.60    3.60
  -7  -8  -3   11.70    2.20
  -7   8  -3   16.60    2.20
   7   8   3   11.10    2.80
  -8  -8  -3   26.10    3.00
   8  -8   3   18.30    2.30
   8  -8   3   19.90    2.40
   8  -8   3   23.90    4.00
  -8  -8  -3   17.10    2.50
   8   8   3   24.90    4.00
   9  -8   3    0.90    1.20
  -9  -8  -3    1.60    1.60
   9  -8   3   -0.60    2.30
  -9  -8  -3    1.20    1.50
   9  -8   3    0.30    1.10
   9   8   3    0.60    2.50
 -10  -8  -3   65.49    3.70
  10  -8   3   68.39    6.00
  10   8   3   77.49    6.80
  11  -8   3   -4.30    1.90
  11   8   3    1.90    2.90
 -11  -9   3    1.70    1.60
  11  -9  -3    3.30    3.10
  11   9  -3    2.10    2.80
  10  -9  -3    3.40    3.00
 -10  -9   3   -0.70    1.70
  10  -9  -3    0.20    1.40
  10   9  -3    0.30    2.60
   9  -9  -3    0.10    1.50
  -9  -9   3    0.30    2.00
   9  -9  -3    2.00    2.40
  -9  -9   3    1.90    1.80
   9  -9  -3    3.10    1.60
   9   9  -3   -0.90    2.30
   8  -9  -3   -1.50    2.10
   8  -9  -3   -0.20    1.50
   8  -9  -3   -0.60    1.40
   8   9  -3    0.10    2.10
   7  -9  -3   31.60    4.20
   7  -9  -3   24.50    3.00
   7  -9  -3   31.80    3.10
   7   9  -3   37.70    4.40
   7   9  -3   37.50    3.50
   6  -9  -3   27.90    3.70
   6  -9  -3   21.50    2.90
   6  -9  -3   30.80    3.20
   6   9  -3   31.00    3.50
   6   9  -3   26.30    3.50
   5  -9  -3  108.09    6.60
   5  -9  -3  114.79    5.80
   5  -9  -3  108.89    5.70
   5   9  -3  121.39    6.10
   5   9  -3  116.89    5.90
   4  -9  -3    6.70    1.90
  -4  -9   3    8.50    2.30
  -4  -9   3    4.40    1.60
   4  -9  -3    3.60    1.70
   4   9  -3    7.10    2.10
   4   9  -3   10.90    2.10
  -4   9   3    7.60    2.20
  -3  -9   3    8.30    1.80
  -3  -9   3    8.60    2.10
   3  -9  -3   11.60    2.10
   3  -9  -3    9.70    2.00
   3  -9  -3   11.20    1.90
   3   9  -3   11.90    2.40
   3   9  -3   12.10    1.90
  -3   9   3   10.90    2.10
   2  -9  -3    6.90    1.70
   2  -9  -3    6.10    1.50
  -2  -9   3   11.50    1.80
  -2  -9   3    8.80    2.00
   2  -9  -3   11.20    2.10
  -2   9   3   10.80    2.00
   2   9  -3    8.00    2.10
   2   9  -3   11.40    1.80
  -1  -9   3   39.80    2.60
   1  -9  -3   39.60    3.20
   1  -9  -3   38.40    2.80
  -1  -9   3   34.30    3.10
   1  -9  -3   31.30    3.30
  -1   9   3   36.90    2.90
   1   9  -3   39.70    3.40
   1   9  -3   41.40    2.60
   0  -9   3   57.29    3.00
   0  -9  -3   56.79    3.50
   0  -9   3   49.90    3.70
   0  -9  -3   54.79    3.70
   0  -9  -3   50.39    3.80
   0   9   3   54.89    3.50
   0   9  -3   56.59    3.90
   0   9  -3   58.59    3.00
  -1  -9  -3  113.69    5.70
   1  -9   3  109.89    4.50
   1  -9   3  104.89    5.50
  -1  -9  -3  110.49    5.50
  -1  -9  -3  104.39    5.20
  -1   9  -3   99.99    4.50
   1   9   3  103.89    5.20
  -1   9  -3  104.69    5.50
  -2  -9  -3   50.19    3.50
   2  -9   3   50.89    2.80
   2  -9   3   42.20    3.40
  -2  -9  -3   44.50    3.70
  -2  -9  -3   42.70    3.40
  -2   9  -3   49.00    3.60
  -2   9  -3   45.80    3.00
   2   9   3   50.19    3.50
   3  -9   3    1.80    1.00
   3  -9   3    3.30    1.40
  -3  -9  -3   -2.30    1.50
   3  -9   3   -0.50    1.10
  -3  -9  -3    1.40    1.50
  -3   9  -3    2.80    1.50
   3   9   3    2.30    1.50
  -4  -9  -3  179.38    7.80
   4  -9   3  167.58    7.50
   4  -9   3  172.18    7.30
   4  -9   3  175.78    7.70
   4   9   3  178.58    8.00
  -4   9  -3  172.08    7.50
   5  -9   3   31.10    2.90
  -5  -9  -3   38.70    3.90
   5  -9   3   36.90    3.80
   5  -9   3   34.90    3.40
  -5   9  -3   42.50    3.30
   5   9   3   30.10    3.90
  -6  -9  -3   69.69    4.60
   6  -9   3   58.39    4.20
   6  -9   3   71.29    4.80
   6   9   3   72.99    5.30
  -6   9  -3   66.89    4.30
   7  -9   3   15.60    3.10
   7  -9   3    4.70    1.70
  -7  -9  -3    8.60    2.30
  -7   9  -3   10.90    2.10
   7   9   3   14.30    3.40
  -8  -9  -3   28.50    5.00
   8  -9   3   33.70    3.20
  -8  -9  -3   45.10    4.00
   8  -9   3   41.20    4.70
   8  -9   3   50.99    3.50
   8   9   3   44.50    5.40
  -9  -9  -3    3.10    1.80
   9  -9   3    7.70    3.30
   9  -9   3    9.00    1.90
  -9  -9  -3    8.90    2.30
   9   9   3   11.10    3.50
  10  -9   3   -2.10    2.30
  10  -9   3    0.30    1.20
 -10  -9  -3    0.10    1.70
  10   9   3   -4.50    1.90
 -11 -10   3   15.80    2.90
  11 -10  -3   30.10    5.70
  11  10  -3   20.80    4.50
  10 -10  -3    2.50    1.70
  10 -10  -3    2.00    2.90
 -10 -10   3    0.50    2.00
  10  10  -3   -4.10    2.40
  -9 -10   3    5.00    4.00
   9 -10  -3   16.80    4.10
   9 -10  -3   11.80    2.40
   9  10  -3   15.30    3.80
   8 -10  -3   44.10    5.30
   8 -10  -3   37.40    3.50
   8  10  -3   33.70    4.90
   7 -10  -3    4.40    2.00
   7 -10  -3    2.80    2.30
   7  10  -3    1.60    1.90
   7  10  -3    1.00    2.00
   6 -10  -3   15.50    3.10
   6 -10  -3   12.30    2.60
   6  10  -3   15.40    3.00
   6  10  -3   11.70    3.10
   5 -10  -3   10.20    2.30
   5 -10  -3   13.30    2.70
   5  10  -3   14.20    4.30
   4 -10  -3   -0.80    1.50
  -4 -10   3   -0.60    1.30
  -4  10   3   -0.10    1.60
   4  10  -3    1.80    1.60
   4  10  -3   -1.40    2.60
   3 -10  -3    5.20    1.90
  -3 -10   3    3.90    1.50
  -3  10   3    7.20    2.00
   3  10  -3    6.90    1.80
   3  10  -3    4.90    2.00
  -2 -10   3   18.30    2.30
   2 -10  -3   19.10    2.40
   2 -10  -3   18.10    2.70
   2  10  -3   23.20    2.50
   2  10  -3   17.40    2.70
  -2  10   3   26.30    3.00
   1 -10  -3   37.50    3.50
   1 -10  -3   35.50    2.80
  -1 -10   3   33.30    2.50
  -1  10   3   30.70    2.90
   1  10  -3   29.80    2.50
   1  10  -3   30.10    3.30
   0 -10  -3   31.20    2.80
   0 -10  -3   30.90    3.50
   0 -10   3   36.30    2.50
   0  10  -3   34.30    3.30
   0  10  -3   42.30    2.70
   0  10   3   37.70    3.10
   1 -10   3   65.19    3.40
  -1 -10  -3   59.09    4.30
  -1 -10  -3   59.29    4.00
  -1  10  -3   64.39    3.50
  -1  10  -3   53.69    4.10
   1  10   3   63.69    4.10
  -2 -10  -3  167.48    7.80
   2 -10   3  170.48    6.60
  -2  10  -3  167.68    7.60
   2  10   3  170.28    7.50
  -2  10  -3  172.08    6.90
   3 -10   3    3.60    1.30
  -3 -10  -3   -1.10    1.60
   3  10   3    1.50    3.00
  -3  10  -3    1.60    1.60
   4 -10   3   25.70    3.00
  -4 -10  -3   21.20    3.70
   4 -10   3   17.90    2.30
  -4  10  -3   18.70    2.80
   4  10   3   16.50    3.00
   5 -10   3   48.10    3.80
   5 -10   3   39.40    3.10
  -5  10  -3   40.20    3.70
   5  10   3   39.70    4.40
   6 -10   3   64.19    5.30
   6  10   3   76.19    5.60
  -6  10  -3   78.09    4.80
   7 -10   3    1.30    1.90
  -7 -10  -3   -0.40    2.40
   7  10   3   -1.30    2.10
   8 -10   3    2.80    1.80
   8 -10   3    0.80    2.10
   8  10   3   -1.10    2.40
   9 -10   3    8.40    2.10
  -9 -10  -3   13.10    3.10
   9 -10   3   14.20    3.60
   9  10   3   12.10    3.60
 -10 -10  -3   -0.70    1.80
  10 -10   3    1.50    1.40
  10  10   3   -0.90    2.70
  10 -11  -3   -2.30    2.60
 -10 -11   3   -0.60    2.30
  10  11  -3    0.60    2.70
  -9 -11   3   -2.70    2.00
   9 -11  -3    2.90    2.70
   9 -11  -3    1.70    1.80
   9  11  -3    3.80    4.50
  -8 -11   3   -3.10    1.90
   8 -11  -3   -1.20    2.50
   8 -11  -3    1.40    1.90
   8  11  -3    0.30    2.60
   7 -11  -3    2.50    2.30
   7 -11  -3    3.70    2.10
   7  11  -3    1.90    2.20
   7  11  -3    1.60    2.00
   6 -11  -3    2.60    2.00
   6 -11  -3    3.00    2.20
   6  11  -3    0.10    2.00
   6  11  -3    0.60    1.90
   5 -11  -3    5.10    2.20
   5  11  -3    4.10    2.20
   5  11  -3    6.90    2.40
   4 -11  -3    2.70    1.90
   4  11  -3   -1.40    1.90
   4  11  -3    2.70    1.70
  -4  11   3    4.80    2.20
   3 -11  -3   48.60    4.20
  -3 -11   3   50.29    3.70
  -3  11   3   44.60    4.30
   3  11  -3   47.40    4.20
   3  11  -3   49.90    3.60
  -2 -11   3    0.50    1.30
   2 -11  -3   -0.30    1.60
  -2  11   3    3.40    1.80
   2  11  -3    1.90    2.00
   2  11  -3    2.10    1.30
   1 -11  -3    3.10    1.90
  -1 -11   3    2.30    1.30
   1  11  -3   -1.40    1.50
   1  11  -3    2.40    1.30
  -1  11   3    0.70    1.40
   0 -11   3   23.70    2.30
   0 -11  -3   28.50    3.70
   0  11   3   31.10    3.30
   0  11  -3   30.10    3.40
   0  11  -3   34.80    2.70
   1 -11   3   13.30    2.00
  -1 -11  -3   13.60    2.80
  -1  11  -3   20.00    2.40
  -1  11  -3   14.20    2.70
   1  11   3   23.70    3.00
  -2 -11  -3    1.90    1.90
   2 -11   3    1.60    1.10
   2  11   3    1.40    1.70
  -2  11  -3    2.10    1.80
  -2  11  -3    1.40    1.30
  -3 -11  -3   44.90    4.60
   3  11   3   41.10    3.90
  -3  11  -3   40.70    3.90
  -4 -11  -3   25.50    3.60
   4 -11   3   23.30    2.70
   4 -11   3   30.70    3.30
   4  11   3   24.30    3.50
  -4  11  -3   24.30    3.30
  -5 -11  -3    7.30    2.70
   5 -11   3   14.90    2.70
  -5  11  -3   10.50    2.50
   5  11   3    7.20    2.60
  -6 -11  -3   24.60    3.50
   6 -11   3   19.60    3.30
   6  11   3   20.60    3.70
  -6  11  -3   19.90    3.00
  -7 -11  -3    2.20    2.20
   7 -11   3    2.70    2.10
   7  11   3    5.90    2.80
   8 -11   3   25.20    3.20
  -8 -11  -3   21.90    3.50
   8 -11   3   28.90    4.20
  -9 -11  -3    3.00    2.30
   9 -11   3    2.50    2.90
   9 -11   3   -2.10    1.40
   9  11   3   -0.80    2.50
  10 -11   3   18.70    4.10
 -10 -11  -3   16.50    3.20
  10 -11   3   20.00    2.70
  10  11   3   25.50    5.40
 -10 -12   3    2.60    2.70
  10 -12  -3    1.40    1.90
  10 -12  -3   -0.60    2.90
  10  12  -3    4.00    2.90
   9 -12  -3    3.90    3.20
  -9 -12   3   -1.80    2.60
   9 -12  -3    0.20    2.00
   9  12  -3   -3.40    2.60
   8 -12  -3    9.50    3.30
  -8 -12   3   -1.90    2.70
   8 -12  -3    3.40    2.10
   8  12  -3   12.80    3.30
   7 -12  -3    0.60    1.80
   7 -12  -3   -0.30    2.30
   7  12  -3    0.20    2.20
   7  12  -3   -0.90    2.20
   6 -12  -3   24.80    3.90
   6 -12  -3   21.30    3.40
   6  12  -3   24.10    3.60
   6  12  -3   20.20    3.60
   5 -12  -3    5.00    2.30
   5  12  -3    4.40    2.20
   5  12  -3    4.60    2.60
  -5  12   3    9.00    2.90
   4 -12  -3    8.20    2.60
   4  12  -3   13.20    2.80
  -4  12   3   10.70    2.80
   4  12  -3   10.80    2.40
   3 -12  -3   -1.30    1.90
  -3  12   3    0.80    1.80
   3  12  -3    0.10    1.40
   3  12  -3    0.80    2.00
  -2 -12   3    2.50    1.50
   2 -12  -3    1.00    2.20
   2  12  -3    4.90    1.70
   2  12  -3    1.50    2.00
  -2  12   3    3.10    1.90
  -1 -12   3    0.50    1.30
   1 -12  -3    0.80    2.00
   1  12  -3    1.00    1.30
   1  12  -3   -0.50    1.90
  -1  12   3   -1.80    2.50
   0 -12  -3    4.60    2.40
   0  12  -3    5.20    2.20
   0  12   3    4.00    2.10
   0  12  -3    6.50    1.70
  -1 -12  -3   15.00    3.00
  -1  12  -3   17.50    2.40
  -1  12  -3   17.70    3.00
   1  12   3   16.30    2.70
   2 -12   3    1.20    1.20
  -2 -12  -3   -3.80    1.90
  -2  12  -3    2.00    1.60
  -2  12  -3    2.80    2.10
   2  12   3    2.00    2.00
   3 -12   3   21.50    2.60
  -3 -12  -3   21.00    3.60
  -3  12  -3   26.00    3.20
  -3  12  -3   24.10    3.40
   3  12   3   30.80    3.70
  -4 -12  -3    8.70    2.90
   4 -12   3   15.00    2.60
   4 -12   3   12.50    2.40
  -4  12  -3   11.80    2.80
   4  12   3    7.40    2.50
  -5 -12  -3   58.09    5.30
  -5  12  -3   63.09    4.90
   5  12   3   53.09    5.00
  -6 -12  -3    2.60    2.30
   6 -12   3    4.20    2.10
  -6  12  -3    4.90    2.30
   6  12   3    1.50    2.30
  -7 -12  -3    4.30    2.70
   7 -12   3    3.20    2.40
   7  12   3    6.60    2.90
   8 -12   3    3.00    2.50
   8 -12   3    0.90    2.00
  -8 -12  -3    0.80    2.40
   8  12   3   -1.60    2.40
   9 -12   3    1.50    1.90
   9 -12   3    3.20    2.70
  -9 -12  -3    0.10    2.60
   9  12   3    4.40    3.20
   9 -13  -3   22.10    4.50
   9 -13  -3   26.00    3.80
  -9 -13   3   21.00    4.10
   9  13  -3   25.10    4.90
  -8 -13   3   23.30    4.30
   8 -13  -3   21.10    4.50
   8 -13  -3   26.30    3.80
   8  13  -3   26.50    4.40
   7 -13  -3   10.90    2.90
   7 -13  -3   16.40    3.60
   7  13  -3   12.80    3.20
   7  13  -3   10.80    3.00
   6 -13  -3    4.70    2.60
   6 -13  -3   16.40    3.50
   6  13  -3    2.20    2.70
   6  13  -3    5.30    2.50
   5 -13  -3  160.78    8.30
   5  13  -3  147.79    8.20
  -5  13   3  161.68    8.50
   5  13  -3  165.78    8.00
   4 -13  -3   -0.40    2.00
   4  13  -3    3.70    2.50
  -4  13   3    1.10    2.30
   4  13  -3    2.30    2.00
   3 -13  -3  219.28   10.10
   3  13  -3  208.88    9.90
   3  13  -3  216.28   10.40
  -3  13   3  214.38    9.60
   2 -13  -3    6.60    2.80
   2  13  -3   11.20    3.00
  -2  13   3   19.70    3.50
   2  13  -3   11.20    2.40
  -1 -13   3   78.19    4.70
   1 -13  -3   94.69    6.30
   1  13  -3   87.79    4.90
   1  13  -3   85.39    5.90
  -1  13   3   99.59    5.60
   0 -13   3   20.70    2.60
   0 -13  -3   22.50    3.60
   0  13   3   21.30    3.00
   0  13  -3   25.70    3.00
   0  13  -3   17.50    3.20
   1 -13   3    0.80    1.30
  -1 -13  -3    0.30    2.40
  -1  13  -3    1.10    1.70
  -1  13  -3    2.80    2.10
   1  13   3    1.10    1.90
  -2 -13  -3   69.89    5.50
   2 -13   3   61.29    3.90
   2  13   3   62.19    4.80
  -2  13  -3   60.29    5.00
  -2  13  -3   60.29    4.20
   3 -13   3   45.00    3.40
  -3 -13  -3   58.19    5.20
  -3  13  -3   46.20    5.00
  -3  13  -3   49.30    4.00
   3  13   3   41.70    4.50
   4 -13   3   17.80    3.00
  -4 -13  -3    5.00    2.90
   4  13   3   12.40    3.00
  -4  13  -3    8.10    2.60
   5 -13   3   31.70    4.00
  -5 -13  -3   33.10    4.60
  -5  13  -3   25.50    3.70
   5  13   3   31.80    4.50
  -6 -13  -3   15.60    3.50
   6 -13   3   12.70    3.00
   6  13   3   18.80    3.70
  -6  13  -3   12.60    3.10
  -7 -13  -3   41.40    5.00
   7 -13   3   45.20    5.00
   7 -13   3   52.79    4.80
   8 -13   3   39.60    4.40
  -8 -13  -3   35.40    4.80
   8 -13   3   41.00    5.10
   8  13   3   33.10    5.20
   9 -13   3   20.40    3.30
   9 -13   3   18.10    4.00
  -9 -13  -3   14.50    3.70
   9  13   3   18.10    4.30
  -9 -14   3   -0.20    3.00
   9 -14  -3   -0.50    2.20
   9 -14  -3    2.20    3.00
   9  14  -3    3.90    3.10
   8 -14  -3   35.50    5.60
  -8 -14   3   36.20    5.20
   8 -14  -3   31.00    4.20
   8  14  -3   31.90    4.70
   7 -14  -3    0.70    2.20
   7 -14  -3    0.90    2.60
   7  14  -3   -0.90    2.50
   6 -14  -3   31.10    4.40
   6 -14  -3   29.40    4.50
   6  14  -3   31.20    4.20
   6  14  -3   26.20    4.40
   5 -14  -3    7.30    2.70
   5  14  -3    3.90    2.80
  -5  14   3    5.30    3.00
   5  14  -3    4.10    2.40
   4 -14  -3    6.60    2.90
  -4  14   3    8.70    3.00
   4  14  -3    6.10    2.50
   4  14  -3    6.30    3.00
   3 -14  -3   14.60    3.50
  -3  14   3   14.10    3.20
   3  14  -3   15.50    3.50
   3  14  -3   17.80    3.00
   2 -14  -3    0.10    2.30
   2  14  -3    0.70    2.40
   2  14  -3   -0.30    1.90
  -2  14   3    3.30    2.20
   1 -14  -3  109.69    7.00
   1  14  -3   99.89    6.70
   1  14  -3  102.39    5.50
  -1  14   3  103.89    6.10
   0 -14  -3    0.60    2.40
   0  14   3    4.30    2.30
   0  14  -3    4.40    2.50
   0  14  -3    0.70    1.70
  -1 -14  -3    0.70    2.30
   1 -14   3    1.00    1.60
  -1  14  -3    0.90    2.20
   1  14   3    4.70    2.50
  -1  14  -3    4.50    2.10
  -2 -14  -3    0.90    2.60
  -2  14  -3    2.60    2.50
   2  14   3    3.70    2.40
  -2  14  -3    6.00    2.20
  -3 -14  -3    2.70    3.00
  -3  14  -3   12.80    3.20
  -3  14  -3    9.60    2.50
   3  14   3    7.00    2.60
  -4 -14  -3    4.90    3.10
   4 -14   3   12.00    2.90
   4  14   3    5.50    2.60
  -4  14  -3    3.20    2.60
   5 -14   3    3.80    2.70
  -5 -14  -3    5.60    3.20
  -5  14  -3    8.80    3.00
   5  14   3    2.60    2.50
   6 -14   3   18.40    3.60
  -6 -14  -3   15.20    3.70
  -6  14  -3   12.00    3.20
   6  14   3   16.60    3.60
   7 -14   3    5.20    2.60
   7 -14   3    5.00    2.60
  -7 -14  -3    0.80    2.80
   7  14   3   -0.20    2.60
   8 -14   3   -1.30    2.20
   8 -14   3    0.50    2.40
  -8 -14  -3    1.80    2.80
   8  14   3    2.90    2.90
   8 -15  -3    2.50    2.50
  -8 -15   3   -1.80    2.80
   8 -15  -3    5.00    3.20
   8  15  -3    5.00    3.40
   7 -15  -3   46.00    7.10
  -7 -15   3   49.60    6.10
   7 -15  -3   46.50    5.30
   7  15  -3   69.09    6.00
   6 -15  -3    6.00    2.90
   6 -15  -3    5.80    2.80
   6  15  -3   11.00    3.40
   6  15  -3    8.40    3.40
   5 -15  -3  168.78    9.30
  -5  15   3  173.88    9.30
   5  15  -3  177.68    8.60
   5  15  -3  152.18    9.10
   4 -15  -3    0.00    2.70
   4  15  -3    1.80    2.70
  -4  15   3    1.30    2.70
   4  15  -3    2.80    2.30
   3 -15  -3  139.89    8.30
  -3  15   3  125.69    7.50
   3  15  -3  132.39    6.90
   3  15  -3  132.89    8.00
   2 -15  -3   -0.30    2.60
   2  15  -3    3.00    2.00
   2  15  -3    2.70    2.70
  -2  15   3    3.10    2.80
   1 -15  -3  185.28   10.10
   1  15  -3  196.08   10.00
   1  15  -3  196.18    9.50
  -1  15   3  199.98    9.40
   0 -15  -3   55.69    6.00
   0  15   3   52.39    4.80
   0  15  -3   57.49    5.40
   0  15  -3   51.59    4.30
  -1 -15  -3   81.59    6.70
   1  15   3   75.29    5.60
  -1  15  -3   84.89    6.40
  -1  15  -3   89.69    5.20
  -2 -15  -3   24.90    4.50
  -2  15  -3   26.20    4.10
  -2  15  -3   29.20    3.70
   2  15   3   35.60    4.30
  -3 -15  -3   -2.50    2.70
  -3  15  -3   -1.20    2.20
  -3  15  -3   -0.30    2.40
   3  15   3   -1.40    2.00
  -4 -15  -3   57.99    6.50
   4 -15   3   76.19    5.30
   4  15   3   74.09    5.90
  -4  15  -3   72.19    6.00
  -5 -15  -3    4.20    3.30
   5 -15   3    4.80    2.50
   5  15   3    6.00    3.00
  -5  15  -3    6.20    2.80
   6 -15   3   18.60    4.00
  -6 -15  -3   17.70    4.30
   6 -15   3   18.70    3.50
   6  15   3   29.60    4.70
  -7 -15  -3   26.00    4.90
   7 -15   3   28.60    4.30
   7 -15   3   33.20    4.70
   7  15   3   27.50    4.80
   7 -16  -3    2.00    2.60
   7 -16  -3    0.10    2.60
  -7 -16   3    0.20    3.10
   7  16  -3    2.10    3.00
   6 -16  -3   49.00    5.80
   6  16  -3   45.30    5.20
   5 -16  -3    1.10    3.20
  -5  16   3    0.60    2.60
   5  16  -3    0.10    2.30
   5  16  -3    2.00    3.90
   4 -16  -3   45.50    5.50
   4  16  -3   51.99    4.90
  -4  16   3   55.59    6.00
   4  16  -3   47.50    7.20
   3 -16  -3   21.40    4.10
   3  16  -3   15.90    3.10
  -3  16   3   15.10    3.70
   3  16  -3   18.90    4.00
   2 -16  -3   24.80    4.60
   2  16  -3   21.80    4.40
   2  16  -3   27.90    3.50
  -2  16   3   18.00    3.70
   1 -16  -3  180.08    9.90
   1  16  -3  167.08    9.40
  -1  16   3  160.48    8.60
   1  16  -3  159.68    7.80
   0 -16  -3   42.90    5.70
   0  16  -3   74.49    6.30
   0  16   3   68.19    5.50
   0  16  -3   55.29    4.70
  -1 -16  -3   54.29    6.20
  -1  16  -3   51.79    5.80
   1  16   3   59.89    5.10
  -1  16  -3   53.39    4.60
  -2 -16  -3    5.80    3.40
   2  16   3    5.00    2.60
  -2  16  -3    6.40    3.30
  -2  16  -3    2.80    2.30
  -3 -16  -3   17.30    4.20
  -3  16  -3   14.00    3.10
   3  16   3    9.60    3.20
  -3  16  -3   11.90    3.70
  -4 -16  -3    7.60    6.00
   4 -16   3   17.70    3.30
  -4  16  -3   15.50    3.80
   4  16   3   10.20    3.20
  -5 -16  -3   42.50    7.70
   5 -16   3   50.89    4.80
   5  16   3   39.50    5.50
  -5  16  -3   38.90    6.20
  -6 -16  -3    6.90    3.50
   6 -16   3    6.50    3.50
   6 -16   3    7.10    2.80
   6  16   3   14.40    3.80
   6 -17  -3   13.10    3.60
   6 -17  -3    6.10    3.20
  -6 -17   3    9.40    4.00
   5 -17  -3   65.29    6.40
   5  17  -3   76.99    6.00
   5  17  -3   53.29    6.30
   4 -17  -3    2.50    3.10
   4  17  -3    1.20    2.30
  -4  17   3    0.20    2.90
   4  17  -3   -2.50    3.10
   3 -17  -3   10.50    3.60
   3  17  -3    6.90    2.70
  -3  17   3   15.60    3.80
   3  17  -3    0.00    2.70
   2 -17  -3   16.30    4.10
   2  17  -3   13.90    3.80
  -2  17   3   12.10    3.40
   2  17  -3   16.40    3.00
   1 -17  -3   51.29    6.50
  -1  17   3   54.49    5.80
   1  17  -3   52.89    6.10
   1  17  -3   63.59    4.80
   0 -17  -3   11.70    3.70
   0  17   3    7.20    2.90
   0  17  -3   10.00    3.50
   0  17  -3   14.40    3.10
  -1 -17  -3   14.90    4.10
   1  17   3   10.60    3.20
  -1  17  -3   10.20    2.70
  -1  17  -3   12.20    3.70
  -2 -17  -3   14.50    4.30
  -2  17  -3   18.90    3.40
   2  17   3   17.10    3.70
  -2  17  -3    6.80    3.30
  -3 -17  -3    6.70    3.70
  -3  17  -3   15.10    4.10
   3  17   3    9.00    3.20
   4 -17   3    0.50    2.40
  -4 -17  -3   -5.30    2.90
  -4  17  -3   -0.60    2.70
   4  17   3   -1.60    2.50
  -5 -17  -3    3.10    3.60
   5 -17   3    7.50    2.90
   5 -17   3    2.70    3.10
   5  17   3    1.90    2.80
   5 -18  -3    1.10    3.00
   5 -18  -3    1.70    2.70
  -5 -18   3    5.90    4.20
   5  18  -3    1.70    2.90
   4 -18  -3   26.60    4.90
  -4  18   3   27.90    7.40
   4  18  -3   33.90    4.50
   4  18  -3   27.70    5.10
   3 -18  -3   -1.10    3.10
   3  18  -3    3.30    2.60
   3  18  -3    6.90    3.90
  -3  18   3   -0.30    3.00
   2 -18  -3   22.40    4.80
  -2  18   3   16.40    4.10
   2  18  -3   19.80    3.50
   2  18  -3   24.70    4.70
   1 -18  -3   83.19    7.60
   1  18  -3   52.39    5.00
  -1  18   3   76.99    6.30
   1  18  -3   74.09    7.00
   0 -18  -3   52.19    6.90
   0  18   3   54.79    5.90
   0  18  -3   49.90    6.30
   0  18  -3   45.30    4.80
  -1 -18  -3   13.50    4.40
   1  18   3   19.20    3.90
  -1  18  -3   12.90    3.10
  -1  18  -3   14.30    4.10
  -2 -18  -3   32.90    5.50
  -2  18  -3   15.90    3.50
   2  18   3   32.90    7.20
  -2  18  -3   14.90    4.10
  -3 -18  -3   47.20    6.70
  -3  18  -3   43.20    5.90
   3  18   3   35.80    4.80
   4 -18   3    4.80    2.70
  -4 -18  -3    8.70    4.20
   4 -18   3    7.00    4.00
   4  18   3    8.30    3.70
   3 -19  -3    6.70    3.70
  -3 -19   3    4.40    3.80
   2 -19  -3    0.30    3.20
  -2  19   3    1.30    3.20
   2  19  -3   -1.20    2.40
   2  19  -3   -3.50    3.30
   1 -19  -3    7.70    4.00
   1  19  -3    5.60    3.90
   1  19  -3    2.50    2.70
  -1  19   3    6.20    4.20
   0 -19  -3   -1.30    3.50
   0  19   3    1.20    3.30
   0  19  -3    4.20    3.70
   0  19  -3    0.50    2.50
  -1 -19  -3    1.00    3.70
  -1  19  -3    4.60    3.70
  -1  19  -3    0.80    2.50
   1  19   3    1.60    2.80
  -2 -19  -3    4.80    3.90
  -2  19  -3    5.20    2.70
  -2  19  -3    5.20    3.50
   2  19   3   -0.70    2.80
  12   0  -4    7.50    3.20
  10   0  -4   12.40    3.80
   9   0  -4  219.18   10.40
   8   0  -4    4.50    2.20
  -6   0   4   37.40    1.70
   6   0  -4   31.20    3.10
  -6   0   4   35.10    2.90
   6   0  -4   38.50    1.80
   5   0  -4   31.80    2.80
  -5   0   4   36.10    1.80
   5   0  -4   35.90    1.90
  -5   0   4   35.50    2.60
   4   0  -4  283.67    9.10
  -4   0   4  273.27    9.00
   4   0  -4  269.47    9.90
  -4   0   4  278.07    9.80
  -3   0   4  369.46   12.10
   3   0  -4  377.86   12.50
  -3   0   4  384.96   12.50
   3   0  -4  386.36   12.10
   2   0  -4   29.30    1.90
  -2   0   4   30.20    1.80
   2   0  -4   29.70    1.80
   1   0  -4  559.94   17.00
  -1   0   4  561.04   17.30
  -1   0   4  552.14   17.10
   1   0  -4  547.85   17.30
   0   0   4 2901.41  114.29
   0   0   4 2682.33   87.89
   0   0  -4 2663.83   87.79
   0   0  -4 2867.81  115.79
  -1   0  -4  183.58    6.30
  -1   0  -4  187.78    6.40
   1   0   4  194.28    6.30
   1   0   4  185.08    6.40
  -2   0  -4 1193.98   36.60
   2   0   4 1212.78   36.40
  -2   0  -4 1194.28   36.40
   3   0   4  526.65   16.00
  -3   0  -4  517.05   16.10
  -3   0  -4  501.15   16.60
   3   0   4  507.55   16.60
   4   0   4 1313.77   40.50
  -4   0  -4 1310.27   39.40
   4   0   4 1320.37   39.30
  -4   0  -4 1261.67   40.40
  -5   0  -4   72.29    4.50
   5   0   4   79.29    4.40
   5   0   4   75.39    2.90
  -5   0  -4   82.29    3.10
   6   0   4  514.45   17.80
  -6   0  -4  480.35   19.00
  -6   0  -4  517.35   15.40
   7   0   4  302.67   12.10
   8   0   4  261.97   11.40
   9   0   4   85.19    6.20
  10   0   4   67.89    5.90
  11   0   4  125.09    8.30
  12   0   4   -0.20    2.30
  12  -1  -4   88.39    7.50
  12   1  -4   95.79    7.70
  10  -1  -4  100.69    6.90
  10   1  -4   86.99    6.80
   9  -1  -4   74.69    5.80
   9   1  -4   79.49    6.00
   8  -1  -4    2.80    1.90
   8   1  -4    3.00    2.10
   7  -1  -4   41.60    5.00
   7   1  -4   39.10    1.70
  -6  -1   4    7.90    1.00
   6  -1  -4    9.10    2.10
   6  -1  -4    5.50    0.90
  -6  -1   4    2.60    1.40
  -6   1   4    7.50    0.90
  -6   1   4    7.20    1.70
   6   1  -4    4.30    1.70
   6   1  -4    7.40    1.00
   5  -1  -4  892.51   27.50
  -5  -1   4  925.01   27.80
  -5  -1   4  870.21   28.60
   5  -1  -4  908.01   28.90
  -5   1   4  925.71   27.40
   5   1  -4  902.31   28.90
   5   1  -4  885.11   27.40
  -5   1   4  876.91   29.20
   4  -1  -4   53.09    2.50
  -4  -1   4   50.29    3.00
   4  -1  -4   55.29    3.20
  -4   1   4   55.29    3.30
  -4   1   4   56.49    3.00
   4   1  -4   53.29    3.10
   4   1  -4   53.49    2.50
   3  -1  -4   16.60    1.40
  -3  -1   4   17.50    1.60
   3  -1  -4   17.60    1.70
   3  -1  -4   19.70    1.70
   3   1  -4   20.40    1.50
   3   1  -4   17.90    1.70
   2  -1  -4    1.00    0.70
   2  -1  -4    2.80    0.90
  -2  -1   4    2.00    0.90
   2   1  -4    0.80    0.90
  -2   1   4    1.80    0.90
   2   1  -4    0.60    0.80
   1  -1  -4  427.86   13.00
   1  -1  -4  395.06   12.90
   1   1  -4  410.46   12.50
  -1   1   4  397.16   12.80
   1   1  -4  405.16   13.00
   1   1  -4  403.56   12.50
   0  -1  -4  344.07   11.20
   0  -1   4  360.26   10.80
   0  -1  -4  355.36   11.40
   0   1  -4  367.36   10.90
   0   1  -4  358.96   11.50
   0   1   4  354.86   11.20
   1  -1   4   99.19    3.50
  -1  -1  -4   97.19    3.80
  -1  -1  -4  107.49    4.10
  -1   1  -4  100.39    3.50
  -1   1  -4   98.19    3.90
   1   1   4  101.29    3.80
   2  -1   4  134.49    4.90
  -2  -1  -4  131.89    4.80
  -2  -1  -4  130.49    5.10
  -2   1  -4  133.79    4.80
  -2   1  -4  127.39    4.80
   2   1   4  132.49    5.10
  -3  -1  -4  226.08    7.70
   3  -1   4  239.08    8.00
   3  -1   4  227.68    8.10
  -3  -1  -4  226.78    8.30
   3   1   4  228.28    8.30
  -3   1  -4  228.38    8.10
  -3   1  -4  225.98    7.70
  -4  -1  -4  131.89    5.70
   4  -1   4  126.29    5.60
   4  -1   4  129.39    4.70
  -4  -1  -4  131.99    4.80
   4   1   4  135.99    5.80
  -4   1  -4  127.99    5.40
   4   1   4  129.09    4.90
  -4   1  -4  132.09    4.70
  -5  -1  -4    3.30    0.80
   5  -1   4    5.70    1.80
   5  -1   4    4.00    0.80
  -5  -1  -4    2.70    1.20
  -5   1  -4    3.40    1.50
   5   1   4    5.00    1.70
  -5   1  -4    3.80    0.80
   5   1   4    5.10    0.80
  -6  -1  -4   24.80    1.30
   6  -1   4   21.50    1.30
   6  -1   4   33.80    3.50
  -6  -1  -4   24.00    1.40
   6   1   4   32.10    3.40
  -6   1  -4   28.80    2.60
  -6   1  -4   25.20    1.30
   7  -1   4  187.48    8.70
   7   1   4  202.08    8.90
   8  -1   4  145.69    7.70
   8   1   4  146.79    7.80
   9  -1   4   21.50    4.00
   9   1   4   23.50    4.00
  10  -1   4   94.49    6.80
  10   1   4   98.19    7.00
  11  -1   4   20.00    4.30
  11   1   4   20.30    4.40
  12  -1   4    6.30    3.20
  12   1   4    6.10    3.00
  12  -2  -4   11.70    3.70
  12   2  -4   13.20    3.90
  11  -2  -4   97.99    9.20
  11   2  -4   79.09    9.80
  10  -2  -4    0.00    2.60
  10   2  -4   -1.60    2.30
   9  -2  -4  157.48    8.60
   9   2  -4  164.48    8.80
   8  -2  -4    2.30    2.10
   8   2  -4    4.00    2.30
   7  -2  -4  101.99    5.80
  -7  -2   4   99.39    3.70
   7  -2  -4   97.49    3.60
   7  -2  -4   99.09    3.60
   7   2  -4  114.09    8.90
   7   2  -4  106.29    3.80
   6  -2  -4   15.60    1.40
  -6  -2   4   15.90    1.60
  -6  -2   4   16.90    2.50
   6  -2  -4   11.10    2.20
  -6   2   4   10.10    1.80
   6   2  -4   14.60    2.60
   6   2  -4   15.10    1.40
  -5  -2   4  173.48    6.10
   5  -2  -4  175.28    7.20
   5  -2  -4  169.78    6.10
  -5  -2   4  171.88    7.10
  -5   2   4  171.78    6.00
   5   2  -4  174.38    7.30
   4  -2  -4   94.39    4.50
  -4  -2   4   96.09    4.40
  -4  -2   4   95.19    3.90
   4  -2  -4  101.49    4.50
  -4   2   4   93.99    3.70
   4   2  -4   95.69    4.50
  -3  -2   4  199.98    7.10
   3  -2  -4  195.18    7.20
  -3  -2   4  194.98    6.90
   3  -2  -4  197.28    7.20
   3   2  -4  191.38    7.10
  -3   2   4  203.68    6.80
  -2  -2   4    9.50    1.30
   2  -2  -4    5.60    1.10
  -2   2   4    5.80    1.10
  -2   2   4    6.00    1.10
   2   2  -4   11.30    1.30
  -1  -2   4   76.69    3.40
   1  -2  -4   80.99    3.20
  -1  -2   4   79.39    2.80
   1   2  -4   79.39    2.80
  -1   2   4   74.09    3.20
   0  -2   4   21.00    1.70
   0  -2  -4   23.40    1.50
   0   2   4   21.60    1.60
   0   2   4   20.60    1.60
  -1  -2  -4   69.49    3.10
   1  -2   4   69.59    2.50
   1  -2   4   74.59    3.10
   1   2   4   70.19    3.10
  -1   2  -4   70.49    2.50
   1   2   4   66.69    3.00
  -2  -2  -4    2.70    1.00
   2  -2   4    1.50    0.70
   2  -2   4    2.60    0.80
   2   2   4    1.20    0.70
   2   2   4    2.50    0.90
  -3  -2  -4  608.84   20.00
   3  -2   4  611.64   19.30
   3  -2   4  629.14   19.60
  -3   2  -4  612.44   19.50
   3   2   4  607.44   19.10
   3   2   4  623.24   20.00
  -3   2  -4  620.04   19.60
  -4  -2  -4  596.44   20.40
   4  -2   4  625.84   20.20
   4  -2   4  624.44   19.40
  -4   2  -4  629.24   19.40
   4   2   4  635.94   20.50
  -4   2  -4  610.64   20.00
   4   2   4  627.44   19.30
  -5  -2  -4  121.99    4.50
  -5  -2  -4  112.89    5.60
   5  -2   4  123.79    5.60
   5   2   4  114.99    5.70
  -5   2  -4  110.09    5.20
  -5   2  -4  119.59    4.30
  -6  -2  -4   55.09    2.50
  -6  -2  -4   55.79    2.60
   6  -2   4   56.19    3.90
   6  -2   4   57.09    2.40
  -6   2  -4   55.19    2.30
  -6   2  -4   52.89    3.50
   6   2   4   52.89    4.00
   7  -2   4  141.89    7.50
   7   2   4  156.58    7.60
   8  -2   4   49.60    4.50
   8   2   4   53.49    4.80
   9  -2   4  172.18    8.90
   9   2   4  165.18    9.00
  10  -2   4    3.30    2.70
  10   2   4    3.10    2.40
  11  -2   4   34.10    5.60
  11   2   4   32.50    5.20
  12  -2   4    0.90    2.60
  12   2   4   -2.70    2.20
  12  -3  -4   24.40    4.90
  12   3  -4   16.90    4.30
  11  -3  -4    3.70    2.60
  11   3  -4    0.00    2.50
  10  -3  -4  118.99    7.70
  10   3  -4  108.09    7.50
   9  -3  -4   13.90    3.40
   9   3  -4   14.30    3.30
  -8  -3   4  308.87    9.80
   8   3  -4  302.07   12.70
   7  -3  -4    8.80    1.20
   7  -3  -4    9.20    2.50
  -7  -3   4   14.20    1.50
   7   3  -4    9.60    1.60
   7   3  -4   12.50    2.60
   6  -3  -4  386.96   12.60
   6  -3  -4  383.16   14.20
   6  -3  -4  391.56   12.70
  -6  -3   4  369.46   14.00
  -6  -3   4  393.46   12.80
   6   3  -4  410.76   14.40
   6   3  -4  398.56   12.70
  -5  -3   4  266.67   10.40
   5  -3  -4  250.77    9.80
   5  -3  -4  250.47    9.80
  -5  -3   4  263.27    8.90
   5  -3  -4  250.77    8.80
   5   3  -4  270.17   10.00
   5   3  -4  262.47    8.90
  -4  -3   4  237.48    8.70
  -4  -3   4  242.18    8.30
   4  -3  -4  226.78    8.70
   4  -3  -4  231.98    8.80
   4  -3  -4  237.38    8.10
   4   3  -4  242.78    8.80
   4   3  -4  238.08    8.20
  -4   3   4  231.38    8.00
  -3  -3   4  227.48    8.00
  -3  -3   4  230.68    8.10
   3  -3  -4  232.68    8.30
   3  -3  -4  232.38    7.90
   3   3  -4  231.48    8.20
  -3   3   4  226.68    8.40
  -3   3   4  232.48    7.90
   3   3  -4  226.38    8.00
  -2  -3   4 3082.89   92.59
   2  -3  -4 3089.49   92.49
  -2  -3   4 3065.39   92.29
   2   3  -4 3117.69   92.59
  -2   3   4 3066.79   92.39
  -1  -3   4  685.43   21.70
   1  -3  -4  678.43   21.50
  -1  -3   4  683.23   20.90
   1  -3  -4  702.03   21.50
   1   3  -4  697.73   21.70
  -1   3   4  681.13   21.50
   1   3  -4  702.93   21.00
  -1   3   4  695.93   21.50
   0  -3  -4   35.00    1.90
   0  -3   4   36.90    2.20
   0  -3  -4   29.20    2.00
   0   3   4   30.80    2.00
   0   3  -4   33.50    2.20
   0   3   4   31.80    1.90
  -1  -3  -4   72.29    3.30
   1  -3   4   76.29    2.60
   1  -3   4   69.99    3.30
  -1  -3  -4   70.49    3.20
   1  -3   4   74.39    2.60
   1   3   4   70.59    3.20
  -1   3  -4   70.19    3.30
   1   3   4   70.09    3.20
  -2  -3  -4  120.19    4.70
   2  -3   4  127.39    4.50
  -2  -3  -4  122.19    5.00
   2  -3   4  121.99    4.80
   2   3   4  119.99    5.00
   2   3   4  123.79    4.70
  -2   3  -4  122.09    4.80
  -2   3  -4  124.79    4.90
  -3  -3  -4  766.92   24.50
  -3  -3  -4  746.13   23.70
   3  -3   4  771.32   23.90
   3  -3   4  771.42   23.80
   3   3   4  763.22   23.70
  -3   3  -4  773.32   23.80
  -3   3  -4  752.52   23.80
   3   3   4  760.12   24.40
   4  -3   4    1.50    0.80
  -4  -3  -4    2.20    1.20
   4  -3   4    1.40    1.00
  -4  -3  -4    1.80    0.90
   4   3   4    0.80    1.00
  -4   3  -4    1.80    0.90
  -4   3  -4    1.00    0.80
  -5  -3  -4   52.19    3.70
  -5  -3  -4   60.29    2.80
   5  -3   4   58.39    3.60
   5  -3   4   58.99    2.80
  -5  -3  -4   60.59    2.90
   5   3   4   58.29    3.90
  -5   3  -4   56.89    2.70
  -5   3  -4   54.29    3.30
  -6  -3  -4  104.89    4.10
   6  -3   4  102.79    4.10
  -6  -3  -4  102.19    4.30
   6  -3   4  108.79    5.60
  -6   3  -4  109.79    4.10
   6   3   4  108.89    5.90
  -6   3  -4   96.19    5.00
  -7  -3  -4   19.10    1.60
   7  -3   4   20.60    3.70
   7  -3   4   22.30    1.40
   7   3   4   21.80    3.20
   8  -3   4  292.57   12.20
   8   3   4  287.47   12.40
   9  -3   4   20.70    3.60
   9   3   4   20.90    4.00
  10  -3   4  121.49    7.70
  10   3   4  117.69    7.80
  11  -3   4    4.80    3.10
  11   3   4    5.40    3.10
  12  -3   4   48.10    6.70
  12   3   4   42.00    5.80
  12  -4  -4   29.10    5.10
  12   4  -4   31.00    5.40
  11  -4  -4   59.19    6.90
  11   4  -4   59.89    6.70
  10  -4  -4    3.50    2.60
  10   4  -4   -0.60    2.60
   9  -4  -4   -1.10    2.20
   9   4  -4    2.30    2.30
   8  -4  -4  192.48    7.50
   8  -4  -4  205.08    9.70
  -8  -4   4  212.18    7.30
   8   4  -4  207.48    7.20
   8   4  -4  215.48    9.80
   7  -4  -4   40.20    3.90
  -7  -4   4   39.80    2.50
   7  -4  -4   38.60    2.30
   7  -4  -4   36.30    2.30
   7   4  -4   39.60    2.50
   7   4  -4   44.40    4.00
   6  -4  -4   31.90    2.30
  -6  -4   4   32.80    2.30
   6  -4  -4   31.10    3.60
  -6  -4   4   32.40    3.80
   6  -4  -4   31.10    2.20
   6   4  -4   36.70    2.40
   6   4  -4   28.60    3.30
  -5  -4   4    9.70    1.50
   5  -4  -4    9.10    1.70
   5  -4  -4    7.00    1.20
   5  -4  -4   13.10    2.30
   5  -4  -4   10.40    1.50
   5   4  -4    8.70    1.90
   5   4  -4   11.40    1.70
   4  -4  -4   53.89    3.30
   4  -4  -4   54.29    3.20
   4  -4  -4   49.40    2.80
  -4  -4   4   47.40    3.00
  -4  -4   4   47.80    2.80
   4  -4  -4   52.99    2.80
   4   4  -4   51.09    3.20
   4   4  -4   47.30    2.80
  -3  -4   4   29.80    2.20
   3  -4  -4   36.00    2.20
   3  -4  -4   38.20    2.40
  -3  -4   4   33.70    2.30
  -3   4   4   34.80    2.20
  -3   4   4   34.80    2.50
   3   4  -4   31.10    2.30
   3   4  -4   31.90    2.30
  -2  -4   4  527.35   16.50
  -2  -4   4  519.55   16.90
   2  -4  -4  520.35   16.70
   2  -4  -4  532.55   16.80
  -2   4   4  513.85   16.70
   2   4  -4  524.85   16.90
  -2   4   4  511.65   16.80
   1  -4  -4  382.76   12.40
  -1  -4   4  376.96   12.70
  -1  -4   4  376.16   11.90
   1  -4  -4  375.26   12.50
   1   4  -4  386.26   11.90
   1   4  -4  379.46   12.70
  -1   4   4  379.56   12.50
  -1   4   4  382.56   12.50
   0  -4  -4  245.58    8.80
   0  -4   4  261.77    7.80
   0  -4   4  251.37    8.90
   0   4   4  253.57    8.80
   0   4  -4  251.47    7.80
   0   4   4  248.18    8.70
   0   4  -4  263.67    9.00
   1  -4   4    7.20    1.30
   1  -4   4    7.90    0.70
  -1  -4  -4    6.90    1.20
  -1  -4  -4    7.50    1.30
   1  -4   4    6.90    0.80
  -1   4  -4    7.10    1.30
   1   4   4    5.50    1.20
   1   4   4    6.40    1.20
   2  -4   4   10.90    1.60
  -2  -4  -4   10.20    1.50
   2  -4   4   12.30    1.30
  -2  -4  -4   10.70    1.50
   2   4   4   12.10    1.40
   2   4   4    8.30    1.50
  -2   4  -4    9.10    1.40
  -3  -4  -4    7.50    1.30
   3  -4   4    7.90    1.30
  -3  -4  -4    5.60    1.40
   3  -4   4    7.60    1.30
  -3  -4  -4    6.00    1.30
  -3   4  -4    6.70    1.10
   3   4   4    7.10    1.60
  -3   4  -4    7.80    1.40
  -4  -4  -4   19.40    2.40
  -4  -4  -4   17.50    1.70
   4  -4   4   23.60    2.50
  -4  -4  -4   21.90    2.10
   4  -4   4   20.80    2.00
  -4   4  -4   20.20    2.00
  -4   4  -4   20.90    2.10
   4   4   4   18.10    2.30
   5  -4   4    2.40    0.90
  -5  -4  -4    0.40    1.20
  -5  -4  -4   -0.20    0.70
  -5  -4  -4    0.60    1.00
   5  -4   4    1.40    1.20
  -5   4  -4   -0.10    0.80
   5   4   4    0.90    1.20
  -5   4  -4    1.50    0.80
   6  -4   4    1.90    1.40
   6  -4   4    0.40    0.80
  -6  -4  -4   -0.30    0.90
  -6  -4  -4   -0.70    0.70
  -6   4  -4   -0.30    0.70
   6   4   4    1.90    1.60
  -6   4  -4    0.40    1.00
  -7  -4  -4   20.80    1.90
   7  -4   4   16.70    1.60
  -7  -4  -4   19.40    1.70
   7  -4   4   25.80    4.10
   7   4   4   19.80    3.20
   8  -4   4    4.30    2.20
  -8  -4  -4    7.20    1.10
   8   4   4   10.10    2.80
   9  -4   4    4.50    2.40
   9   4   4    1.50    2.40
  10  -4   4    2.40    2.50
  10   4   4    3.60    2.80
  11  -4   4    8.30    3.00
  11   4   4   11.60    3.60
  12  -4   4   -1.20    2.40
  12   4   4   -4.10    2.20
  12  -5  -4    0.70    2.70
  12   5  -4    2.90    3.20
  11  -5  -4    0.40    2.70
  11   5  -4    0.50    2.80
  10  -5  -4   48.20    6.20
  10   5  -4   46.30    5.70
  -9  -5   4   29.30    2.30
   9  -5  -4   28.90    4.30
  -9  -5   4   24.20    2.10
   9  -5  -4   26.90    1.90
   9   5  -4   23.90    4.10
   8  -5  -4   73.79    3.50
  -8  -5   4   77.09    3.80
   8  -5  -4   75.59    5.50
   8  -5  -4   78.69    3.60
   8   5  -4   80.69    5.70
   8   5  -4   81.09    3.80
   7  -5  -4   14.30    3.10
   7  -5  -4   10.40    1.70
   7  -5  -4    8.90    1.60
  -7  -5   4   12.90    1.80
   7   5  -4   12.30    1.80
   7   5  -4    8.40    2.40
   6  -5  -4  149.39    5.90
   6  -5  -4  145.59    5.90
   6  -5  -4  137.69    7.00
  -6  -5   4  147.39    6.10
   6   5  -4  159.48    7.20
   6   5  -4  157.98    6.10
   5  -5  -4    3.70    1.50
  -5  -5   4   10.60    1.90
   5  -5  -4    5.80    1.40
   5  -5  -4    6.80    1.80
  -5  -5   4   13.70    1.90
   5  -5  -4    4.50    1.40
   5   5  -4   11.90    2.20
   5   5  -4    9.90    1.70
  -4  -5   4   40.50    2.60
   4  -5  -4   42.80    3.00
   4  -5  -4   38.50    2.50
   4  -5  -4   40.00    2.50
  -4  -5   4   43.80    2.80
   4   5  -4   37.50    2.60
   4   5  -4   43.30    2.90
   3  -5  -4   17.60    2.10
   3  -5  -4   15.60    1.90
   3  -5  -4   13.40    1.80
  -3  -5   4   13.10    1.90
  -3  -5   4   15.00    1.80
   3   5  -4   15.20    2.00
   3   5  -4   13.50    1.80
  -3   5   4   13.00    1.90
  -2  -5   4  296.87   10.20
   2  -5  -4  281.37    9.90
   2  -5  -4  276.57    9.90
   2  -5  -4  295.17   10.00
  -2  -5   4  288.67    9.60
  -2   5   4  281.07   10.00
   2   5  -4  279.67   10.10
   2   5  -4  292.97    9.60
   1  -5  -4    8.70    1.50
  -1  -5   4   13.10    1.20
  -1  -5   4   13.50    1.80
   1  -5  -4   11.60    1.60
   1  -5  -4    9.50    1.50
   1   5  -4   12.60    1.10
  -1   5   4    9.60    1.40
   1   5  -4   11.70    1.70
   0  -5  -4   62.29    3.00
   0  -5   4   57.19    3.20
   0  -5  -4   61.29    3.10
   0  -5   4   60.49    2.30
   0  -5  -4   52.99    3.00
   0   5   4   52.89    2.90
   0   5  -4   57.99    2.20
   0   5  -4   60.29    3.20
  -1  -5  -4  164.18    6.10
  -1  -5  -4  156.78    6.10
   1  -5   4  149.39    6.10
  -1  -5  -4  148.69    6.00
   1  -5   4  156.98    5.10
  -1   5  -4  149.88    6.10
   1   5   4  154.18    6.00
  -2  -5  -4  176.18    6.80
   2  -5   4  175.08    6.80
  -2  -5  -4  186.08    6.90
   2  -5   4  169.28    6.40
   2  -5   4  176.58    6.10
  -2  -5  -4  185.08    7.10
  -2   5  -4  182.28    6.80
   2   5   4  179.88    7.00
  -3  -5  -4   10.50    1.50
  -3  -5  -4   11.20    2.00
   3  -5   4   11.00    1.60
  -3  -5  -4   12.10    1.80
   3  -5   4   14.30    1.80
   3  -5   4   13.80    1.60
  -3   5  -4    9.50    1.60
   3   5   4    9.10    1.80
   4  -5   4   52.89    2.90
   4  -5   4   49.90    3.00
   4  -5   4   45.70    2.80
  -4  -5  -4   49.00    2.80
  -4  -5  -4   44.00    3.30
  -4  -5  -4   45.50    2.90
   4   5   4   44.70    3.40
  -4   5  -4   50.79    2.90
  -5  -5  -4   45.90    3.00
  -5  -5  -4   49.70    2.80
   5  -5   4   44.70    2.70
   5  -5   4   49.00    3.40
  -5   5  -4   46.60    3.00
  -5   5  -4   46.00    2.70
   5   5   4   44.30    3.50
   6  -5   4    2.40    1.60
  -6  -5  -4    1.40    1.00
  -6  -5  -4    0.20    1.00
   6  -5   4    1.90    0.90
  -6   5  -4    0.80    0.90
  -6   5  -4    1.40    1.10
   6   5   4    1.40    1.50
   7  -5   4    3.90    1.30
  -7  -5  -4    8.70    1.40
   7  -5   4   10.30    2.60
  -7  -5  -4    9.50    1.70
  -7   5  -4   10.90    1.50
   7   5   4    8.30    2.30
   8  -5   4   11.80    1.40
  -8  -5  -4   20.80    2.00
  -8  -5  -4   13.70    1.60
   8  -5   4   22.20    3.60
   8   5   4   21.40    3.80
   9  -5   4   10.60    3.10
   9   5   4   11.50    3.30
  10  -5   4    9.10    3.20
  10   5   4   11.10    3.40
  11  -5   4    2.80    2.80
  11   5   4    0.90    2.40
  12  -6  -4    7.50    3.30
  12   6  -4   -0.90    2.90
  11  -6  -4   13.40    3.80
  11   6  -4   16.30    4.10
 -10  -6   4    6.10    1.40
  10  -6  -4    3.50    2.90
  10   6  -4    3.60    2.50
  -9  -6   4    4.70    1.70
   9  -6  -4    5.40    1.30
  -9  -6   4    6.30    1.60
   9  -6  -4    5.10    2.90
   9  -6  -4    5.60    1.30
   9   6  -4    9.50    3.00
   8  -6  -4   17.10    2.10
   8  -6  -4   17.60    2.10
  -8  -6   4   12.60    2.00
   8  -6  -4   19.00    3.70
   8   6  -4   19.00    3.50
   8   6  -4   16.80    2.30
   7  -6  -4  168.18    8.00
   7  -6  -4  154.98    6.40
   7  -6  -4  162.38    6.40
  -7  -6   4  156.88    6.60
   7   6  -4  146.09    7.70
   7   6  -4  163.18    6.60
   6  -6  -4   14.10    2.10
   6  -6  -4   13.20    2.10
  -6  -6   4   18.20    2.30
   6   6  -4   19.30    2.90
   6   6  -4   18.90    2.30
   5  -6  -4   33.50    2.60
  -5  -6   4   40.30    2.90
  -5  -6   4   37.10    3.00
   5  -6  -4   35.70    2.60
   5  -6  -4   35.90    3.30
   5  -6  -4   36.30    3.00
   5   6  -4   38.40    2.90
   5   6  -4   37.80    3.20
  -4  -6   4   25.80    2.40
  -4  -6   4   32.80    2.60
   4  -6  -4   31.20    2.50
   4  -6  -4   28.80    2.50
   4  -6  -4   27.90    2.30
   4   6  -4   28.30    2.60
   4   6  -4   28.90    2.60
  -4   6   4   31.90    3.00
  -3  -6   4   50.49    3.20
   3  -6  -4   45.50    2.90
  -3  -6   4   50.59    2.90
   3  -6  -4   51.59    3.00
   3  -6  -4   52.39    3.10
   3   6  -4   49.90    3.20
   3   6  -4   47.30    2.90
  -3   6   4   50.99    3.30
   2  -6  -4   21.80    2.00
   2  -6  -4   20.70    1.90
  -2  -6   4   21.20    1.80
  -2  -6   4   23.90    2.30
   2  -6  -4   26.30    2.60
   2   6  -4   18.70    2.20
  -2   6   4   22.20    2.30
   2   6  -4   18.40    1.70
   1  -6  -4   19.10    2.10
   1  -6  -4   19.80    2.20
  -1  -6   4   20.90    1.50
  -1  -6   4   24.30    2.40
   1  -6  -4   21.60    1.90
   1   6  -4   18.90    2.30
   1   6  -4   20.70    1.50
  -1   6   4   22.20    2.00
   0  -6  -4   76.69    3.80
   0  -6  -4   78.79    3.80
   0  -6   4   72.19    2.90
   0  -6   4   75.99    3.90
   0  -6  -4   70.89    3.80
   0   6  -4   77.19    3.90
   0   6   4   78.19    3.70
   0   6  -4   74.49    2.90
  -1  -6  -4   47.50    3.00
   1  -6   4   47.00    2.10
  -1  -6  -4   47.80    2.90
  -1  -6  -4   41.10    2.80
   1  -6   4   48.80    3.00
  -1   6  -4   50.29    3.00
  -1   6  -4   45.90    2.20
   1   6   4   43.20    2.80
  -2  -6  -4   68.09    3.60
   2  -6   4   70.69    3.70
  -2  -6  -4   58.29    3.50
   2  -6   4   65.79    3.00
   2  -6   4   64.29    2.80
  -2  -6  -4   69.09    3.60
  -2   6  -4   66.19    3.60
   2   6   4   66.09    3.70
   3  -6   4  370.86   13.10
  -3  -6  -4  366.66   13.50
  -3  -6  -4  382.06   13.00
   3  -6   4  384.66   12.50
  -3  -6  -4  375.26   13.00
   3  -6   4  377.66   12.60
  -3   6  -4  379.96   13.00
   3   6   4  397.26   13.50
  -4  -6  -4   63.29    4.00
   4  -6   4   63.09    3.50
  -4  -6  -4   62.09    3.40
   4  -6   4   60.39    3.40
   4  -6   4   63.19    3.30
  -4  -6  -4   60.29    3.60
   4   6   4   55.09    3.90
  -4   6  -4   58.99    3.40
   5  -6   4   18.60    2.50
  -5  -6  -4   13.00    1.80
   5  -6   4   14.20    2.00
  -5  -6  -4   15.10    2.20
   5  -6   4   15.20    2.40
  -5   6  -4   20.70    2.30
   5   6   4   15.10    2.80
  -6  -6  -4    8.10    1.60
  -6  -6  -4   10.20    1.90
   6  -6   4    8.10    1.70
   6  -6   4    9.80    2.40
   6  -6   4    4.90    1.60
   6   6   4   13.30    2.70
  -6   6  -4    7.10    1.60
  -7  -6  -4  129.19    5.60
   7  -6   4  115.09    5.20
  -7  -6  -4  116.39    5.30
   7  -6   4  137.19    6.80
   7   6   4  128.19    7.10
  -7   6  -4  120.19    5.10
  -8  -6  -4   49.99    3.20
   8  -6   4   40.80    2.70
  -8  -6  -4   44.00    2.80
   8  -6   4   46.20    4.40
   8   6   4   41.90    4.80
  -9  -6  -4    4.20    1.30
   9  -6   4    8.50    1.60
   9  -6   4    7.70    2.90
  -9  -6  -4    9.30    1.60
   9   6   4    8.10    3.00
  10  -6   4    2.80    2.60
  10   6   4    7.10    3.20
  11  -6   4   14.30    3.80
  11   6   4    8.50    3.50
  12  -7  -4   28.00    5.20
  12   7  -4   24.20    4.80
  11  -7  -4   15.10    3.90
  11   7  -4   15.90    3.90
  10  -7  -4   13.90    1.70
  10  -7  -4   20.50    4.10
  10  -7  -4   17.10    1.90
 -10  -7   4   17.00    2.20
 -10  -7   4   18.20    2.20
  10   7  -4   18.30    4.00
  -9  -7   4   24.90    2.80
   9  -7  -4   18.50    2.30
   9  -7  -4   21.00    4.10
  -9  -7   4   19.60    2.50
   9  -7  -4   20.20    2.20
   9   7  -4   27.00    4.30
  -8  -7   4   14.90    2.30
   8  -7  -4   15.50    2.20
   8  -7  -4   13.70    2.10
   8  -7  -4   15.00    3.40
   8   7  -4   13.70    3.20
   8   7  -4   17.30    2.40
   7  -7  -4  108.29    6.40
  -7  -7   4  105.79    6.30
   7  -7  -4  107.09    5.10
   7  -7  -4  114.49    5.20
   7   7  -4  109.39    5.30
   7   7  -4  106.79    6.30
   6  -7  -4   51.79    4.30
   6  -7  -4   54.49    3.50
   6  -7  -4   57.69    3.60
   6   7  -4   60.49    3.80
   6   7  -4   61.19    4.40
   5  -7  -4   71.49    4.00
   5  -7  -4   73.09    4.50
  -5  -7   4   67.89    4.20
   5  -7  -4   73.89    4.00
   5   7  -4   72.69    4.20
   5   7  -4   69.39    4.40
   4  -7  -4    4.60    1.40
  -4  -7   4    1.70    1.10
   4  -7  -4    3.70    1.30
   4  -7  -4    4.10    1.30
  -4  -7   4    3.50    1.50
   4   7  -4    3.00    1.50
   4   7  -4    4.80    1.40
  -4   7   4    4.80    1.70
   3  -7  -4   66.49    3.80
   3  -7  -4   64.79    3.70
  -3  -7   4   71.69    4.10
  -3  -7   4   75.49    3.80
   3  -7  -4   67.19    3.80
   3   7  -4   73.79    4.10
   3   7  -4   73.99    3.70
  -3   7   4   63.79    3.90
  -2  -7   4  395.86   14.00
   2  -7  -4  407.76   13.70
  -2  -7   4  409.56   13.30
   2  -7  -4  404.96   13.80
   2  -7  -4  394.36   13.80
   2   7  -4  402.66   13.20
   2   7  -4  384.36   13.80
  -2   7   4  390.26   13.70
  -1  -7   4  132.59    4.90
   1  -7  -4  133.09    5.50
   1  -7  -4  125.29    5.70
   1  -7  -4  126.29    5.70
  -1  -7   4  127.29    5.80
  -1   7   4  132.59    5.50
   1   7  -4  113.69    5.60
   1   7  -4  130.49    4.80
   0  -7  -4  134.99    5.80
   0  -7   4  143.89    5.10
   0  -7   4  134.29    6.10
   0  -7  -4  138.69    6.10
   0   7  -4  138.99    6.10
   0   7  -4  156.28    6.30
   0   7   4  138.89    5.90
   1  -7   4  236.28    9.10
   1  -7   4  244.88    8.00
  -1  -7  -4  238.38    9.10
  -1  -7  -4  225.48    8.90
  -1  -7  -4  242.48    9.10
  -1   7  -4  238.48    9.10
   1   7   4  246.48    9.00
   2  -7   4   12.60    2.00
   2  -7   4   12.80    1.40
  -2  -7  -4    7.60    1.70
   2  -7   4   14.50    1.60
  -2  -7  -4   10.50    2.00
  -2  -7  -4   10.70    1.80
   2   7   4    9.00    1.90
  -2   7  -4   13.10    2.00
   3  -7   4  238.38    9.00
   3  -7   4  241.08    8.40
  -3  -7  -4  224.38    8.80
   3  -7   4  232.78    8.20
  -3  -7  -4  233.48    8.90
  -3  -7  -4  221.18    9.20
   3   7   4  230.68    9.20
  -3   7  -4  230.68    8.80
  -4  -7  -4  277.27   10.30
   4  -7   4  273.57    9.90
  -4  -7  -4  281.77   11.00
   4  -7   4  276.77   10.10
   4  -7   4  291.37   10.50
   4   7   4  272.47   10.90
  -4   7  -4  284.97   10.30
   5  -7   4   43.00    3.30
   5  -7   4   36.80    3.20
  -5  -7  -4   44.10    3.30
   5  -7   4   34.80    2.90
  -5   7  -4   46.60    3.10
   5   7   4   48.90    3.90
  -6  -7  -4   93.89    5.60
   6  -7   4   98.89    5.40
  -6  -7  -4   92.99    4.90
   6  -7   4   89.49    4.60
   6  -7   4   91.89    5.50
   6   7   4   92.19    5.80
  -6   7  -4   97.09    4.70
  -7  -7  -4   27.80    2.80
   7  -7   4   29.70    3.80
  -7  -7  -4   31.10    3.20
   7  -7   4   28.90    2.50
  -7   7  -4   26.20    2.50
   7   7   4   28.10    4.00
  -8  -7  -4   50.09    3.40
  -8  -7  -4   62.89    3.80
   8  -7   4   49.90    3.20
   8  -7   4   70.29    5.10
   8   7   4   61.69    5.30
  -9  -7  -4   38.40    3.00
   9  -7   4   30.30    2.40
   9  -7   4   43.20    5.20
  -9  -7  -4   37.00    2.80
   9  -7   4   41.50    2.50
   9   7   4   39.20    4.90
  10  -7   4   20.70    4.20
 -10  -7  -4   12.80    2.40
  10   7   4   15.00    3.80
  11  -7   4    8.00    3.20
  11   7   4    8.70    3.70
  11  -8  -4    5.90    3.20
 -11  -8   4    2.60    1.50
  11   8  -4    7.00    3.50
  10  -8  -4   23.40    2.40
 -10  -8   4   25.00    2.90
 -10  -8   4   19.00    2.70
  10  -8  -4   22.70    2.40
   9  -8  -4   12.60    3.50
   9  -8  -4   13.70    2.30
  -9  -8   4    8.50    2.00
  -9  -8   4   12.30    2.40
   9  -8  -4   14.30    2.20
   9   8  -4   19.40    3.90
   8  -8  -4   80.09    5.10
   8  -8  -4   95.09    6.40
   8  -8  -4   98.69    4.80
  -8  -8   4   74.89    4.70
   8   8  -4   92.39    6.20
   8   8  -4   88.29    4.90
   7  -8  -4    1.50    1.30
  -7  -8   4    2.60    1.60
   7  -8  -4    2.90    2.10
   7  -8  -4    3.40    1.60
   7   8  -4    2.50    2.10
   7   8  -4    2.80    1.70
   6  -8  -4  103.69    5.90
  -6  -8   4   90.99    5.10
   6  -8  -4   99.99    5.00
   6  -8  -4   89.79    4.80
   6   8  -4   93.19    5.60
   6   8  -4   99.99    5.20
  -5  -8   4   10.60    2.10
   5  -8  -4   12.90    2.70
   5  -8  -4    9.70    2.00
   5  -8  -4    7.70    1.80
  -5  -8   4    9.40    2.00
   5   8  -4   15.00    2.40
   5   8  -4   11.70    2.20
   4  -8  -4   38.00    4.40
   4  -8  -4   37.30    3.00
  -4  -8   4   38.70    3.30
  -4  -8   4   37.00    3.20
   4  -8  -4   33.40    2.90
   4   8  -4   36.80    3.20
   4   8  -4   34.90    3.00
  -4   8   4   41.40    3.40
  -3  -8   4  284.37   10.40
   3  -8  -4  280.17   10.60
   3  -8  -4  290.47   10.70
  -3  -8   4  294.17   11.00
   3  -8  -4  291.17   10.80
   3   8  -4  289.27   10.90
  -3   8   4  282.47   10.80
   3   8  -4  285.17   10.30
   2  -8  -4    1.00    1.10
  -2  -8   4    2.90    1.30
   2  -8  -4    1.20    1.40
  -2  -8   4    2.70    1.40
   2  -8  -4    1.50    1.10
   2   8  -4    4.10    1.20
  -2   8   4    3.10    1.30
   2   8  -4    2.30    1.50
   1  -8  -4  135.79    6.20
   1  -8  -4  138.49    6.30
  -1  -8   4  139.09    6.30
   1  -8  -4  153.38    8.10
  -1  -8   4  143.59    5.40
   1   8  -4  134.49    6.30
  -1   8   4  129.29    5.90
   1   8  -4  142.49    5.30
   0  -8  -4   68.29    4.00
   0  -8  -4   70.19    4.30
   0  -8  -4   64.69    4.00
   0  -8   4   66.69    4.10
   0  -8   4   70.89    3.10
   0   8  -4   67.49    3.10
   0   8   4   68.19    3.80
   0   8  -4   71.79    4.20
  -1  -8  -4  204.68    8.30
  -1  -8  -4  205.38    8.20
   1  -8   4  203.88    8.30
   1  -8   4  207.58    7.10
  -1  -8  -4  199.38    8.10
   1   8   4  208.18    8.10
  -1   8  -4  193.48    8.20
  -1   8  -4  214.38    7.20
   2  -8   4   26.20    2.60
   2  -8   4   28.40    1.90
  -2  -8  -4   24.10    3.00
  -2  -8  -4   26.20    2.60
  -2  -8  -4   27.70    2.60
   2   8   4   31.70    2.80
  -2   8  -4   30.20    2.80
   3  -8   4   30.60    2.80
  -3  -8  -4   34.80    2.90
  -3  -8  -4   33.40    3.40
   3  -8   4   35.00    2.30
   3  -8   4   36.00    2.60
  -3   8  -4   32.90    2.90
   3   8   4   38.20    3.20
  -4  -8  -4   -0.30    1.40
   4  -8   4    2.10    1.10
   4  -8   4    0.70    1.20
   4  -8   4    0.80    1.20
  -4  -8  -4    1.70    1.40
  -4   8  -4    0.10    1.20
   5  -8   4  168.28    7.50
  -5  -8  -4  170.88    7.50
   5  -8   4  177.18    7.30
   5  -8   4  185.38    7.60
  -5  -8  -4  179.38    7.70
   5   8   4  178.98    8.30
  -5   8  -4  183.78    7.50
  -6  -8  -4   18.90    2.80
   6  -8   4   15.50    2.30
  -6  -8  -4   11.40    2.20
   6  -8   4   19.00    2.90
   6   8   4   17.80    3.30
  -6   8  -4   14.00    2.20
   7  -8   4   45.50    4.60
  -7  -8  -4   35.30    3.50
  -7  -8  -4   31.90    3.00
   7  -8   4   32.40    2.90
  -7   8  -4   34.10    2.90
   7   8   4   37.80    4.50
   8  -8   4   38.60    4.60
  -8  -8  -4   17.50    2.50
   8  -8   4   24.30    3.30
  -8  -8  -4   26.70    3.20
   8   8   4   26.30    4.30
   9  -8   4   34.10    4.70
  -9  -8  -4   27.90    3.10
   9  -8   4   28.30    2.50
   9  -8   4   18.10    2.30
 -10  -8  -4    1.40    1.40
  10  -8   4   -1.30    2.30
  10   8   4   -0.20    2.40
  11  -8   4    0.40    2.30
  11   8   4    0.80    2.90
 -11  -9   4   12.80    2.30
  11  -9  -4   18.00    4.40
  11   9  -4   24.60    4.90
  10  -9  -4   61.79    4.00
  10  -9  -4   79.89    6.70
  10   9  -4   79.89    6.70
   9  -9  -4    0.20    2.40
   9  -9  -4    2.70    1.70
  -9  -9   4   -1.40    1.70
   9  -9  -4    1.50    1.70
   9   9  -4    1.20    2.40
   8  -9  -4    8.20    2.10
   8  -9  -4   14.50    3.60
   8  -9  -4   16.80    2.60
   8   9  -4   13.20    2.60
   8   9  -4   14.70    3.40
   7  -9  -4   30.30    4.20
   7  -9  -4   36.10    3.30
   7  -9  -4   23.30    3.50
   7   9  -4   29.20    3.90
   7   9  -4   28.70    3.40
   6  -9  -4  106.89    5.70
   6  -9  -4  101.59    6.30
   6  -9  -4  118.59    6.50
   6   9  -4  118.39    6.00
   6   9  -4  117.49    6.30
   5  -9  -4  140.59    7.40
   5  -9  -4  144.09    6.70
   5   9  -4  143.19    6.80
   5   9  -4  143.29    6.80
   4  -9  -4    0.50    1.50
   4  -9  -4    1.20    1.40
  -4  -9   4    1.80    1.40
  -4   9   4    5.20    2.00
   4   9  -4   -1.10    1.50
   4   9  -4    2.20    1.40
   3  -9  -4  165.88    7.30
   3  -9  -4  170.68    7.60
   3  -9  -4  160.68    7.20
  -3  -9   4  164.08    6.80
   3   9  -4  162.98    6.70
  -3   9   4  164.58    7.30
   3   9  -4  160.68    7.40
   2  -9  -4    1.90    1.30
  -2  -9   4    4.10    1.80
  -2  -9   4    3.00    1.20
   2  -9  -4    3.50    1.60
   2  -9  -4    2.30    1.30
   2   9  -4    3.80    1.80
  -2   9   4    3.00    1.50
   2   9  -4    3.00    1.20
   1  -9  -4  303.77   11.50
  -1  -9   4  291.67   11.70
   1  -9  -4  303.87   11.50
  -1  -9   4  308.57   10.40
   1  -9  -4  284.87   10.90
  -1   9   4  304.67   11.10
   1   9  -4  298.07   11.50
   1   9  -4  311.07   10.30
   0  -9   4  392.06   12.80
   0  -9  -4  374.26   14.00
   0  -9  -4  375.16   14.00
   0  -9   4  390.56   14.20
   0  -9  -4  380.46   13.70
   0   9  -4  388.56   14.00
   0   9   4  391.26   13.70
   0   9  -4  400.66   12.80
  -1  -9  -4  921.21   30.80
   1  -9   4  964.50   29.80
  -1  -9  -4  986.80   32.10
   1  -9   4  936.91   31.30
  -1  -9  -4  960.80   31.10
  -1   9  -4  980.10   31.20
  -1   9  -4  969.90   29.80
   1   9   4  972.90   30.90
  -2  -9  -4    1.80    1.70
   2  -9   4    4.30    1.10
   2  -9   4    0.90    1.20
  -2   9  -4    3.30    1.60
  -2   9  -4    4.70    1.40
   2   9   4    3.60    1.50
   3  -9   4  482.85   15.80
   3  -9   4  475.75   15.60
  -3  -9  -4  479.95   16.80
   3  -9   4  439.66   16.80
  -3   9  -4  489.25   16.70
   3   9   4  476.65   16.90
  -4  -9  -4   75.59    4.80
   4  -9   4   81.99    4.30
   4  -9   4   68.29    4.90
   4  -9   4   68.69    3.70
   4   9   4   64.99    4.60
  -4   9  -4   67.79    4.40
  -5  -9  -4  221.08    9.20
   5  -9   4  219.48    8.60
   5  -9   4  223.28    9.00
   5  -9   4  206.58    9.80
   5   9   4  222.28    9.80
  -5   9  -4  222.58    8.90
   6  -9   4  186.28    8.20
   6  -9   4  164.08    8.50
  -6  -9  -4  185.58    8.20
   6   9   4  181.88    9.00
  -6   9  -4  188.48    7.90
   7  -9   4   37.10    3.30
   7  -9   4   45.30    4.10
  -7  -9  -4   52.19    4.10
  -7   9  -4   43.20    3.40
   7   9   4   41.80    5.00
  -8  -9  -4  183.58    8.00
   8  -9   4  146.79    7.20
   8  -9   4  180.58    8.90
   8   9   4  183.08    9.60
   9  -9   4    2.20    1.70
  -9  -9  -4    3.30    2.00
   9  -9   4    8.30    3.10
  -9  -9  -4    6.70    2.30
   9  -9   4    2.50    1.60
   9   9   4    3.70    3.00
 -10  -9  -4   74.49    4.50
  10  -9   4   69.59    3.60
  10  -9   4   79.59    6.50
  10   9   4   73.19    6.80
  11 -10  -4   83.09    7.20
  11  10  -4   61.99    7.20
  10 -10  -4   13.30    4.00
  10 -10  -4    8.80    2.20
 -10 -10   4    5.60    2.50
  10  10  -4    5.60    3.10
  -9 -10   4   42.70    5.30
   9 -10  -4   43.20    5.70
   9 -10  -4   45.00    3.70
   9  10  -4   41.70    5.40
   8 -10  -4   83.79    7.40
   8 -10  -4   87.59    6.50
   8  10  -4   79.39    5.20
   8  10  -4   84.89    6.20
   7 -10  -4   32.00    4.30
   7  10  -4   28.10    4.10
   7  10  -4   24.80    3.40
   6 -10  -4  109.29    6.50
   6  10  -4  107.19    6.20
   6  10  -4  107.19    6.00
   5  10  -4   90.39    5.70
  -5  10   4   99.59    6.00
   5  10  -4   98.89    5.60
  -4 -10   4   73.99    4.50
   4 -10  -4   76.99    5.50
   4  10  -4   81.29    4.60
   4  10  -4   82.19    7.60
  -4  10   4   82.69    5.20
  -3 -10   4    0.30    1.30
   3 -10  -4   -1.60    1.30
  -3  10   4   -0.40    1.40
   3  10  -4    0.20    1.10
  -2 -10   4  127.89    5.70
   2 -10  -4  135.79    6.60
   2  10  -4  125.39    7.20
   2  10  -4  133.59    5.60
  -2  10   4  129.89    6.20
   1 -10  -4   74.89    4.80
  -1 -10   4   73.49    3.80
   1  10  -4   69.59    4.70
  -1  10   4   69.99    4.30
   1  10  -4   81.49    3.80
   0 -10  -4  109.59    5.90
   0 -10   4  106.19    4.60
   0  10  -4  107.29    4.70
   0  10   4  106.69    5.40
   0  10  -4  109.39    5.80
  -1 -10  -4  190.48    8.40
   1 -10   4  175.98    6.80
  -1  10  -4  175.88    8.00
   1  10   4  177.78    7.80
  -1  10  -4  182.28    6.90
   2 -10   4  213.08    8.00
  -2 -10  -4  220.98   10.30
   2  10   4  219.68    9.20
  -2  10  -4  224.68    8.30
  -2  10  -4  221.08    9.20
   3 -10   4   48.40    2.90
   3 -10   4   48.30    3.20
  -3  10  -4   41.80    3.70
   3  10   4   46.10    3.90
   4 -10   4  151.58    6.50
  -4  10  -4  141.69    7.10
   4  10   4  131.99    7.10
   5 -10   4  109.89    5.30
   5 -10   4  106.19    5.60
  -5 -10  -4  112.89    6.40
   5  10   4  116.79    6.60
  -5  10  -4  106.59    6.50
  -6 -10  -4   74.49    5.10
   6  10   4   73.29    5.60
  -6  10  -4   62.69    5.10
  -7 -10  -4   67.09    5.00
   7 -10   4   71.29    5.10
  -7  10  -4   67.59    4.60
   7  10   4   75.99    5.90
   8 -10   4    4.70    2.40
  -8 -10  -4    5.60    2.50
   8 -10   4    1.60    1.70
   8  10   4    2.20    2.60
   9 -10   4  236.08   11.50
   9 -10   4  245.68    9.70
  -9 -10  -4  261.57   13.60
   9  10   4  243.48   12.30
 -10 -10  -4    2.90    2.10
  10 -10   4    1.30    1.40
  10  10   4    1.40    3.10
  10 -11  -4    7.10    3.20
 -10 -11   4    5.60    2.80
  10 -11  -4   10.00    2.50
  10  11  -4    8.30    3.50
  -9 -11   4   20.20    3.50
   9 -11  -4   15.90    2.80
   9  11  -4   13.50    3.80
   8 -11  -4   25.00    4.20
   8 -11  -4   22.40    3.20
   8  11  -4   22.30    3.60
   8  11  -4   28.70    4.40
   7 -11  -4   50.79    4.30
   7 -11  -4   53.59    5.20
   7  11  -4   51.39    4.40
   7  11  -4   44.60    5.00
   6 -11  -4   83.49    5.20
   6 -11  -4   78.69    5.70
   6  11  -4   81.19    5.40
   6  11  -4   71.09    5.30
   5 -11  -4   59.69    4.40
   5  11  -4   54.19    4.50
   5  11  -4   55.39    4.30
  -5  11   4   44.90    4.80
   4 -11  -4    0.90    1.80
   4  11  -4    5.10    1.90
  -4  11   4    5.50    2.20
   4  11  -4   -1.60    2.10
  -3 -11   4  101.09    5.40
   3 -11  -4  118.09    6.20
   3  11  -4  102.89    5.30
   3  11  -4  106.19    6.10
  -3  11   4  104.29    5.90
  -2 -11   4    2.80    1.50
   2 -11  -4    1.30    1.80
   2  11  -4    1.60    1.30
   2  11  -4    1.40    2.00
  -2  11   4    2.40    1.90
  -1 -11   4  293.17   10.60
   1 -11  -4  286.57   11.70
  -1  11   4  293.37   11.30
   1  11  -4  284.87   11.70
   1  11  -4  301.77   10.50
   0 -11  -4  210.68    9.00
   0 -11   4  188.78    7.40
   0  11   4  179.38    8.20
   0  11  -4  198.28    7.50
   0  11  -4  198.38    8.80
  -1 -11  -4  173.88    8.30
   1 -11   4  172.78    6.80
  -1  11  -4  175.78    8.20
  -1  11  -4  185.98    7.00
  -2 -11  -4   42.10    4.10
   2 -11   4   36.30    2.60
  -2  11  -4   34.30    2.90
  -2  11  -4   33.70    3.80
   2  11   4   37.70    3.60
  -3 -11  -4   64.89    5.10
   3 -11   4   67.49    4.00
   3 -11   4   67.09    3.70
   3  11   4   65.79    4.70
  -3  11  -4   67.59    4.80
   4 -11   4   45.90    3.20
   4 -11   4   48.40    3.70
  -4 -11  -4   57.69    4.70
  -4  11  -4   48.10    4.20
   4  11   4   54.19    4.60
  -5 -11  -4    9.90    3.00
   5 -11   4   17.50    2.80
  -5  11  -4   14.40    2.70
   5  11   4   13.50    2.90
  -6 -11  -4  151.78    7.50
   6 -11   4  126.49    6.90
   6  11   4  132.99    7.80
  -6  11  -4  127.69    6.80
   7 -11   4   -1.10    1.60
  -7 -11  -4   -1.60    2.00
   7  11   4    0.80    2.40
  -7  11  -4   -0.60    1.50
  -8 -11  -4   71.69    5.50
   8 -11   4   62.69    4.70
   8 -11   4   71.29    5.70
   8  11   4   78.99    6.60
   9 -11   4    5.50    2.90
   9 -11   4    3.40    1.90
  -9 -11  -4    7.10    2.80
   9  11   4    4.10    3.10
  10 -11   4   19.10    4.10
  10 -11   4   14.10    2.60
 -10 -11  -4    8.40    2.70
  10  11   4   19.40    4.50
  10 -12  -4    4.40    3.20
  10 -12  -4   -0.10    2.10
 -10 -12   4    2.90    2.50
  10  12  -4    3.30    3.30
   9 -12  -4   50.79    4.50
  -9 -12   4   58.29    5.30
   9 -12  -4   58.19    6.60
   9  12  -4   47.20    5.80
   8 -12  -4   73.09    6.30
   8 -12  -4   63.49    5.10
   8  12  -4   66.89    5.30
   8  12  -4   70.19    6.10
   7 -12  -4   85.89    6.50
   7 -12  -4   85.79    5.60
   7  12  -4   77.09    5.70
   7  12  -4   85.79    6.20
   6 -12  -4   37.40    4.80
   6 -12  -4   40.20    4.30
   6  12  -4   31.30    4.10
   6  12  -4   34.00    4.30
   5 -12  -4  114.69    6.80
  -5  12   4  129.49    7.30
   5  12  -4  125.79    6.70
   5  12  -4  125.59    7.10
   4 -12  -4  124.69    6.90
  -4  12   4  120.69    6.90
   4  12  -4  123.19    6.40
   4  12  -4  125.79    7.00
  -3 -12   4   61.19    4.20
   3 -12  -4   68.39    5.00
   3  12  -4   57.99    4.00
   3  12  -4   62.49    5.00
  -3  12   4   60.69    4.80
  -2 -12   4   77.29    4.60
   2 -12  -4   85.29    5.70
  -2  12   4   91.49    5.40
   2  12  -4   91.79    4.70
   2  12  -4   86.49    5.70
  -1 -12   4    0.20    1.30
   1 -12  -4    0.50    2.00
  -1  12   4   -0.20    1.60
   1  12  -4   -1.30    1.20
   1  12  -4    1.30    2.00
   0 -12   4   85.89    4.50
   0 -12  -4   81.39    5.70
   0  12  -4   98.59    5.90
   0  12   4   89.29    5.30
   0  12  -4   95.99    4.60
   1 -12   4   24.80    2.40
  -1 -12  -4   18.90    3.10
   1  12   4   28.30    3.60
  -1  12  -4   24.50    3.50
  -1  12  -4   28.20    2.80
  -2 -12  -4  250.67   10.90
   2 -12   4  246.28    9.30
  -2  12  -4  241.58   10.60
  -2  12  -4  253.07    9.60
   2  12   4  254.87   10.50
  -3 -12  -4   27.40    4.00
   3 -12   4   27.90    2.60
   3 -12   4   32.10    3.30
  -3  12  -4   25.60    3.50
   3  12   4   36.20    4.20
   4 -12   4   61.89    3.90
  -4 -12  -4   74.59    5.60
   4 -12   4   68.79    4.50
  -4  12  -4   75.99    5.20
   4  12   4   77.69    5.50
  -5 -12  -4  121.89    7.10
   5 -12   4  127.59    6.50
   5  12   4  119.49    7.20
  -5  12  -4  116.29    6.70
   6 -12   4    9.60    2.50
  -6 -12  -4    6.30    2.70
  -6  12  -4    6.00    2.30
   6  12   4    6.10    2.80
  -7 -12  -4  181.68    9.20
   7 -12   4  195.78    9.10
   7  12   4  171.78    9.60
  -7  12  -4  181.28    8.60
  -8 -12  -4   62.39    5.50
   8 -12   4   58.79    5.30
   8 -12   4   62.99    4.90
   8  12   4   53.89    6.20
  -9 -12  -4  110.49    7.10
   9 -12   4  120.09    7.70
   9 -12   4  111.59    6.30
   9  12   4  116.19    8.30
   9 -13  -4    6.70    3.30
  -9 -13   4    3.80    2.90
   9 -13  -4    5.20    2.50
   9  13  -4    5.10    3.10
   8 -13  -4   24.40    3.80
   8 -13  -4   24.20    5.50
   8  13  -4   24.40    4.30
   7 -13  -4   12.80    3.20
   7 -13  -4   13.10    3.50
   7  13  -4   13.00    3.40
   7  13  -4    9.60    3.00
   6 -13  -4   12.70    3.20
   6 -13  -4   19.10    3.40
   6  13  -4   13.80    3.10
   6  13  -4   15.60    3.50
   5 -13  -4   94.39    6.00
   5  13  -4   75.29    5.40
   5  13  -4   77.49    5.80
  -5  13   4   71.09    5.80
   4 -13  -4    0.50    2.00
   4  13  -4   -0.30    1.70
   4  13  -4   -1.10    2.10
  -4  13   4   -0.90    2.00
   3 -13  -4   25.70    4.00
  -3  13   4   23.60    3.70
   3  13  -4   22.40    3.70
   3  13  -4   30.50    3.40
   2 -13  -4    0.50    2.30
  -2 -13   4    1.50    1.50
  -2  13   4    1.30    2.10
   2  13  -4    0.90    2.30
   2  13  -4    1.60    1.60
  -1 -13   4  146.69    6.80
   1 -13  -4  157.48    8.40
   1  13  -4  166.48    6.90
  -1  13   4  158.38    7.70
   1  13  -4  150.88    8.10
   0 -13  -4   30.70    4.10
   0 -13   4   24.80    2.90
   0  13  -4   32.00    3.00
   0  13  -4   23.90    3.60
   0  13   4   36.10    4.00
  -1 -13  -4   66.09    5.30
   1 -13   4   55.99    4.10
  -1  13  -4   64.09    4.00
   1  13   4   61.99    4.70
  -1  13  -4   55.19    4.90
  -2 -13  -4   98.69    6.50
   2 -13   4   90.99    4.70
   2  13   4   88.29    5.80
  -2  13  -4   98.59    6.20
  -2  13  -4  101.59    5.20
   3 -13   4    4.60    1.90
  -3 -13  -4    5.90    2.70
   3 -13   4    1.50    1.30
   3  13   4    4.00    2.40
  -3  13  -4    5.40    2.50
  -4 -13  -4  155.48    8.40
   4 -13   4  155.08    7.30
  -4  13  -4  153.88    8.10
   4  13   4  159.78    8.30
  -5 -13  -4   14.00    3.40
   5 -13   4   25.30    4.00
   5  13   4   17.90    3.60
  -5  13  -4   18.30    3.20
   6 -13   4   45.00    4.30
  -6 -13  -4   40.50    5.00
  -6  13  -4   40.20    4.60
   6  13   4   41.50    5.20
  -7 -13  -4    3.90    2.90
   7 -13   4   -0.40    2.10
   7  13   4    2.60    3.00
   8 -13   4    7.00    2.60
   8 -13   4   12.80    3.10
  -8 -13  -4   13.10    3.50
   8  13   4    6.60    3.30
   9 -13   4   11.60    3.50
  -9 -13  -4    4.60    3.20
   9 -13   4    6.30    2.60
   9  13   4    6.00    3.50
  -9 -14   4   -2.20    2.60
   9 -14  -4    1.00    2.40
   9 -14  -4    2.80    3.30
   9  14  -4   -0.30    2.90
   8 -14  -4    0.90    2.30
   8 -14  -4    0.00    3.00
  -8 -14   4    5.20    3.20
   7 -14  -4   16.10    3.90
   7 -14  -4   13.20    3.10
   7  14  -4   12.00    3.40
   7  14  -4   10.00    3.40
   6 -14  -4   -1.50    2.00
   6 -14  -4   -2.60    2.20
   6  14  -4    0.80    2.50
   6  14  -4    1.20    2.30
   5 -14  -4    0.10    2.30
  -5  14   4    6.50    3.20
   5  14  -4    1.70    2.60
   5  14  -4    2.10    2.10
   4 -14  -4   72.49    5.70
   4  14  -4   63.09    4.80
   4  14  -4   63.69    5.60
  -4  14   4   62.09    5.50
   3 -14  -4   83.79    6.30
   3  14  -4  103.29    6.60
   3  14  -4   91.09    5.40
  -3  14   4   83.49    6.00
   2 -14  -4   12.10    3.20
   2  14  -4   12.70    3.20
  -2  14   4   16.60    3.30
   2  14  -4   11.40    2.30
   1 -14  -4   36.70    4.60
  -1 -14   4   35.80    3.80
   1  14  -4   37.30    4.60
   1  14  -4   37.20    3.40
  -1  14   4   37.70    4.40
   0 -14  -4   94.29    6.40
   0 -14   4   69.19    4.50
   0  14  -4   85.39    4.90
   0  14   4   89.09    5.60
   0  14  -4   87.19    6.10
  -1 -14  -4   -1.90    2.30
   1 -14   4    0.10    1.40
  -1  14  -4    0.70    2.30
   1  14   4   -2.10    1.90
  -1  14  -4   -1.00    1.50
   2 -14   4   48.80    3.60
  -2 -14  -4   44.30    5.20
  -2  14  -4   53.79    4.00
  -2  14  -4   48.50    5.30
   2  14   4   50.39    4.60
   3 -14   4  155.78    7.40
  -3 -14  -4  160.98    8.90
   3  14   4  175.28    8.60
  -3  14  -4  146.99    8.30
  -4 -14  -4  135.49    8.00
   4 -14   4  120.29    7.10
  -4  14  -4  110.19    7.10
   4  14   4  113.79    7.20
  -5 -14  -4   12.30    3.40
   5 -14   4    5.00    2.40
  -5  14  -4    6.60    2.70
   5  14   4   10.60    3.30
   6 -14   4   -1.50    2.00
  -6 -14  -4   -1.00    2.70
  -6  14  -4    1.30    2.30
   7 -14   4   61.39    5.20
  -7 -14  -4   57.89    6.20
   7  14   4   54.99    6.40
   8 -14   4   12.90    3.20
  -8 -14  -4   11.50    3.70
   8 -14   4   10.80    3.10
   8  14   4   13.30    3.90
   8 -15  -4   27.30    4.40
   8 -15  -4   28.80    5.30
  -8 -15   4   23.40    4.90
   8  15  -4   19.80    4.30
   7 -15  -4    1.00    2.30
   7 -15  -4   -1.50    2.80
   7  15  -4    3.00    2.80
   7  15  -4    0.70    2.70
   6 -15  -4    7.90    3.20
   6 -15  -4    7.30    2.80
   6  15  -4    9.70    3.00
   6  15  -4    4.40    2.90
   5 -15  -4   14.20    3.40
   5  15  -4   19.70    3.50
   5  15  -4   12.90    3.80
  -5  15   4   12.80    3.50
   4 -15  -4   29.50    4.80
   4  15  -4   23.30    4.20
  -4  15   4   32.10    4.70
   4  15  -4   34.20    4.00
   3 -15  -4    4.50    2.70
   3  15  -4    2.60    2.60
  -3  15   4    8.10    3.00
   3  15  -4    4.20    2.10
   2 -15  -4    0.40    2.90
  -2  15   4    0.50    2.50
   2  15  -4    0.70    2.60
   2  15  -4   -0.80    1.90
   1 -15  -4   82.29    6.70
  -1  15   4   72.59    5.60
   1  15  -4   78.59    6.30
   1  15  -4   74.09    4.80
   0 -15  -4    3.10    3.10
   0  15   4    0.90    2.10
   0  15  -4    8.70    3.00
   0  15  -4    4.80    2.10
  -1 -15  -4   43.90    5.50
  -1  15  -4   39.90    4.90
  -1  15  -4   43.80    3.90
   1  15   4   50.19    4.80
  -2 -15  -4   19.90    4.00
  -2  15  -4   15.30    3.60
   2  15   4   22.10    3.60
  -2  15  -4   23.70    3.30
   3 -15   4   31.30    4.10
  -3 -15  -4   34.10    5.20
  -3  15  -4   31.20    4.50
   3  15   4   31.20    4.30
  -4 -15  -4   25.90    4.70
   4 -15   4   26.00    3.50
   4  15   4   23.70    4.10
  -4  15  -4   23.90    4.30
   5 -15   4   29.30    4.00
  -5 -15  -4   30.70    5.00
   5  15   4   26.40    4.40
  -5  15  -4   31.60    4.50
   6 -15   4   10.70    2.80
  -6 -15  -4   17.10    4.00
   6  15   4    6.90    3.20
  -6  15  -4   11.00    3.30
   7 -15   4   11.60    3.20
   7 -15   4    5.60    3.00
  -7 -15  -4    6.90    3.70
   7  15   4    4.60    3.40
  -7 -16   4   10.10    3.80
   7 -16  -4    5.60    3.00
   7 -16  -4    9.70    3.50
   7  16  -4    5.80    3.70
   6 -16  -4    2.80    3.00
   6  16  -4    5.40    2.90
   6  16  -4    3.00    3.20
  -5  16   4    0.00    2.90
   5  16  -4    1.70    2.40
   5  16  -4   -0.90    2.90
   4 -16  -4    0.50    2.80
   4  16  -4    4.30    2.30
  -4  16   4    2.40    2.80
   3 -16  -4    6.10    3.00
   3  16  -4    0.30    2.10
  -3  16   4   -2.50    2.20
   3  16  -4    6.20    3.40
   2 -16  -4   -0.60    2.60
   2  16  -4   -2.10    2.60
   2  16  -4    1.40    2.10
  -2  16   4    2.60    2.60
   1 -16  -4   16.90    4.10
   1  16  -4   12.00    2.80
   1  16  -4    9.00    3.50
  -1  16   4   20.10    3.90
   0 -16  -4   -1.00    3.10
   0  16   4    5.10    2.80
   0  16  -4    6.90    3.20
  -1 -16  -4   -3.00    2.80
  -1  16  -4    1.70    2.50
  -1  16  -4   -0.80    2.00
   1  16   4   -0.30    2.20
  -2 -16  -4    2.20    3.20
   2  16   4   10.00    3.00
  -2  16  -4    1.60    2.70
  -3 -16  -4   -1.60    3.00
   3 -16   4   -0.60    1.90
  -3  16  -4   -5.80    2.30
   3  16   4    2.50    2.60
   4 -16   4   25.10    3.50
   4  16   4   21.20    4.20
  -4  16  -4   17.10    4.20
  -5 -16  -4    1.90    3.50
   5 -16   4   -0.40    2.20
   5  16   4    1.50    2.90
   6 -16   4   15.50    3.20
  -6 -16  -4    5.40    3.30
   6  16   4    8.20    3.60
   6 -17  -4    0.50    3.00
   6 -17  -4    0.60    2.60
   6  17  -4   -1.00    2.80
   6  17  -4    1.70    2.70
   5 -17  -4    6.60    3.10
   5  17  -4    4.20    3.30
   5  17  -4    5.70    2.80
   4 -17  -4    0.60    2.90
  -4  17   4   -2.90    2.50
   4  17  -4    4.40    3.40
   4  17  -4    1.80    2.40
   3 -17  -4    2.30    2.70
   3  17  -4    1.40    2.80
   3  17  -4    1.40    2.20
  -3  17   4    0.20    2.70
   2 -17  -4   -2.70    2.60
  -2  17   4   -1.10    2.70
   2  17  -4    1.30    3.20
   2  17  -4    0.70    2.00
   1 -17  -4    3.10    3.40
   1  17  -4    2.00    1.90
  -1  17   4    1.50    2.70
   1  17  -4    1.70    3.00
   0 -17  -4   -1.40    2.70
   0  17   4    2.40    2.60
   0  17  -4   -0.60    3.00
   0  17  -4   -1.80    2.00
  -1 -17  -4   -3.80    2.80
  -1  17  -4    0.30    2.80
   1  17   4   -0.40    2.40
  -1  17  -4   -0.30    1.90
  -2 -17  -4    5.60    3.70
  -2  17  -4    3.70    2.30
  -2  17  -4    6.60    3.30
   2  17   4    9.80    3.30
   3 -17   4    4.70    2.50
  -3 -17  -4    5.90    3.80
  -3  17  -4    3.30    3.20
  -4 -17  -4    0.80    3.40
   4 -17   4    2.60    2.30
   4  17   4    6.90    3.40
  -4  17  -4    2.10    3.00
   5 -17   4   -1.60    2.20
  -5 -17  -4   -2.40    3.10
   5  17   4    2.00    2.80
  -5  17  -4   -0.60    2.50
   5 -18  -4    0.40    2.80
   4 -18  -4    3.30    3.20
   4  18  -4    4.80    2.60
  -4  18   4    4.40    3.40
   4  18  -4    4.50    3.60
   3 -18  -4    0.80    3.30
  -3  18   4   -0.20    4.60
   3  18  -4    5.30    3.50
   3  18  -4    4.00    2.40
   2 -18  -4    1.50    3.00
  -2  18   4   -0.60    2.90
   2  18  -4    0.80    2.40
   2  18  -4   -0.50    3.20
   1 -18  -4    1.80    3.70
  -1  18   4   -0.30    2.90
   1  18  -4    6.50    3.50
   1  18  -4    5.30    2.70
   0 -18  -4   11.90    4.10
   0  18  -4   11.70    3.00
   0  18  -4   16.00    4.50
   0  18   4   11.60    3.60
  -1 -18  -4    2.50    3.50
  -1  18  -4    2.80    2.40
  -1  18  -4    0.00    2.90
   1  18   4    5.70    5.10
  -2 -18  -4    2.50    3.50
   2  18   4    3.90    3.10
  -2  18  -4    4.90    2.50
  -2  18  -4    0.80    3.10
  -3 -18  -4   13.00    4.30
   3 -18   4    8.20    2.80
   3  18   4   14.40    3.80
  -3  18  -4    8.70    3.70
   4 -18   4   21.50    3.70
  -4 -18  -4   22.40    5.30
  -4  18  -4   24.00    4.60
   4  18   4   19.30    4.10
   2 -19  -4   -3.20    3.00
  -2  19   4    4.20    3.10
   2  19  -4    1.90    2.60
   2  19  -4   -0.10    3.50
   1 -19  -4   68.89    7.70
  -1  19   4   68.49    6.30
   1  19  -4   66.99    7.30
   1  19  -4   60.29    5.20
   0 -19  -4    0.10    3.90
   0  19   4   -0.20    3.00
   0  19  -4    0.80    2.50
   0  19  -4    4.10    3.50
  -1 -19  -4   10.90    4.30
  -1  19  -4    3.60    2.70
   1  19   4    9.70    3.50
  -1  19  -4    7.70    3.90
  -2 -19  -4    0.00    3.50
   2  19   4   -1.30    2.60
  -2  19  -4    2.50    3.10
  -2  19  -4    1.20    2.50
  12   0  -5    0.30    2.60
  10   0  -5    2.80    2.60
   9   0  -5    0.90    2.20
   8   0  -5   -0.40    1.80
  -7   0   5    1.60    0.70
   7   0  -5    2.00    1.80
   7   0  -5    1.60    0.70
  -6   0   5    2.70    1.30
   6   0  -5    2.90    0.90
   6   0  -5    1.90    1.50
  -6   0   5    4.30    1.00
  -5   0   5    2.10    0.90
  -5   0   5    2.30    1.30
   5   0  -5    2.30    1.30
  -4   0   5    0.30    0.60
   4   0  -5   -0.40    0.80
  -4   0   5   -0.20    0.80
   4   0  -5    0.10    0.80
   3   0  -5    5.60    1.20
   3   0  -5    3.30    1.10
  -3   0   5    3.70    0.90
   3   0  -5    3.00    1.00
   2   0  -5    0.70    0.70
  -2   0   5    0.20    0.70
   2   0  -5    0.70    0.80
   2   0  -5    0.20    0.70
   1   0  -5    0.30    0.50
  -1   0   5   -0.40    0.70
  -1   0   5    0.80    0.60
   0   0  -5    2.50    0.60
   0   0   5    2.60    0.60
   0   0   5    2.60    0.90
  -1   0  -5    0.70    0.70
   1   0   5    1.60    0.80
   1   0   5    2.00    0.70
   2   0   5    0.10    0.60
  -2   0  -5    1.70    0.80
   2   0   5    0.50    0.60
   3   0   5   -1.10    0.70
  -3   0  -5   -0.90    0.70
   3   0   5    0.20    0.60
  -4   0  -5    1.50    0.90
  -4   0  -5    3.00    1.60
   4   0   5    3.40    1.30
   4   0   5    1.50    0.70
  -5   0  -5    0.40    0.60
   5   0   5    0.90    1.20
   5   0   5    1.30    0.70
  -5   0  -5   -0.90    0.70
   6   0   5    3.50    1.60
  -6   0  -5    3.30    0.80
   6   0   5    1.80    0.60
   7   0   5    0.00    1.30
   8   0   5    0.10    1.70
   9   0   5    0.10    2.00
  10   0   5   -0.10    2.20
  11   0   5    1.70    2.70
  12   0   5    2.30    2.80
  12  -1  -5    4.00    3.20
  12   1  -5    1.90    2.90
  11  -1  -5   47.40    8.80
  10  -1  -5    2.60    2.80
  10   1  -5    0.10    2.40
   9  -1  -5    3.30    2.70
   9   1  -5   -1.40    2.20
   8  -1  -5   18.70    3.40
   8   1  -5   15.50    3.10
   7  -1  -5   66.89    2.90
   7  -1  -5   67.19    4.90
  -7  -1   5   75.99    3.30
   7   1  -5   68.79    2.90
  -6  -1   5    9.50    1.20
  -6  -1   5    8.60    1.90
   6  -1  -5    9.30    1.40
   6  -1  -5   10.10    2.30
  -6   1   5    6.80    1.60
   6   1  -5    9.90    2.10
  -6   1   5    9.10    1.10
  -5  -1   5   33.70    2.00
  -5  -1   5   29.30    2.50
   5  -1  -5   36.10    2.90
   5  -1  -5   34.50    2.50
   5   1  -5   29.10    2.70
  -5   1   5   32.00    1.90
   5   1  -5   32.50    2.00
  -4  -1   5   68.09    3.10
   4  -1  -5   67.79    3.60
  -4  -1   5   63.79    3.40
   4  -1  -5   66.89    3.60
   4  -1  -5   71.19    3.10
  -4   1   5   69.89    3.00
   4   1  -5   68.09    3.60
   4   1  -5   69.99    3.10
  -3  -1   5    4.30    1.00
   3  -1  -5    5.40    1.10
   3  -1  -5    7.40    1.20
  -3  -1   5    8.10    1.20
   3  -1  -5    7.30    1.30
  -3   1   5    5.90    1.00
   3   1  -5    5.70    1.20
   3   1  -5    5.70    1.10
   2  -1  -5  318.87   10.50
  -2  -1   5  315.37   10.50
   2  -1  -5  317.17   10.40
   2   1  -5  315.17   10.30
   2   1  -5  310.97   10.50
  -2   1   5  323.77   10.40
   2   1  -5  309.97   10.30
  -2   1   5  310.17   10.40
  -1  -1   5  147.59    4.80
  -1  -1   5  130.59    5.20
   1  -1  -5  133.79    5.20
   1  -1  -5  140.79    4.90
   1   1  -5  141.39    4.70
  -1   1   5  139.19    5.20
  -1   1   5  138.09    5.00
   1   1  -5  141.99    5.30
   0  -1   5  689.63   21.70
   0  -1  -5  700.03   21.70
   0   1  -5  702.93   21.00
   0   1   5  692.63   21.70
   0   1  -5  702.53   21.80
   0   1   5  688.63   21.40
  -1  -1  -5  439.46   14.00
   1  -1   5  430.26   14.00
   1  -1   5  441.76   13.50
  -1  -1  -5  435.86   13.90
   1   1   5  433.36   14.00
   1   1   5  433.96   14.10
  -1   1  -5  427.56   13.50
  -1   1  -5  446.76   14.10
  -2  -1  -5   14.80    1.70
  -2  -1  -5    7.00    1.20
   2  -1   5    8.60    1.20
  -2   1  -5   13.30    1.50
   2   1   5    9.30    1.20
  -2   1  -5   10.20    1.40
   2   1   5   10.10    1.40
   3  -1   5   39.40    2.40
   3  -1   5   39.80    2.20
  -3  -1  -5   35.60    2.20
  -3  -1  -5   39.00    2.50
   3   1   5   40.50    2.60
  -3   1  -5   40.80    2.50
   3   1   5   37.50    2.10
  -3   1  -5   37.50    2.30
   4  -1   5    0.70    1.00
   4  -1   5    0.90    0.70
  -4  -1  -5    0.60    0.90
  -4  -1  -5   -0.30    0.80
   4   1   5   -0.30    0.90
  -4   1  -5    0.70    0.90
   4   1   5    0.00    0.70
   5  -1   5  117.29    5.40
  -5  -1  -5  100.19    5.20
  -5  -1  -5  109.19    5.50
   5  -1   5  108.79    4.20
  -5   1  -5  114.69    4.20
   5   1   5  107.29    4.10
   5   1   5  105.99    5.40
  -6  -1  -5   51.09    2.40
   6  -1   5   44.70    3.60
   6  -1   5   49.60    2.30
  -6   1  -5   44.30    3.60
  -6   1  -5   48.10    2.30
   6   1   5   53.09    3.90
   7  -1   5    7.30    2.40
   7   1   5    7.00    2.10
   8  -1   5    1.30    1.80
   8   1   5    2.80    2.00
   9  -1   5   11.90    3.60
   9   1   5    9.30    2.80
  10  -1   5   29.00    4.50
  10   1   5   21.60    3.90
  11  -1   5    0.80    2.40
  11   1   5    5.10    2.70
  12  -1   5    5.70    3.10
  12   1   5    3.10    2.60
  12  -2  -5   -4.70    2.30
  12   2  -5   -0.70    2.80
  11  -2  -5   36.10    5.70
  11   2  -5   26.10    6.00
  10  -2  -5    4.90    2.60
  10   2  -5    3.70    2.90
   9  -2  -5   61.59    5.40
   9   2  -5   59.29    5.40
   8  -2  -5  147.39    7.80
  -8  -2   5  150.68    5.20
   8   2  -5  161.68    8.20
   8   2  -5  151.98    5.20
   7  -2  -5   13.00    1.40
   7  -2  -5   11.10    2.50
  -7  -2   5   11.90    1.30
   7   2  -5    7.80    2.80
  -6  -2   5   81.09    4.60
   6  -2  -5   87.29    5.10
   6  -2  -5   90.19    3.80
  -6  -2   5   89.39    3.80
   6   2  -5   93.49    5.10
  -6   2   5   88.09    3.60
   6   2  -5   89.39    3.80
  -5  -2   5   15.10    2.10
   5  -2  -5   13.20    2.20
   5  -2  -5   10.10    2.00
  -5  -2   5   16.60    1.70
   5  -2  -5   10.70    1.50
  -5   2   5   12.30    1.40
   5   2  -5   14.20    2.20
   5   2  -5   14.10    1.60
  -4  -2   5   85.59    4.00
   4  -2  -5   83.69    3.60
   4  -2  -5   84.89    4.20
  -4  -2   5   85.59    3.70
   4  -2  -5   81.99    4.10
   4   2  -5   82.19    3.60
   4   2  -5   80.09    4.10
  -4   2   5   84.79    3.50
  -3  -2   5  235.48    8.20
   3  -2  -5  230.38    8.40
  -3  -2   5  230.78    8.20
   3  -2  -5  237.48    8.40
   3  -2  -5  245.28    8.20
   3   2  -5  232.78    8.30
   3   2  -5  238.18    8.30
  -3   2   5  240.58    8.10
   2  -2  -5  379.96   12.50
  -2  -2   5  379.96   12.50
   2  -2  -5  386.16   12.50
  -2  -2   5  387.46   12.40
  -2   2   5  382.56   12.40
  -2   2   5  370.36   12.50
   2   2  -5  381.26   12.20
   2   2  -5  382.76   12.50
   1  -2  -5   33.50    1.90
  -1  -2   5   32.40    2.20
   1  -2  -5   36.50    2.20
  -1   2   5   33.80    1.90
   1   2  -5   33.00    1.50
   1   2  -5   35.00    1.60
  -1   2   5   37.60    2.20
   1   2  -5   34.00    2.20
   0  -2   5 1747.03   53.79
   0  -2  -5 1777.72   53.69
   0   2   5 1769.22   53.69
   0   2  -5 1804.22   53.79
  -1  -2  -5  110.59    4.30
  -1  -2  -5  105.19    4.30
   1  -2   5  104.09    4.40
   1  -2   5  112.29    3.70
  -1   2  -5  106.69    3.70
  -1   2  -5  109.19    4.40
   1   2   5  108.29    4.30
   1   2   5  107.19    4.30
  -2  -2  -5   57.99    3.00
   2  -2   5   53.99    2.70
  -2  -2  -5   53.09    2.70
   2  -2   5   55.39    2.50
   2   2   5   54.09    2.60
   2   2   5   50.59    2.80
  -2   2  -5   55.59    2.80
  -2   2  -5   56.39    2.70
  -3  -2  -5   29.00    2.30
   3  -2   5   26.30    2.00
  -3  -2  -5   27.30    1.90
   3  -2   5   29.40    1.90
   3   2   5   29.60    2.40
  -3   2  -5   30.00    2.00
  -3   2  -5   27.10    1.90
   3   2   5   26.50    1.80
   4  -2   5  359.06   12.00
   4  -2   5  350.26   11.30
  -4  -2  -5  336.77   12.20
  -4  -2  -5  344.77   11.40
  -4   2  -5  350.56   11.30
  -4   2  -5  333.87   11.80
   4   2   5  337.77   11.20
   4   2   5  332.97   12.20
  -5  -2  -5    5.80    1.20
  -5  -2  -5    7.70    1.80
   5  -2   5    6.00    1.70
   5  -2   5    5.10    1.00
  -5   2  -5    6.30    1.50
  -5   2  -5    7.70    1.20
   5   2   5    5.80    1.00
   5   2   5    7.50    1.80
   6  -2   5   12.80    1.40
  -6  -2  -5   12.90    1.30
   6  -2   5   15.00    2.70
  -6   2  -5   15.80    1.50
  -6   2  -5   11.40    2.00
   6   2   5   13.60    2.50
  -7  -2  -5  204.58    6.70
   7  -2   5  201.48    9.00
  -7  -2  -5  204.98    6.80
   7  -2   5  198.38    6.50
  -7   2  -5  195.08    6.50
   7   2   5  208.18    9.20
   8  -2   5   13.60    3.00
   8   2   5   12.50    3.10
   9  -2   5   63.09    5.40
   9   2   5   57.09    5.30
  10  -2   5   20.20    4.00
  10   2   5   26.30    4.20
  11  -2   5    2.60    2.70
  11   2   5    6.60    3.20
  12  -2   5    6.10    3.30
  12   2   5   13.90    4.00
  12  -3  -5    6.30    3.20
  12   3  -5    1.90    3.00
  11  -3  -5   67.19    6.40
  11   3  -5   80.39    7.00
  10  -3  -5    4.60    2.60
  10   3  -5    4.50    2.90
   9  -3  -5   23.70    3.90
   9   3  -5   28.60    4.30
  -8  -3   5   17.70    1.70
   8  -3  -5   21.20    3.30
   8  -3  -5   16.00    1.60
   8   3  -5   18.10    3.40
   7  -3  -5   38.50    4.20
   7  -3  -5   33.00    2.10
   7  -3  -5   31.90    2.00
  -7  -3   5   30.60    2.20
   7   3  -5   31.20    2.20
   7   3  -5   34.20    3.90
  -6  -3   5  151.38    7.00
   6  -3  -5  162.98    6.00
   6  -3  -5  165.28    7.40
  -6  -3   5  159.68    6.10
   6   3  -5  155.38    7.30
   6   3  -5  157.28    6.00
   5  -3  -5   83.39    4.40
  -5  -3   5   77.79    4.30
  -5  -3   5   85.59    3.90
   5  -3  -5   84.19    4.60
   5  -3  -5   81.69    3.70
   5   3  -5   83.89    4.60
   5   3  -5   84.89    3.80
  -5   3   5   88.79    3.70
   4  -3  -5  778.82   24.10
  -4  -3   5  758.22   24.40
  -4  -3   5  765.32   24.20
   4  -3  -5  767.02   24.70
   4   3  -5  757.42   24.10
  -4   3   5  780.62   24.00
   4   3  -5  766.52   24.60
   3  -3  -5   82.39    3.80
  -3  -3   5   81.59    3.70
  -3  -3   5   76.79    3.60
   3  -3  -5   78.69    3.60
  -3   3   5   82.19    3.60
   3   3  -5   78.79    3.60
  -3   3   5   81.99    4.00
   3   3  -5   82.79    3.70
  -2  -3   5  931.91   29.80
   2  -3  -5  967.80   29.70
  -2  -3   5  963.90   29.60
   2   3  -5  981.70   29.90
  -2   3   5  966.50   29.80
  -2   3   5  961.70   29.60
   2   3  -5  945.31   29.30
  -1  -3   5  319.07    9.70
  -1  -3   5  309.17   10.60
   1  -3  -5  305.17   10.50
   1  -3  -5  306.07   10.40
  -1   3   5  300.37   10.40
  -1   3   5  316.77   10.50
   1   3  -5  321.17    9.70
   1   3  -5  323.07   10.70
   0  -3  -5 1334.07   41.30
   0  -3   5 1339.47   41.40
   0   3  -5 1377.66   41.50
   0   3   5 1331.07   41.30
   0   3   5 1381.06   41.20
   1  -3   5   17.10    1.80
  -1  -3  -5   19.90    2.00
  -1  -3  -5   16.90    1.80
   1  -3   5   17.90    1.00
  -1   3  -5   16.10    0.90
  -1   3  -5   18.40    2.00
   1   3   5   16.70    1.60
   1   3   5   18.90    1.80
   2  -3   5  109.59    4.00
  -2  -3  -5  101.19    4.40
   2  -3   5  111.29    4.50
  -2  -3  -5  106.59    4.70
  -2   3  -5  112.69    4.20
   2   3   5  108.99    4.40
  -2   3  -5  107.79    4.50
   2   3   5  108.49    4.70
   3  -3   5  415.86   13.60
  -3  -3  -5  411.06   13.60
   3  -3   5  417.56   13.60
  -3  -3  -5  406.86   14.10
  -3   3  -5  414.96   13.60
   3   3   5  419.76   14.20
   3   3   5  401.66   13.50
  -3   3  -5  425.76   13.50
   4  -3   5   10.20    1.80
  -4  -3  -5   14.50    1.80
  -4  -3  -5   13.80    2.30
   4  -3   5   14.50    1.70
   4   3   5   13.60    2.20
  -4   3  -5   14.80    1.80
  -4   3  -5   16.20    1.80
   4   3   5   13.20    1.50
  -5  -3  -5  263.07   10.50
   5  -3   5  267.67    9.20
  -5  -3  -5  272.17    9.20
   5  -3   5  277.67   10.20
  -5  -3  -5  269.37    9.30
  -5   3  -5  264.27    9.90
   5   3   5  267.07   10.50
  -5   3  -5  277.77    9.20
  -6  -3  -5    3.60    1.00
   6  -3   5    3.70    1.60
  -6  -3  -5    3.90    1.10
   6  -3   5    0.80    0.80
  -6   3  -5    2.00    1.20
  -6   3  -5    3.00    0.90
   7  -3   5   44.10    4.00
  -7  -3  -5   42.80    2.20
   7   3   5   41.20    4.60
  -7   3  -5   41.90    2.10
   8  -3   5   36.50    4.70
   8   3   5   24.60    3.90
   9  -3   5   65.79    5.40
   9   3   5   60.89    5.50
  10  -3   5   66.99    6.00
  10   3   5   77.09    6.40
  11  -3   5    9.50    3.20
  11   3   5   10.90    3.30
  12  -4  -5    9.50    3.80
  12   4  -5   17.50    4.50
  11  -4  -5   36.90    5.40
  11   4  -5   35.70    5.50
  10  -4  -5    0.90    2.80
  10   4  -5    1.10    2.80
   9  -4  -5   81.39    5.90
   9   4  -5   68.79    5.80
   8  -4  -5   24.80    2.00
   8  -4  -5   31.60    4.50
   8  -4  -5   22.10    1.90
  -8  -4   5   23.10    2.20
   8   4  -5   21.70    2.10
   8   4  -5   23.20    3.50
   7  -4  -5  142.99    5.60
   7  -4  -5  147.99    7.30
   7  -4  -5  144.99    5.70
  -7  -4   5  144.39    5.80
   7   4  -5  142.29    7.30
   7   4  -5  144.89    5.70
   6  -4  -5   19.90    2.00
  -6  -4   5   18.00    2.60
  -6  -4   5   15.80    1.90
   6  -4  -5   14.50    2.50
   6  -4  -5   19.30    1.80
   6   4  -5   17.20    2.80
   6   4  -5   17.90    2.00
   5  -4  -5  187.28    7.80
   5  -4  -5  189.38    7.90
   5  -4  -5  190.68    7.00
  -5  -4   5  183.58    7.10
   5   4  -5  188.78    7.80
   5   4  -5  190.58    7.10
   4  -4  -5   82.49    4.20
  -4  -4   5   87.69    4.00
  -4  -4   5   82.59    4.10
   4  -4  -5   84.19    4.30
   4  -4  -5   85.19    3.90
  -4   4   5   85.69    3.80
   4   4  -5   82.99    3.90
   4   4  -5   82.89    4.20
  -3  -4   5  682.93   21.60
   3  -4  -5  710.33   21.70
  -3  -4   5  653.83   21.80
  -3   4   5  683.73   21.60
  -3   4   5  692.83   22.10
   3   4  -5  668.83   21.80
   3   4  -5  691.73   21.70
   2  -4  -5  179.38    6.60
  -2  -4   5  173.18    6.70
   2  -4  -5  179.78    6.60
  -2  -4   5  174.28    6.10
   2   4  -5  175.88    6.40
  -2   4   5  177.18    6.70
   2   4  -5  174.08    6.70
  -2   4   5  170.88    6.50
   1  -4  -5  493.45   16.00
  -1  -4   5  497.65   16.30
   1  -4  -5  494.75   16.10
  -1  -4   5  505.45   15.20
  -1   4   5  483.95   16.00
   1   4  -5  501.85   15.20
   1   4  -5  493.95   16.30
  -1   4   5  500.65   16.10
   0  -4  -5   14.40    1.60
   0  -4   5   16.80    1.90
   0  -4  -5   16.60    1.80
   0   4   5   17.30    1.60
   0   4  -5   13.30    1.70
   0   4   5   18.60    1.70
  -1  -4  -5  156.98    6.10
  -1  -4  -5  156.28    6.10
   1  -4   5  158.28    5.10
   1  -4   5  160.88    6.20
   1  -4   5  159.78    5.10
   1   4   5  157.78    6.00
   1   4   5  156.58    6.10
  -1   4  -5  161.98    6.20
  -2  -4  -5  755.02   24.00
  -2  -4  -5  747.13   24.30
   2  -4   5  742.63   24.10
   2  -4   5  775.72   23.40
   2   4   5  767.02   24.30
   2   4   5  760.92   24.00
  -2   4  -5  782.72   24.10
   3  -4   5  600.84   18.80
  -3  -4  -5  576.44   19.50
   3  -4   5  594.04   19.00
  -3  -4  -5  589.64   18.90
   3   4   5  600.54   18.80
   3   4   5  575.44   19.40
  -3   4  -5  597.64   19.00
  -3   4  -5  577.44   18.60
   4  -4   5  650.23   20.40
   4  -4   5  629.44   20.10
  -4  -4  -5  635.64   20.00
  -4  -4  -5  620.84   20.00
  -4  -4  -5  612.14   21.00
  -4   4  -5  624.24   20.10
  -4   4  -5  636.74   20.10
   4   4   5  600.84   20.90
  -5  -4  -5   13.00    1.80
  -5  -4  -5   14.60    1.70
   5  -4   5   19.80    2.60
   5  -4   5   17.90    2.00
  -5   4  -5   15.10    1.80
  -5   4  -5   12.60    1.90
   5   4   5   12.80    2.40
   6  -4   5  170.78    7.60
  -6  -4  -5  178.38    6.60
   6  -4   5  172.48    6.50
  -6  -4  -5  168.48    6.40
  -6   4  -5  167.78    7.20
   6   4   5  175.98    8.10
  -6   4  -5  172.28    6.40
   7  -4   5  360.16   14.40
   7  -4   5  347.87   11.80
  -7  -4  -5  363.66   11.90
  -7  -4  -5  367.06   12.00
  -7   4  -5  356.56   11.70
   7   4   5  350.36   14.10
  -8  -4  -5  172.58    6.30
   8  -4   5  196.88    9.00
   8  -4   5  185.38    6.40
   8   4   5  174.88    9.10
   9  -4   5  185.88    9.20
   9   4   5  161.88    9.20
  10  -4   5   16.00    3.50
  11  -4   5   30.60    5.00
  11   4   5   25.70    4.80
  12  -5  -5   25.30    5.00
  12   5  -5   19.70    4.50
  11  -5  -5    5.70    3.30
  11   5  -5    4.20    3.20
  10  -5  -5   41.10    5.30
  10   5  -5   64.79    5.90
   9  -5  -5   17.50    1.80
   9  -5  -5   20.90    1.80
   9  -5  -5   18.40    3.70
  -9  -5   5   21.80    2.20
   9   5  -5   25.00    4.10
   8  -5  -5   55.39    3.00
   8  -5  -5   48.00    2.90
  -8  -5   5   47.80    3.20
   8  -5  -5   50.09    5.40
   8   5  -5   50.59    4.70
   8   5  -5   50.49    3.20
   7  -5  -5   31.90    4.00
   7  -5  -5   32.20    2.50
  -7  -5   5   30.60    2.60
   7  -5  -5   32.40    2.40
   7   5  -5   33.30    3.90
   7   5  -5   32.20    2.60
   6  -5  -5  194.08    9.10
   6  -5  -5  192.78    7.40
   6  -5  -5  210.68    7.60
  -6  -5   5  190.08    7.60
   6   5  -5  192.08    8.50
   6   5  -5  203.68    7.60
  -5  -5   5  234.48    8.70
   5  -5  -5  242.08    8.60
   5  -5  -5  227.88    9.10
   5  -5  -5  237.38    8.50
  -5  -5   5  226.48    9.00
   5  -5  -5  240.48    9.40
   5   5  -5  227.38    8.60
   5   5  -5  225.38    9.10
   4  -5  -5   37.30    2.50
  -4  -5   5   37.20    2.60
   4  -5  -5   33.90    2.50
   4  -5  -5   40.40    2.80
  -4  -5   5   33.30    2.60
   4   5  -5   34.40    2.70
  -4   5   5   37.00    3.10
   4   5  -5   40.20    2.80
   3  -5  -5 1355.76   43.00
  -3  -5   5 1393.76   42.60
   3  -5  -5 1383.86   42.80
  -3  -5   5 1379.26   43.00
   3   5  -5 1410.36   43.00
   3   5  -5 1386.86   42.70
  -3   5   5 1410.96   43.20
  -3   5   5 1400.66   42.80
   2  -5  -5  884.81   28.10
  -2  -5   5  909.41   27.50
  -2  -5   5  895.41   28.30
   2   5  -5  889.01   28.20
   2   5  -5  892.71   27.80
  -2   5   5  873.01   28.00
  -2   5   5  905.71   28.20
   1  -5  -5  437.16   14.30
   1  -5  -5  411.76   14.30
  -1  -5   5  428.86   14.50
  -1  -5   5  436.86   13.40
   1   5  -5  439.66   13.40
  -1   5   5  434.76   14.30
   1   5  -5  441.36   14.50
  -1   5   5  409.26   14.20
   0  -5  -5    8.20    1.50
   0  -5   5   11.60    0.80
   0  -5  -5   12.20    1.70
   0  -5   5   10.70    1.60
   0   5  -5   10.90    1.70
   0   5  -5   11.60    0.80
   0   5   5    9.90    1.40
   0   5   5    8.50    1.50
  -1  -5  -5  538.25   18.30
  -1  -5  -5  572.04   18.40
   1  -5   5  570.84   17.20
   1  -5   5  587.04   17.10
   1  -5   5  558.44   18.50
   1   5   5  558.84   18.30
   1   5   5  556.34   18.30
  -1   5  -5  566.44   18.50
   2  -5   5    2.70    1.10
  -2  -5  -5    2.90    1.20
  -2  -5  -5    3.90    1.20
   2  -5   5    5.60    1.00
   2   5   5    2.50    1.20
  -2   5  -5    4.10    1.30
   2   5   5    2.80    1.10
  -3  -5  -5  226.48    9.40
   3  -5   5  230.28    8.00
  -3  -5  -5  228.18    8.40
   3  -5   5  236.38    8.00
  -3  -5  -5  229.08    8.40
   3  -5   5  224.68    8.40
   3   5   5  225.98    8.90
  -3   5  -5  225.58    8.40
   4  -5   5   59.89    3.30
   4  -5   5   62.79    3.40
  -4  -5  -5   61.99    3.40
  -4  -5  -5   64.29    3.30
  -4  -5  -5   63.59    3.90
  -4   5  -5   59.49    3.30
   4   5   5   61.59    4.00
   5  -5   5  128.19    5.80
  -5  -5  -5  125.29    5.40
  -5  -5  -5  122.89    5.20
   5  -5   5  123.39    5.20
   5   5   5  124.59    6.30
  -5   5  -5  114.39    5.30
  -5   5  -5  120.09    5.10
  -6  -5  -5   38.20    2.50
   6  -5   5   31.40    2.50
  -6  -5  -5   34.10    2.60
   6  -5   5   39.00    3.30
   6   5   5   33.40    3.90
  -6   5  -5   38.40    2.50
  -6   5  -5   34.10    2.80
   7  -5   5   52.89    4.40
  -7  -5  -5   49.50    2.90
   7  -5   5   39.40    2.70
  -7  -5  -5   50.19    3.10
   7   5   5   47.90    4.40
  -7   5  -5   49.80    2.70
   8  -5   5   31.70    2.10
  -8  -5  -5   36.00    2.60
  -8  -5  -5   31.80    2.30
   8  -5   5   47.90    5.00
   8   5   5   36.90    4.70
   9  -5   5    5.40    2.70
  -9  -5  -5    2.20    1.10
   9   5   5    3.70    2.50
  10  -5   5   51.49    5.70
  10   5   5   45.60    6.10
  11  -5   5    1.00    2.60
  11   5   5    3.50    2.80
  12  -6  -5    4.40    3.30
  12   6  -5    4.80    3.50
  11  -6  -5   30.70    5.10
  11   6  -5   41.70    5.80
 -10  -6   5   71.49    3.60
 -10  -6   5   63.09    3.40
  10  -6  -5   73.49    6.20
  10   6  -5   82.99    6.50
   9  -6  -5   93.69    6.60
   9  -6  -5   95.19    4.30
   9  -6  -5   88.89    4.20
  -9  -6   5   93.69    4.60
   9   6  -5  104.19    6.80
   9   6  -5   88.09    4.50
  -8  -6   5   83.79    4.50
   8  -6  -5   87.49    4.20
   8  -6  -5   87.09    4.30
   8  -6  -5   84.39    5.90
   8   6  -5   90.39    4.50
   8   6  -5   91.39    6.10
  -7  -6   5   34.40    2.90
   7  -6  -5   33.20    2.70
   7  -6  -5   36.50    4.20
   7  -6  -5   35.10    2.80
   7   6  -5   40.60    3.90
   7   6  -5   34.40    3.00
   6  -6  -5   15.70    2.20
   6  -6  -5   22.50    3.40
   6  -6  -5   20.20    2.30
  -6  -6   5   15.90    2.20
   6   6  -5   22.20    2.50
   6   6  -5   16.80    2.60
  -5  -6   5  448.06   16.40
  -5  -6   5  474.15   16.20
   5  -6  -5  482.95   16.80
   5  -6  -5  497.35   16.10
   5  -6  -5  480.95   16.00
   5   6  -5  488.15   16.60
   5   6  -5  478.45   16.10
  -4  -6   5   69.29    3.90
   4  -6  -5   73.99    3.90
  -4  -6   5   71.09    3.80
   4  -6  -5   67.29    3.70
   4  -6  -5   67.89    3.90
  -4   6   5   71.79    4.30
   4   6  -5   73.29    4.00
   4   6  -5   71.89    3.90
   3  -6  -5  448.46   15.30
  -3  -6   5  478.05   15.60
  -3  -6   5  451.35   15.00
   3  -6  -5  439.66   15.30
   3   6  -5  465.15   15.10
  -3   6   5  446.46   15.50
   3   6  -5  458.95   15.50
   2  -6  -5  309.77   11.10
  -2  -6   5  318.07   11.30
  -2  -6   5  307.67   10.40
   2  -6  -5  302.67   10.90
   2  -6  -5  318.47   11.10
   2   6  -5  319.87   11.30
   2   6  -5  314.67   10.40
  -2   6   5  314.17   11.10
  -1  -6   5 1709.53   52.29
   1  -6  -5 1637.74   51.89
   1  -6  -5 1725.43   52.19
  -1  -6   5 1716.43   51.09
   1  -6  -5 1666.23   51.99
   1   6  -5 1727.93   50.99
   1   6  -5 1690.63   52.19
  -1   6   5 1693.13   51.99
   0  -6  -5  133.99    5.60
   0  -6   5  136.79    4.60
   0  -6  -5  128.59    5.60
   0  -6  -5  128.69    5.70
   0  -6   5  136.79    5.90
   0   6  -5  137.39    4.50
   0   6   5  130.69    5.50
   0   6  -5  137.39    5.90
  -1  -6  -5  313.67   10.90
   1  -6   5  303.17   10.90
  -1  -6  -5  300.77   10.80
  -1  -6  -5  296.37   10.80
   1  -6   5  302.17    9.60
  -1   6  -5  302.57   10.90
   1   6   5  304.97   10.80
  -2  -6  -5  615.64   19.90
  -2  -6  -5  603.44   19.80
   2  -6   5  585.44   20.00
   2  -6   5  598.84   20.00
   2  -6   5  624.24   18.80
  -2   6  -5  605.14   19.90
   2   6   5  614.44   20.10
  -3  -6  -5  136.99    6.40
   3  -6   5  145.29    5.60
  -3  -6  -5  126.69    5.90
   3  -6   5  143.79    5.40
   3  -6   5  143.09    6.10
  -3  -6  -5  151.48    6.10
   3   6   5  144.59    6.40
  -3   6  -5  150.78    6.10
   4  -6   5  814.42   25.30
   4  -6   5  790.22   25.50
   4  -6   5  790.12   25.10
  -4  -6  -5  804.42   25.40
  -4  -6  -5  802.02   25.40
   4   6   5  755.32   26.10
  -4   6  -5  790.82   25.40
   5  -6   5    0.90    1.40
   5  -6   5    0.10    1.00
  -5  -6  -5    2.30    1.40
  -5  -6  -5    0.90    1.10
   5  -6   5    2.00    1.10
  -5   6  -5    1.40    1.10
   5   6   5    1.90    1.60
   6  -6   5  561.24   19.00
   6  -6   5  609.24   20.00
   6  -6   5  560.94   19.50
  -6  -6  -5  556.34   18.90
  -6  -6  -5  597.04   19.10
   6   6   5  557.14   20.50
  -6   6  -5  596.64   18.90
   7  -6   5    7.00    1.50
   7  -6   5    9.40    2.50
  -7  -6  -5    5.60    1.50
  -7  -6  -5    6.60    1.70
   7   6   5    4.30    2.00
  -7   6  -5    6.70    1.50
  -8  -6  -5   72.59    3.70
  -8  -6  -5   79.99    4.10
   8  -6   5   65.09    3.60
   8  -6   5   70.29    5.30
   8   6   5   75.99    5.80
   9  -6   5  185.38    7.10
  -9  -6  -5  197.28    7.30
  -9  -6  -5  187.68    7.10
   9  -6   5  210.38    9.90
   9   6   5  213.88   10.50
  10  -6   5  107.59    7.30
  10   6   5  108.09    7.80
  11  -6   5   19.00    4.00
  11   6   5   29.60    5.40
  12  -7  -5    2.40    3.10
  12   7  -5    2.20    3.20
  11  -7  -5    0.80    2.90
  11   7  -5    2.20    3.00
  10  -7  -5   48.00    2.90
  10  -7  -5   41.20    2.90
 -10  -7   5   58.49    3.60
  10  -7  -5   61.39    5.80
 -10  -7   5   50.09    3.50
  10   7  -5   63.59    6.10
  -9  -7   5   28.10    3.00
   9  -7  -5   32.70    4.50
   9  -7  -5   32.80    2.70
   9  -7  -5   26.00    2.60
   9   7  -5   29.70    3.10
   9   7  -5   35.40    4.90
   8  -7  -5    8.60    1.80
   8  -7  -5   11.10    3.00
   8  -7  -5    8.20    1.80
   8   7  -5   12.00    3.00
   8   7  -5    7.10    1.90
  -7  -7   5   48.20    3.60
   7  -7  -5   46.60    3.40
   7  -7  -5   52.59    3.50
   7  -7  -5   57.69    4.70
   7   7  -5   51.19    4.50
   7   7  -5   53.59    3.70
   6  -7  -5  141.59    6.90
  -6  -7   5  139.49    6.50
   6  -7  -5  144.09    6.40
   6  -7  -5  154.38    7.30
   6   7  -5  143.29    7.10
   6   7  -5  149.09    6.50
   5  -7  -5  191.78    7.80
  -5  -7   5  196.98    8.10
   5  -7  -5  210.38    8.60
  -5  -7   5  179.98    7.90
   5   7  -5  210.88    8.40
   5   7  -5  192.38    8.00
   4  -7  -5    3.10    1.40
   4  -7  -5    5.60    1.50
  -4  -7   5    4.40    1.70
  -4  -7   5    5.60    1.50
   4   7  -5    5.40    1.50
   4   7  -5    3.90    1.70
  -4   7   5    1.20    1.40
   3  -7  -5  997.80   33.60
   3  -7  -5 1010.40   32.20
  -3  -7   5 1010.30   31.80
   3  -7  -5 1004.00   32.30
  -3   7   5 1048.90   32.50
   3   7  -5 1030.80   32.40
   3   7  -5 1018.60   31.80
   2  -7  -5  761.32   25.10
  -2  -7   5  776.82   24.40
   2  -7  -5  772.92   26.30
  -2   7   5  788.92   25.10
   2   7  -5  778.02   25.30
   2   7  -5  789.12   24.30
  -1  -7   5  618.54   19.20
   1  -7  -5  601.24   20.00
   1  -7  -5  620.54   21.60
   1  -7  -5  595.24   20.20
  -1   7   5  624.44   20.10
   1   7  -5  618.74   20.40
   0  -7  -5   28.90    2.40
   0  -7   5   28.40    1.70
   0  -7  -5   23.30    2.60
   0  -7   5   27.40    3.20
   0   7   5   27.90    2.40
   0   7  -5   28.70    1.60
   0   7  -5   27.70    3.00
  -1  -7  -5  935.31   30.00
   1  -7   5  937.11   30.90
  -1  -7  -5  965.40   31.40
  -1   7  -5  933.51   30.00
   1   7   5  923.71   29.90
  -1   7  -5  951.20   28.70
  -2  -7  -5   22.20    2.60
  -2  -7  -5   22.30    2.70
   2  -7   5   19.30    1.60
   2  -7   5   17.80    2.60
   2  -7   5   15.10    1.30
  -2   7  -5   18.00    2.40
   2   7   5   14.80    2.20
  -3  -7  -5  193.48    7.80
   3  -7   5  197.88    7.20
   3  -7   5  193.88    8.60
  -3  -7  -5  196.98    8.20
   3  -7   5  196.58    7.00
  -3  -7  -5  200.08    8.40
  -3   7  -5  186.88    7.80
   3   7   5  192.98    8.10
   4  -7   5   57.19    3.40
  -4  -7  -5   58.19    3.80
  -4  -7  -5   59.49    3.60
   4  -7   5   54.19    4.00
   4  -7   5   58.49    3.20
  -4   7  -5   54.69    3.50
   4   7   5   54.09    4.00
   5  -7   5  200.48    9.20
  -5  -7  -5  210.48    8.60
   5  -7   5  233.98    8.80
  -5  -7  -5  225.38    8.80
  -5   7  -5  230.18    8.60
   5   7   5  224.38    9.60
  -6  -7  -5   13.10    2.10
   6  -7   5   16.60    2.70
   6  -7   5   14.70    2.40
   6  -7   5    9.50    2.00
  -6  -7  -5   16.80    2.50
  -6   7  -5   16.40    2.30
   6   7   5   12.00    2.90
   7  -7   5    8.60    2.40
   7  -7   5    9.90    1.80
  -7  -7  -5    7.50    2.10
  -7   7  -5    8.90    1.80
   7   7   5    7.70    2.80
   8  -7   5    1.20    1.30
  -8  -7  -5   -0.10    1.20
  -8  -7  -5    1.70    1.60
   8  -7   5    4.80    2.30
   8   7   5    0.60    2.00
  -8   7  -5    1.10    1.20
  -9  -7  -5    8.70    1.90
   9  -7   5    2.60    1.20
   9  -7   5    4.90    2.60
  -9  -7  -5    5.70    1.50
   9  -7   5    3.70    1.30
   9   7   5    5.50    3.10
 -10  -7  -5   17.50    3.10
  10  -7   5   26.10    4.30
 -10  -7  -5   18.70    1.80
  10   7   5   20.30    4.00
  11  -7   5   -1.20    2.30
  11   7   5    0.90    3.00
  11  -8  -5   31.00    5.60
 -11  -8   5   31.40    2.80
  11   8  -5   31.40    5.30
  10  -8  -5   23.60    6.40
  10  -8  -5   12.70    2.00
 -10  -8   5    9.90    2.30
  10  -8  -5   11.50    2.00
  10   8  -5   11.00    3.80
   9  -8  -5    4.10    2.70
   9  -8  -5    9.60    2.00
  -9  -8   5    5.60    2.00
   9   8  -5    5.80    2.80
   9   8  -5    5.40    1.90
   8  -8  -5    2.90    1.70
   8  -8  -5    2.40    1.50
  -8  -8   5    4.50    1.90
   8  -8  -5    4.80    2.50
   8   8  -5    1.60    2.10
   8   8  -5    6.70    2.10
   7  -8  -5    6.30    1.80
   7  -8  -5   13.50    2.90
  -7  -8   5    7.20    1.90
   7  -8  -5    7.20    1.80
   7   8  -5   10.20    2.20
   7   8  -5    7.60    2.40
   6  -8  -5    0.00    1.80
  -6  -8   5    1.80    1.50
   6  -8  -5    3.80    1.50
   6  -8  -5    2.20    1.60
   6   8  -5    2.70    1.60
  -5  -8   5   83.99    4.70
  -5  -8   5   74.89    4.70
   5  -8  -5   74.59    4.40
   5  -8  -5   85.69    4.70
  -5   8   5   84.99    5.90
   5   8  -5   88.59    4.90
   5   8  -5   89.49    5.00
  -4  -8   5  127.79    6.20
  -4  -8   5  125.69    6.00
   4  -8  -5  106.59    5.50
   4  -8  -5  121.19    5.70
   4   8  -5  116.49    5.50
  -4   8   5  114.99    6.00
   4   8  -5  126.19    5.90
   3  -8  -5  250.77    9.70
   3  -8  -5  249.88    9.60
   3  -8  -5  254.57    9.80
  -3  -8   5  254.37    9.30
  -3  -8   5  236.48    9.80
  -3   8   5  257.57    9.90
   3   8  -5  252.27    9.90
   3   8  -5  263.57    9.30
   2  -8  -5   19.10    2.40
  -2  -8   5   21.60    2.70
  -2  -8   5   19.40    2.00
   2  -8  -5   14.70    2.30
   2  -8  -5   14.80    2.20
   2   8  -5   16.50    1.80
   2   8  -5   13.30    2.20
  -2   8   5   16.90    2.30
   1  -8  -5  223.88    9.00
  -1  -8   5  232.58    8.00
   1  -8  -5  219.68    9.00
   1  -8  -5  232.38    8.80
  -1  -8   5  235.58    9.20
   1   8  -5  215.78    9.00
   1   8  -5  234.18    7.90
  -1   8   5  230.48    8.80
   0  -8   5   48.20    3.50
   0  -8   5   48.90    2.40
   0  -8  -5   45.50    3.10
   0  -8  -5   44.80    3.30
   0  -8  -5   48.40    3.50
   0   8  -5   42.00    3.40
   0   8  -5   52.59    2.90
   0   8   5   43.80    3.20
  -1  -8  -5   65.09    4.00
  -1  -8  -5   66.59    4.20
   1  -8   5   65.79    4.10
  -1  -8  -5   68.69    4.00
   1  -8   5   74.99    3.00
   1   8   5   70.59    4.10
  -1   8  -5   72.29    3.40
  -1   8  -5   64.79    4.10
   2  -8   5  263.27   10.40
  -2  -8  -5  274.67   10.30
  -2  -8  -5  262.67   10.40
  -2  -8  -5  264.37   10.30
   2  -8   5  279.27    9.20
   2  -8   5  265.47    9.00
  -2   8  -5  269.97   10.30
   2   8   5  270.57   10.30
   3  -8   5    1.00    1.10
  -3  -8  -5    0.80    1.20
   3  -8   5   -0.50    1.00
   3  -8   5    0.90    0.90
  -3  -8  -5   -0.20    1.40
  -3   8  -5    0.40    1.20
   3   8   5    0.90    1.40
  -4  -8  -5  152.28    6.70
   4  -8   5  139.59    6.60
  -4  -8  -5  156.08    6.90
   4  -8   5  153.38    6.10
   4  -8   5  155.88    6.30
  -4   8  -5  148.39    6.70
   4   8   5  136.69    7.00
  -5  -8  -5   -0.30    1.30
   5  -8   5   -0.20    1.10
   5  -8   5    0.10    1.20
  -5  -8  -5   -1.10    1.50
   5  -8   5    0.40    1.40
   5   8   5    1.30    1.60
  -5   8  -5    1.80    1.40
   6  -8   5  198.88    8.50
   6  -8   5  217.18    9.00
  -6  -8  -5  220.68    8.90
  -6  -8  -5  211.88    8.60
  -6   8  -5  211.18    8.50
   6   8   5  215.38    9.90
   7  -8   5    3.60    1.50
  -7  -8  -5    7.30    2.20
   7  -8   5    4.80    2.10
  -7  -8  -5    3.40    1.60
   7   8   5    4.90    2.40
  -7   8  -5    3.00    1.60
  -8  -8  -5   96.39    5.20
   8  -8   5  102.89    6.20
  -8  -8  -5   75.79    4.60
  -8   8  -5   88.69    4.60
   8   8   5  104.89    6.90
  -9  -8  -5   33.70    4.00
  -9  -8  -5   54.59    3.80
   9  -8   5   57.79    6.20
   9  -8   5   30.00    2.90
   9  -8   5   47.40    3.10
   9   8   5   44.90    5.40
 -10  -8  -5   24.30    2.60
  10  -8   5   27.30    2.20
  10  -8   5   29.00    4.60
  10   8   5   36.80    5.40
  11  -9  -5   20.60    4.40
 -11  -9   5   18.10    2.60
  11  -9  -5   16.70    2.10
  11   9  -5   29.90    5.10
 -10  -9   5    8.10    2.50
  10  -9  -5   10.10    3.70
  10  -9  -5    9.80    2.00
  10   9  -5   12.10    3.70
   9  -9  -5   23.20    2.90
   9  -9  -5   20.20    4.10
   9  -9  -5   11.10    2.30
   9   9  -5   13.80    2.80
   9   9  -5   25.90    4.30
   8  -9  -5   22.60    3.70
   8  -9  -5   25.10    3.00
   8   9  -5   22.20    3.20
   8   9  -5   24.50    3.80
   7  -9  -5    8.10    2.70
   7  -9  -5    6.20    2.00
   7   9  -5    5.30    2.10
   7   9  -5    7.10    2.40
   6  -9  -5   61.79    4.90
   6  -9  -5   61.69    4.30
   6   9  -5   62.99    4.60
   6   9  -5   62.09    4.70
   5  -9  -5    0.10    1.40
   5   9  -5    0.90    1.60
  -5   9   5    1.50    1.90
   5   9  -5   -0.80    1.50
  -4  -9   5   48.70    3.50
   4  -9  -5   54.79    3.80
  -4   9   5   51.29    4.60
   4   9  -5   52.59    3.60
   4   9  -5   55.19    4.10
   3  -9  -5    2.80    1.60
  -3  -9   5    4.50    1.40
   3   9  -5    5.60    1.50
  -3   9   5    1.90    1.50
   3   9  -5    4.20    1.80
  -2  -9   5  248.68    9.00
   2  -9  -5  255.47   10.00
   2  -9  -5  246.38    9.70
   2   9  -5  248.68   10.10
  -2   9   5  244.18    9.80
   2   9  -5  255.77    8.90
   1  -9  -5   97.39    5.00
   1  -9  -5   98.39    5.40
  -1  -9   5   99.69    4.30
  -1   9   5  104.09    5.20
   1   9  -5   99.09    4.20
   1   9  -5  105.89    5.50
   0  -9   5   57.59    2.80
   0  -9  -5   55.39    4.00
   0  -9  -5   53.79    3.60
   0   9   5   56.69    3.70
   0   9  -5   60.19    2.90
   0   9  -5   56.09    4.00
  -1  -9  -5  219.18   11.20
  -1  -9  -5  195.68    8.40
   1  -9   5  202.68    7.00
  -1   9  -5  196.08    7.00
   1   9   5  189.38    8.10
  -1   9  -5  186.98    8.30
  -2  -9  -5  203.78    8.40
   2  -9   5  184.68    6.90
   2  -9   5  197.28    7.10
  -2   9  -5  188.48    8.20
   2   9   5  192.28    8.20
   3  -9   5   86.39    4.00
   3  -9   5   89.49    4.20
  -3  -9  -5   91.69    5.20
   3   9   5   80.29    5.60
  -3   9  -5   89.39    5.00
   4  -9   5   59.49    3.60
  -4  -9  -5   53.79    4.30
   4  -9   5   54.49    3.20
  -4   9  -5   51.99    4.00
   4   9   5   61.39    4.50
   5  -9   5  251.77   10.20
   5  -9   5  266.57   10.00
  -5  -9  -5  288.47   10.90
  -5   9  -5  262.17   10.40
   5   9   5  264.87   11.30
  -6  -9  -5    4.80    2.20
   6  -9   5    6.40    2.20
   6   9   5    4.00    2.30
  -6   9  -5    4.40    1.80
   7  -9   5   59.79    4.70
  -7  -9  -5   65.89    4.70
   7   9   5   64.49    5.50
  -7   9  -5   67.79    4.20
   8  -9   5   32.00    3.50
  -8  -9  -5   41.30    4.10
   8  -9   5   38.90    4.60
   8   9   5   41.00    5.20
  -8   9  -5   37.10    3.20
  -9  -9  -5  124.59    6.50
   9  -9   5  119.19    5.80
   9  -9   5  131.79    7.80
   9   9   5  141.69    8.70
 -10  -9  -5   20.80    2.70
  10  -9   5   18.60    2.10
  10  -9   5   26.70    4.40
  10   9   5   21.60    4.60
 -11 -10   5   14.90    2.80
  11 -10  -5   10.80    2.20
  11 -10  -5   14.20    4.20
  11  10  -5   17.70    4.70
  10 -10  -5    7.00    2.10
  10 -10  -5   12.80    3.80
  10  10  -5    7.60    3.50
   9 -10  -5   34.20    5.50
   9 -10  -5   31.00    4.90
   9  10  -5   25.30    3.50
   9  10  -5   37.20    5.20
   8 -10  -5    4.80    2.40
   8 -10  -5    7.00    3.20
   8  10  -5    2.60    2.50
   8  10  -5    2.90    2.20
   7 -10  -5    2.80    1.90
   7 -10  -5    3.60    2.50
   7  10  -5    2.70    2.00
   7  10  -5    7.20    2.50
   6 -10  -5    6.60    2.10
   6 -10  -5    7.80    2.80
   6  10  -5    3.90    2.00
   6  10  -5    7.50    2.40
   5 -10  -5    2.80    2.00
   5  10  -5    3.30    1.80
  -5  10   5    1.10    2.10
   5  10  -5    1.30    2.20
  -4 -10   5  167.48    7.40
   4 -10  -5  168.08    9.10
  -4  10   5  172.38    8.00
   4  10  -5  157.58    7.70
   4  10  -5  171.08    7.30
  -3 -10   5   22.90    2.70
   3  10  -5   21.60    3.20
   3  10  -5   21.60    2.50
  -2 -10   5    7.40    1.60
   2  10  -5    8.60    3.00
  -2  10   5   10.40    2.10
   2  10  -5    8.10    1.60
  -1 -10   5    1.40    1.00
  -1  10   5   -1.00    1.20
   1  10  -5    1.90    1.10
   0 -10   5    7.70    1.40
   0  10   5    5.00    1.70
   0  10  -5    4.10    1.30
   1 -10   5   69.59    3.30
   1  10   5   61.59    4.30
  -1  10  -5   66.09    3.30
   2 -10   5   15.60    1.80
  -2 -10  -5   17.80    3.60
   2  10   5   21.40    3.10
   3 -10   5   72.49    3.60
  -3 -10  -5   79.29    5.10
   3 -10   5   81.49    4.10
   3  10   5   69.09    4.90
  -4 -10  -5    0.80    2.00
   4 -10   5    3.30    1.50
   4 -10   5    0.30    1.10
   4  10   5    3.80    2.10
  -5 -10  -5    4.70    2.20
   5 -10   5    1.70    1.30
   5 -10   5    2.80    1.70
   5  10   5    1.60    1.80
  -5  10  -5    2.50    2.30
  -6 -10  -5   32.80    3.90
   6 -10   5   41.00    4.20
  -6  10  -5   31.80    4.10
   6  10   5   33.40    4.30
  -7 -10  -5    9.60    2.60
   7 -10   5    4.80    2.20
   7  10   5    8.60    2.90
   8 -10   5    2.30    2.30
  -8 -10  -5    3.30    2.20
   9 -10   5    6.80    2.70
   9 -10   5    6.60    2.10
   9  10   5    7.60    3.60
  10 -10   5   -3.00    2.30
  10 -10   5    2.30    1.60
 -10 -10  -5   -0.20    1.90
  10  10   5    2.80    3.00
  10 -11  -5   10.90    2.50
  10 -11  -5   19.80    4.80
 -10 -11   5    8.80    3.30
  10  11  -5   13.70    4.10
   9 -11  -5    0.80    1.90
   9 -11  -5   -1.40    2.90
   9  11  -5    4.50    2.90
   8 -11  -5   11.10    3.40
   8 -11  -5   13.50    2.90
   8  11  -5   10.80    3.20
   8  11  -5    9.80    2.70
   7 -11  -5    2.00    2.50
   7 -11  -5    3.40    2.00
   7  11  -5    3.30    2.30
   7  11  -5    6.10    2.60
   6 -11  -5    4.80    2.50
   6 -11  -5    2.80    2.00
   6  11  -5   -1.10    2.10
   6  11  -5    2.30    2.10
   5 -11  -5   12.50    2.60
   5  11  -5    9.50    2.60
  -5  11   5   13.70    3.10
   5  11  -5   15.40    4.50
   4 -11  -5   13.40    2.80
  -4 -11   5    8.30    2.40
   4  11  -5   11.60    2.40
   4  11  -5    4.60    2.60
  -4  11   5   10.80    2.60
  -3 -11   5   74.59    4.50
   3 -11  -5   85.19    5.40
  -3  11   5   91.19    5.40
   3  11  -5   85.49    4.60
   3  11  -5   82.19    5.50
   2 -11  -5    3.50    1.90
  -2 -11   5    3.70    1.50
   2  11  -5    3.60    1.40
  -2  11   5    1.10    1.60
   2  11  -5    1.00    2.00
   1 -11  -5   10.60    2.50
  -1 -11   5    9.50    1.70
   1  11  -5   12.90    2.50
  -1  11   5    7.40    2.40
   1  11  -5   12.20    1.90
   0 -11   5   25.40    2.20
   0 -11  -5   27.40    3.50
   0  11  -5   24.90    3.40
   0  11   5   28.10    3.30
   0  11  -5   26.00    2.30
  -1 -11  -5   -1.00    1.80
   1 -11   5    5.40    1.30
  -1  11  -5    4.00    1.90
   1  11   5    3.80    1.90
  -1  11  -5    6.70    1.50
  -2 -11  -5   15.80    3.00
   2 -11   5   20.00    2.00
   2  11   5   20.10    3.10
  -2  11  -5   23.10    2.50
  -2  11  -5   16.50    3.10
  -3 -11  -5   97.19    6.10
   3 -11   5   94.29    4.80
   3 -11   5   96.89    4.50
   3  11   5   93.19    5.80
  -3  11  -5  107.89    5.90
  -4 -11  -5   96.29    5.80
   4 -11   5   88.79    4.70
   4 -11   5   74.89    5.00
   4  11   5   82.09    5.60
  -4  11  -5   81.09    5.30
   5 -11   5   55.29    3.70
  -5 -11  -5   62.79    5.10
   5 -11   5   62.19    4.20
  -5  11  -5   65.59    4.70
   5  11   5   59.69    5.20
  -6 -11  -5    2.30    2.20
  -6  11  -5    0.50    1.80
   6  11   5    2.10    2.30
  -7 -11  -5   42.60    4.90
   7 -11   5   44.60    4.20
  -7  11  -5   44.90    4.00
   7  11   5   42.80    5.10
   8 -11   5    1.70    2.30
  -8 -11  -5   -0.50    2.00
   8  11   5   -0.30    2.60
   9 -11   5    4.40    2.00
  -9 -11  -5    4.40    2.70
   9 -11   5    8.20    2.90
   9  11   5    5.50    2.90
 -10 -12   5    1.40    2.70
  10 -12  -5   -1.60    1.90
  10 -12  -5   -1.50    2.60
  10  12  -5    0.40    2.70
   9 -12  -5    7.40    2.60
   9 -12  -5    6.60    3.30
   9  12  -5   10.80    6.00
   8 -12  -5   10.20    3.60
   8 -12  -5    6.60    2.70
   8  12  -5    7.00    2.80
   8  12  -5   16.60    3.70
   7 -12  -5   10.90    2.60
   7  12  -5    8.60    3.00
   7  12  -5    8.90    2.70
   6 -12  -5    1.20    2.20
   6 -12  -5   10.60    3.10
   6  12  -5    6.50    2.50
   6  12  -5    3.40    2.60
   5 -12  -5    3.60    2.30
  -5  12   5    8.60    2.80
   5  12  -5    4.80    2.60
   5  12  -5    6.90    2.40
   4 -12  -5   11.60    2.70
   4  12  -5    7.80    2.60
  -4  12   5   10.50    2.80
  -3 -12   5    4.00    1.60
   3 -12  -5    8.50    2.70
   3  12  -5    7.20    2.60
  -3  12   5    6.40    2.30
   3  12  -5    4.70    1.80
   2 -12  -5    8.20    2.30
   2  12  -5    3.10    1.70
  -2  12   5    3.40    2.00
   2  12  -5    5.90    2.40
   1 -12  -5   59.39    4.90
  -1 -12   5   61.89    3.70
   1  12  -5   66.09    3.80
  -1  12   5   67.99    4.60
   1  12  -5   58.59    4.80
   0 -12   5    3.50    1.30
   0 -12  -5    7.60    2.50
   0  12  -5    7.10    2.50
   0  12  -5    4.10    1.70
   0  12   5    6.80    2.30
   1 -12   5    0.50    1.00
  -1 -12  -5    0.10    1.70
  -1  12  -5    0.20    1.70
  -1  12  -5   -2.40    1.10
   1  12   5   -0.40    1.60
  -2 -12  -5    5.00    2.50
   2 -12   5    3.60    1.30
  -2  12  -5    2.70    1.90
   2  12   5    4.40    2.20
  -2  12  -5    6.70    1.70
   3 -12   5    2.00    1.60
   3 -12   5    2.60    1.30
  -3 -12  -5    1.80    2.30
   3  12   5    2.90    2.10
  -3  12  -5    2.90    2.00
   4 -12   5   14.70    2.20
   4 -12   5   20.70    2.90
  -4 -12  -5   20.60    3.60
  -4  12  -5   15.30    3.10
   4  12   5   18.60    3.50
   5 -12   5   51.09    4.10
  -5 -12  -5   51.59    5.00
  -5  12  -5   51.99    4.50
   5  12   5   43.90    5.10
   6 -12   5   47.20    4.20
  -6 -12  -5   47.80    5.10
  -6  12  -5   55.69    4.60
   6  12   5   45.80    5.30
  -7 -12  -5    0.60    2.50
   7 -12   5    1.60    2.00
  -7  12  -5    1.20    1.90
   8 -12   5   10.20    3.00
  -8 -12  -5   11.40    3.30
   8  12   5    5.90    3.20
  -9 -12  -5   21.20    3.80
   9 -12   5   11.70    3.20
   9 -12   5   16.30    2.90
   9  12   5   18.10    4.40
   9 -13  -5   -0.20    2.10
   9 -13  -5   -1.10    2.90
  -9 -13   5   -0.60    2.90
   9  13  -5    1.30    2.80
   8 -13  -5   63.09    5.30
   8 -13  -5   58.29    8.00
   8  13  -5   45.30    5.50
   8  13  -5   43.10    5.00
   7 -13  -5    2.80    2.40
   7 -13  -5    1.90    2.40
   7  13  -5    2.50    2.50
   7  13  -5    4.70    2.70
   6 -13  -5   65.19    5.80
   6 -13  -5   75.89    5.70
   6  13  -5   72.09    5.70
   6  13  -5   74.29    5.50
   5 -13  -5   11.50    2.90
  -5  13   5    5.90    3.00
   5  13  -5   12.10    3.10
   5  13  -5    7.20    2.50
   4 -13  -5   64.89    5.30
   4  13  -5   63.09    5.10
  -4  13   5   61.99    5.20
   4  13  -5   56.29    5.20
   3 -13  -5   81.79    6.00
   3  13  -5   82.69    6.10
   3  13  -5   90.99    5.00
  -3  13   5   86.89    5.90
   2 -13  -5  303.77   12.90
  -2 -13   5  299.17   11.50
   2  13  -5  307.77   12.90
  -2  13   5  313.87   12.60
   2  13  -5  320.97   11.40
  -1 -13   5    3.40    2.70
   1 -13  -5    5.10    2.50
   1  13  -5    4.60    1.70
   1  13  -5    6.60    2.70
  -1  13   5    5.80    2.50
   0 -13  -5    0.40    2.20
   0 -13   5    0.10    1.30
   0  13  -5    0.60    2.00
   0  13  -5    1.10    1.40
   0  13   5    1.50    1.70
  -1 -13  -5   37.60    4.60
   1 -13   5   28.10    2.70
  -1  13  -5   35.60    4.40
  -1  13  -5   41.40    3.10
   1  13   5   35.50    4.00
   2 -13   5    6.30    1.70
  -2 -13  -5    8.00    2.70
  -2  13  -5    5.00    2.40
  -2  13  -5   11.60    2.20
   2  13   5    8.60    2.60
   3 -13   5   18.70    2.40
   3 -13   5   28.50    3.10
  -3 -13  -5   19.50    3.60
  -3  13  -5   18.90    3.30
   3  13   5   18.80    3.50
   4 -13   5   27.10    3.30
   4 -13   5   26.40    2.90
  -4 -13  -5   26.10    4.00
  -4  13  -5   21.90    3.60
   4  13   5   25.50    3.90
   5 -13   5   -2.30    1.70
  -5 -13  -5   -1.10    2.20
   5  13   5    3.80    2.50
  -5  13  -5    2.50    2.10
  -6 -13  -5   50.99    5.40
   6 -13   5   51.29    4.40
  -6  13  -5   45.70    4.90
   6  13   5   42.80    5.30
   7 -13   5    9.00    2.60
  -7 -13  -5   10.90    3.50
  -7  13  -5    8.00    2.80
   7  13   5    6.90    3.00
   8 -13   5    7.40    2.60
  -8 -13  -5    6.70    3.20
   8 -13   5    9.60    3.00
   8  13   5    7.60    3.40
  -9 -14   5   11.10    3.70
   8 -14  -5   25.40    4.70
   8 -14  -5   27.60    4.30
   8  14  -5   22.90    4.10
   8  14  -5   29.60    5.10
   7 -14  -5   21.30    3.60
   7 -14  -5   22.30    4.70
   7  14  -5   20.30    3.70
   7  14  -5   17.90    3.70
   6 -14  -5    4.60    2.70
   6 -14  -5    7.80    2.80
   6  14  -5    4.00    2.50
   6  14  -5    2.80    2.90
   5 -14  -5    5.00    2.60
   5  14  -5    7.90    2.60
   5  14  -5    4.20    2.90
  -5  14   5    7.80    3.30
   4 -14  -5   46.40    5.30
   4  14  -5   45.90    5.30
  -4  14   5   47.10    5.10
   4  14  -5   53.89    4.30
   3 -14  -5    4.30    2.50
   3  14  -5    3.00    1.80
  -3  14   5    4.00    2.50
   3  14  -5    3.70    2.50
  -2 -14   5   22.10    4.50
   2 -14  -5   19.40    3.50
   2  14  -5   25.60    4.10
  -2  14   5   23.90    3.90
   2  14  -5   24.80    2.90
  -1 -14   5    3.60    1.90
   1 -14  -5    3.00    2.70
  -1  14   5    7.70    2.70
   1  14  -5    5.00    2.00
   1  14  -5    3.00    2.30
   0 -14   5   21.60    2.80
   0 -14  -5   23.80    4.20
   0  14  -5   31.60    3.30
   0  14   5   26.70    3.90
   0  14  -5   23.90    3.90
   1 -14   5   -1.40    1.20
  -1 -14  -5    4.70    2.80
   1  14   5    3.00    2.20
  -1  14  -5    0.80    2.10
  -1  14  -5   -0.70    1.60
   2 -14   5    4.90    1.70
  -2 -14  -5    6.10    2.90
  -2  14  -5    8.60    2.20
   2  14   5   10.30    3.10
  -2  14  -5    9.80    2.90
   3 -14   5   56.49    4.20
   3 -14   5   49.10    3.70
  -3 -14  -5   50.39    5.70
   3  14   5   55.39    5.20
  -3  14  -5   59.59    5.30
  -4 -14  -5   49.90    5.60
   4 -14   5   47.10    4.20
  -4  14  -5   53.09    5.00
   4  14   5   55.59    5.20
   5 -14   5   58.99    4.60
  -5 -14  -5   49.60    5.70
  -5  14  -5   53.79    5.10
   5  14   5   60.09    5.60
  -6 -14  -5   20.40    4.10
   6 -14   5   17.20    3.20
  -6  14  -5   23.50    3.80
   6  14   5   15.80    3.90
  -7 -14  -5   12.50    3.60
   7 -14   5    8.20    2.70
  -7  14  -5    9.80    3.00
   7  14   5    7.00    3.50
   8 -14   5   -1.70    2.30
  -8 -14  -5    6.50    3.60
   8 -14   5    4.50    2.60
   8  14   5   -0.20    2.90
   8 -15  -5    1.90    3.20
   8 -15  -5    3.80    2.80
   8  15  -5    7.00    3.10
   7 -15  -5    1.90    2.60
   7 -15  -5   -1.50    2.90
   7  15  -5   -2.90    2.30
   7  15  -5    2.20    3.00
   6 -15  -5   32.70    4.60
   6 -15  -5   37.30    5.20
   6  15  -5   37.50    5.30
   6  15  -5   35.00    4.40
   5 -15  -5   13.20    3.40
  -5  15   5   20.40    4.10
   5  15  -5   10.90    3.60
   5  15  -5   16.80    3.10
   4 -15  -5   52.99    5.80
  -4  15   5   63.69    5.60
   4  15  -5   48.10    5.60
   4  15  -5   51.59    4.50
   3 -15  -5    7.90    3.10
   3  15  -5   12.00    3.40
   3  15  -5    8.40    2.40
  -3  15   5    7.60    3.20
   2 -15  -5   61.19    5.80
   2  15  -5   46.00    5.50
   2  15  -5   59.59    4.20
  -2  15   5   62.59    5.40
   1 -15  -5  104.79    7.60
   1  15  -5  114.39    5.90
  -1  15   5  122.69    7.10
   1  15  -5  122.39    7.70
   0 -15  -5   41.70    5.50
   0 -15   5   34.20    3.50
   0  15  -5   43.90    3.70
   0  15   5   43.20    4.80
   0  15  -5   45.90    5.50
   1 -15   5   94.89    5.40
  -1 -15  -5  123.79    7.90
  -1  15  -5  110.49    7.40
  -1  15  -5  104.99    5.60
   1  15   5  121.29    7.10
  -2 -15  -5   72.59    6.20
   2 -15   5   51.29    4.00
  -2  15  -5   64.99    5.70
  -2  15  -5   65.39    4.50
   2  15   5   79.29    5.70
  -3 -15  -5   84.79    6.70
   3 -15   5   72.39    5.00
  -3  15  -5   83.59    6.30
   3  15   5   82.09    6.10
   4 -15   5   14.80    5.30
  -4 -15  -5    9.10    3.40
  -4  15  -5    7.90    3.00
   4  15   5    9.20    3.20
   5 -15   5   53.59    4.60
  -5 -15  -5   64.59    6.10
  -5  15  -5   46.70    5.40
   5  15   5   39.70    5.80
  -6 -15  -5   12.40    3.80
   6 -15   5   13.40    3.00
  -6  15  -5   12.90    3.20
   6  15   5   15.30    4.10
   7 -15   5    0.20    2.10
  -7 -15  -5    4.60    6.20
   7  15   5    0.50    2.90
   7 -16  -5    8.80    3.20
   7 -16  -5   10.10    4.00
   7  16  -5    5.40    3.50
   7  16  -5    9.40    3.50
   6 -16  -5   -0.70    2.60
   6 -16  -5    3.20    2.70
   6  16  -5    0.60    2.90
   6  16  -5    0.10    2.50
   5 -16  -5   18.80    4.90
   5  16  -5   14.50    3.90
  -5  16   5   19.00    4.10
   5  16  -5   23.00    3.60
   4  16  -5   41.70    4.50
   4  16  -5   34.20    7.80
  -4  16   5   38.20    5.20
   3 -16  -5    4.10    2.90
   3  16  -5   -2.70    1.70
  -3  16   5   -0.90    2.70
   2 -16  -5   44.90    5.60
  -2  16   5   55.89    5.40
   2  16  -5   56.79    4.20
   2  16  -5   44.70    5.70
   1 -16  -5    9.20    3.60
   1  16  -5    8.20    2.20
   1  16  -5   10.50    3.60
  -1  16   5    8.60    3.10
   0 -16  -5   82.59    7.00
   0  16  -5   74.09    4.90
   0  16  -5   76.99    6.60
   0  16   5   84.69    6.10
  -1 -16  -5   10.90    4.00
   1  16   5    8.70    2.90
  -1  16  -5   11.90    3.40
  -1  16  -5    5.40    2.30
  -2 -16  -5   98.49    8.90
   2  16   5   94.99    6.50
  -2  16  -5   91.59    7.10
  -2  16  -5   90.29    5.50
   3  16   5    6.60    3.00
  -3  16  -5    6.90    3.60
  -4 -16  -5   60.39    6.90
   4 -16   5   58.29    4.70
   4  16   5   50.19    6.50
  -5 -16  -5    4.40    3.40
   5 -16   5    3.20    2.30
   5  16   5    5.00    3.30
  -5  16  -5    6.10    3.20
   6 -16   5   37.60    4.70
  -6 -16  -5   36.00    5.70
   6  16   5   37.10    5.50
  -6  16  -5   31.60    4.60
   6 -17  -5    6.50    3.40
   6 -17  -5   16.70    4.20
   6  17  -5    9.10    3.80
   6  17  -5   12.40    3.40
   5 -17  -5   31.50    4.90
   5  17  -5   32.90    4.30
  -5  17   5   31.30    5.00
   5  17  -5   34.00    5.30
   4 -17  -5   20.50    4.30
   4  17  -5   17.90    3.40
  -4  17   5   20.10    5.00
   4  17  -5   15.70    4.30
   3 -17  -5   19.40    4.30
   3  17  -5   19.20    4.20
   3  17  -5   15.30    3.00
  -3  17   5   19.10    4.10
   2 -17  -5    9.00    4.00
   2  17  -5   12.00    2.60
   2  17  -5    5.80    3.30
  -2  17   5   17.80    4.00
   1 -17  -5   49.60    6.20
  -1  17   5   52.79    6.10
   1  17  -5   47.20    6.10
   1  17  -5   51.49    4.40
   0 -17  -5    1.30    3.10
   0  17  -5    1.80    2.80
   0  17   5   -2.40    2.40
   0  17  -5    7.40    3.50
  -1 -17  -5   28.20    5.20
  -1  17  -5   25.00    4.50
   1  17   5   27.90    4.50
  -2 -17  -5    2.90    3.10
  -2  17  -5   -2.90    2.70
   2  17   5   -0.90    2.60
   3 -17   5   39.40    4.20
  -3 -17  -5   26.80    5.00
   3  17   5   38.70    5.20
  -3  17  -5   32.30    5.30
  -4 -17  -5   -3.10    2.80
   4 -17   5    0.40    2.40
  -4  17  -5    0.40    2.70
   4  17   5    0.20    2.70
   5 -17   5   19.00    3.50
  -5 -17  -5   17.90    4.60
   5  17   5   19.10    4.00
  -5  17  -5   13.60    3.90
   4 -18  -5   14.60    4.10
  -4  18   5   11.60    3.90
   4  18  -5   13.50    3.10
   4  18  -5   21.70    4.70
   3 -18  -5   51.59    6.30
   3  18  -5   49.60    6.30
   3  18  -5   48.10    4.70
  -3  18   5   56.89    6.50
   2 -18  -5   15.30    4.20
   2  18  -5    4.60    2.50
  -2  18   5   17.40    6.80
   2  18  -5   12.30    4.30
   1 -18  -5   29.10    5.20
   1  18  -5   28.40    5.20
   1  18  -5   24.20    3.50
   0 -18  -5   24.80    5.00
   0  18   5   21.70    5.60
   0  18  -5   21.50    4.50
   0  18  -5   14.90    3.10
  -1 -18  -5   10.90    4.00
   1  18   5    6.10    3.20
  -1  18  -5    2.40    3.50
  -1  18  -5    6.80    2.50
  -2 -18  -5    7.40    3.90
  -2  18  -5    7.90    3.90
   2  18   5    8.90    3.40
   3 -18   5   17.60    3.30
  -3 -18  -5   21.30    4.90
  -3  18  -5   22.00    4.70
   3  18   5   19.50    4.30
   4 -18   5   58.89    5.10
  -4 -18  -5   47.90    6.60
  -4  18  -5   37.60    5.70
   4  18   5   57.29    6.70
   2 -19  -5   23.40    5.10
   2  19  -5   19.90    3.50
   2  19  -5   25.50    5.20
  -2  19   5   23.80    4.60
   1 -19  -5    0.80    3.50
   1  19  -5    1.50    3.10
   1  19  -5    3.70    2.40
  -1  19   5    2.60    3.30
   0 -19  -5    1.80    3.40
   0  19  -5    2.90    3.30
   0  19   5    4.50    3.50
   0  19  -5    1.90    2.10
  -1 -19  -5    7.00    4.20
  -1  19  -5    4.30    3.60
  -1  19  -5    2.50    2.30
   1  19   5    5.30    3.10
  12   0  -6   40.40    6.10
  11   0  -6   44.60    7.80
  10   0  -6  271.77   12.60
   9   0  -6   19.70    3.90
   8   0  -6  511.95   18.60
   8   0  -6  486.85   15.50
  -8   0   6  499.65   15.50
   7   0  -6    3.70    1.10
   7   0  -6    1.50    1.70
  -7   0   6    3.50    1.00
  -6   0   6 1015.80   31.30
   6   0  -6 1041.80   33.00
  -6   0   6  995.60   32.60
   6   0  -6 1029.80   31.50
   5   0  -6  249.18    8.70
  -5   0   6  259.37    8.60
   5   0  -6  241.48    9.50
   4   0  -6  140.89    5.90
  -4   0   6  143.49    5.40
   4   0  -6  139.39    5.50
   4   0  -6  149.69    6.00
   3   0  -6  848.42   26.60
   3   0  -6  852.11   26.60
  -3   0   6  840.92   26.40
   3   0  -6  859.11   26.50
   2   0  -6    3.80    0.90
  -2   0   6    3.10    0.90
   2   0  -6    1.80    0.90
  -2   0   6    2.80    0.90
  -1   0   6 3680.93  110.29
   0   0  -6   91.09    3.90
   0   0   6   85.89    3.80
   0   0   6   87.69    3.30
   0   0  -6   84.19    3.30
   1   0   6  830.52   25.20
  -1   0  -6  826.82   25.70
   1   0   6  804.12   25.60
  -1   0  -6  827.72   25.30
   2   0   6  512.85   16.50
   2   0   6  521.05   16.50
  -2   0  -6  516.65   16.50
  -2   0  -6  516.25   16.60
   3   0   6  644.54   20.60
  -3   0  -6  648.24   20.40
  -3   0  -6  633.04   20.60
   3   0   6  649.54   20.30
  -4   0  -6  923.61   28.70
   4   0   6  934.11   28.60
  -4   0  -6  901.81   29.40
   4   0   6  942.01   29.40
   5   0   6  213.88    7.40
  -5   0  -6  209.28    8.50
  -5   0  -6  220.88    7.60
   5   0   6  212.78    8.60
   6   0   6  685.03   21.70
   6   0   6  720.63   23.70
  -7   0  -6  241.58    7.80
   7   0   6  233.58   10.10
   8   0   6  208.78    9.70
   9   0   6   39.50    4.90
  10   0   6  152.88    8.80
  11   0   6   -2.90    1.80
  12  -1  -6    2.70    2.90
  12   1  -6    6.60    3.70
  11  -1  -6   81.39    7.70
  10  -1  -6   52.09    5.90
  10   1  -6   50.99    5.80
   9  -1  -6  154.68    8.50
   9   1  -6  156.18    8.50
   8  -1  -6  195.58    6.80
   8  -1  -6  205.98    9.50
   8   1  -6  207.68    7.00
   8   1  -6  209.48    9.60
   7  -1  -6   94.69    5.70
  -7  -1   6  102.69    4.10
   7  -1  -6  104.29    4.20
   7   1  -6  104.79    4.20
  -7   1   6   96.79    4.00
   7   1  -6  105.39    6.70
   6  -1  -6  691.33   21.50
   6  -1  -6  686.03   23.70
  -6  -1   6  682.53   21.40
   6  -1  -6  707.83   23.10
  -6  -1   6  654.93   22.60
  -6   1   6  680.73   21.30
   6   1  -6  675.43   21.50
   6   1  -6  693.33   23.00
   5  -1  -6   25.50    2.60
   5  -1  -6   22.70    1.90
  -5  -1   6   20.90    1.80
   5  -1  -6   25.60    2.80
  -5  -1   6   23.60    2.70
   5   1  -6   21.30    1.80
  -5   1   6   18.00    1.70
   5   1  -6   17.50    2.30
   4  -1  -6  137.09    5.50
  -4  -1   6  142.39    5.80
   4  -1  -6  139.99    5.90
  -4  -1   6  151.18    5.50
   4   1  -6  137.39    5.90
  -4   1   6  142.49    5.40
   4   1  -6  145.09    5.60
   3  -1  -6    4.80    1.20
  -3  -1   6    3.60    1.00
  -3  -1   6    2.90    1.00
   3  -1  -6    4.70    1.20
   3  -1  -6    3.10    0.90
   3   1  -6    3.10    1.10
  -3   1   6    3.90    1.00
   3   1  -6    3.60    1.00
  -2  -1   6  113.59    4.60
   2  -1  -6  114.89    4.70
   2  -1  -6  113.89    4.50
  -2   1   6  112.99    4.50
   2   1  -6  117.29    4.70
   2   1  -6  113.69    4.30
  -2   1   6  111.09    4.60
   1  -1  -6  825.12   25.90
  -1  -1   6  846.42   25.20
  -1  -1   6  815.32   25.80
   1  -1  -6  848.52   25.50
   1   1  -6  832.02   25.20
  -1   1   6  827.92   25.50
   1   1  -6  819.92   25.90
  -1   1   6  814.52   25.80
   0  -1  -6  869.11   26.80
   0  -1   6  851.81   26.80
   0  -1  -6  856.11   26.40
   0   1   6  863.31   26.80
   0   1  -6  861.21   26.90
   0   1  -6  867.11   26.00
  -1  -1  -6  330.77   11.40
   1  -1   6  349.67   10.80
  -1  -1  -6  344.77   11.20
   1  -1   6  333.87   11.40
  -1   1  -6  348.17   10.90
   1   1   6  336.07   11.30
   1   1   6  345.57   11.20
  -1   1  -6  345.87   11.50
   2  -1   6  469.95   14.80
  -2  -1  -6  457.25   15.10
   2  -1   6  461.95   15.00
  -2  -1  -6  468.65   15.20
   2   1   6  484.55   15.10
  -2   1  -6  448.46   14.80
  -2   1  -6  470.65   15.10
   2   1   6  457.75   15.00
  -3  -1  -6    7.90    1.40
   3  -1   6    7.20    1.30
   3  -1   6    6.20    1.30
  -3  -1  -6    5.10    1.40
   3   1   6    6.90    1.50
   3   1   6    6.90    1.20
  -3   1  -6    5.50    1.20
  -3   1  -6    9.40    1.40
  -4  -1  -6   49.00    2.70
   4  -1   6   50.99    2.60
  -4  -1  -6   46.60    3.10
   4  -1   6   45.90    3.00
  -4   1  -6   44.80    2.90
   4   1   6   48.80    2.50
  -4   1  -6   45.70    2.60
   4   1   6   50.99    3.20
   5  -1   6  271.87    9.10
  -5  -1  -6  258.17   10.20
   5  -1   6  269.27   10.20
  -5  -1  -6  267.47    9.20
   5   1   6  268.77   10.30
  -5   1  -6  277.77    9.20
   5   1   6  262.27    9.00
  -5   1  -6  254.97    9.90
   6  -1   6    5.20    1.00
  -6  -1  -6    7.80    1.30
   6  -1   6    9.70    2.30
  -6   1  -6    8.30    1.60
   6   1   6    7.40    2.00
   6   1   6    6.50    1.10
   7  -1   6  180.28    6.30
  -7  -1  -6  180.68    6.10
   7  -1   6  185.28    8.40
  -7   1  -6  171.58    6.00
   7   1   6  166.38    8.20
   8  -1   6   17.20    3.40
   8   1   6   19.40    3.40
   9  -1   6  181.48    9.40
   9   1   6  189.08    9.50
  10  -1   6   46.90    5.90
  10   1   6   44.70    5.50
  11  -1   6   12.60    3.50
  11   1   6   17.70    3.80
  12  -2  -6   31.10    5.20
  12   2  -6   47.50    6.40
  11  -2  -6    2.90    2.80
  11   2  -6    5.60    4.10
  10  -2  -6   47.20    5.60
  10   2  -6   43.80    5.80
   9  -2  -6  114.59    7.20
   9   2  -6  122.19    7.40
   8  -2  -6  119.39    6.80
  -8  -2   6  109.89    4.40
   8  -2  -6  115.59    4.80
   8   2  -6  118.99    4.90
   8   2  -6  120.49    6.90
   7  -2  -6   95.79    5.70
   7  -2  -6  101.09    4.10
  -7  -2   6   96.49    4.10
  -7   2   6   93.89    3.90
   7   2  -6   94.59    4.10
   7   2  -6   96.19    6.50
   6  -2  -6  679.63   22.80
  -6  -2   6  671.63   21.40
  -6  -2   6  669.43   22.50
   6  -2  -6  685.73   21.50
   6   2  -6  678.13   21.40
  -6   2   6  678.63   21.20
   6   2  -6  681.23   22.80
   5  -2  -6  365.96   13.30
   5  -2  -6  362.26   13.30
  -5  -2   6  382.66   12.60
   5  -2  -6  383.56   12.50
  -5  -2   6  375.16   13.20
   5   2  -6  386.86   13.40
   5   2  -6  378.86   12.50
  -5   2   6  368.26   12.30
   4  -2  -6  248.98    8.90
  -4  -2   6  236.18    8.60
   4  -2  -6  236.68    8.80
  -4  -2   6  229.28    8.40
   4  -2  -6  244.48    8.40
   4   2  -6  232.08    8.40
  -4   2   6  231.28    8.20
   4   2  -6  230.08    8.70
  -3  -2   6   12.90    1.50
   3  -2  -6   10.10    1.50
   3  -2  -6   13.00    1.60
  -3  -2   6   13.80    1.70
   3   2  -6   10.90    1.50
  -3   2   6    9.80    1.40
   3   2  -6   10.50    1.40
  -3   2   6    7.80    1.50
  -2  -2   6   22.30    1.90
   2  -2  -6   17.80    1.60
   2  -2  -6   17.80    1.80
  -2   2   6   19.50    1.70
  -2   2   6   20.50    1.80
   2   2  -6   21.00    1.50
   2   2  -6   19.60    1.90
   1  -2  -6  381.76   12.30
   1  -2  -6  369.46   12.60
  -1  -2   6  379.26   12.60
   1   2  -6  374.76   12.60
   1   2  -6  389.56   11.70
  -1   2   6  379.86   12.30
   1   2  -6  381.06   11.70
  -1   2   6  375.96   12.50
   0  -2   6   40.90    2.50
   0  -2  -6   38.50    2.20
   0  -2  -6   37.80    2.40
   0  -2   6   42.10    1.50
   0   2  -6   43.00    1.60
   0   2   6   38.50    2.20
   0   2  -6   38.70    2.50
   0   2   6   40.20    2.40
   1  -2   6   63.49    2.40
  -1  -2  -6   57.99    3.00
   1  -2   6   63.79    3.10
  -1  -2  -6   60.09    3.00
   1   2   6   60.09    3.00
  -1   2  -6   62.89    2.40
  -1   2  -6   60.79    3.10
   1   2   6   58.79    2.90
   2  -2   6  279.97    9.10
   2  -2   6  277.47    9.50
  -2  -2  -6  281.37    9.70
  -2  -2  -6  267.47    9.50
   2   2   6  266.07    9.40
  -2   2  -6  273.57    9.50
  -2   2  -6  269.07    9.10
   2   2   6  285.47    9.70
   3  -2   6  120.09    4.90
   3  -2   6  123.09    4.90
  -3  -2  -6  122.79    5.00
  -3  -2  -6  117.89    5.30
   3   2   6  117.89    5.30
   3   2   6  126.59    4.90
  -3   2  -6  121.59    4.90
  -3   2  -6  126.79    4.90
  -4  -2  -6  534.25   17.50
   4  -2   6  550.34   17.50
   4  -2   6  548.45   18.40
  -4  -2  -6  573.54   19.30
   4   2   6  534.65   18.30
   4   2   6  533.85   17.30
  -4   2  -6  531.55   17.80
  -4   2  -6  556.64   17.50
   5  -2   6   12.00    2.10
  -5  -2  -6    8.00    1.80
   5  -2   6   10.90    1.50
  -5  -2  -6   12.40    1.60
   5   2   6    9.90    2.10
   5   2   6   11.80    1.40
  -5   2  -6   13.30    1.70
  -6  -2  -6  539.45   17.10
   6  -2   6  529.95   17.00
   6  -2   6  541.05   18.60
   6   2   6  562.44   22.80
  -6   2  -6  500.85   18.30
  -6   2  -6  541.95   17.00
   7  -2   6   84.99    5.30
  -7  -2  -6   87.39    3.50
  -7   2  -6   83.59    3.40
   7   2   6   85.69    5.50
   8  -2   6  120.29    6.80
   8   2   6  117.99    7.00
   9  -2   6   12.30    3.00
   9   2   6    9.80    3.00
  10  -2   6   69.49    6.10
  10   2   6   90.49    6.70
  11  -2   6    0.00    2.30
  11   2   6    4.80    3.00
  12  -3  -6    8.00    3.60
  12   3  -6    9.00    3.40
  11  -3  -6   11.40    3.70
  11   3  -6   17.10    4.40
  10  -3  -6   -0.60    2.10
  10   3  -6    1.40    2.60
   9  -3  -6   41.30    5.20
   9   3  -6   39.60    3.20
   9   3  -6   41.40    5.30
  -8  -3   6   36.90    2.40
   8  -3  -6   31.10    2.20
   8  -3  -6   42.20    4.90
   8  -3  -6   37.00    2.30
   8   3  -6   36.70    2.40
   8   3  -6   35.20    4.30
   7  -3  -6  160.18    8.00
   7  -3  -6  170.08    6.50
  -7  -3   6  172.98    6.50
   7   3  -6  172.18    6.40
   7   3  -6  181.98    8.80
   6  -3  -6  129.59    6.50
  -6  -3   6  139.09    6.30
   6  -3  -6  130.79    5.50
  -6  -3   6  142.49    5.60
  -6   3   6  135.99    5.30
   6   3  -6  138.99    5.50
   6   3  -6  142.09    6.70
   5  -3  -6  355.26   11.80
  -5  -3   6  339.77   12.40
   5  -3  -6  350.16   12.70
  -5  -3   6  349.77   11.90
   5  -3  -6  357.96   12.70
   5   3  -6  347.37   11.90
   5   3  -6  354.06   12.60
  -5   3   6  340.97   11.60
   4  -3  -6  105.79    4.90
   4  -3  -6  105.99    4.60
  -4  -3   6  110.39    4.70
   4  -3  -6   99.09    4.90
  -4  -3   6  108.69    4.70
  -4   3   6  103.79    4.40
   4   3  -6  113.89    4.70
   4   3  -6  109.69    4.90
   3  -3  -6  345.27   11.80
   3  -3  -6  334.37   11.60
  -3  -3   6  346.87   11.50
  -3  -3   6  336.57   11.70
  -3   3   6  336.07   11.50
   3   3  -6  351.96   11.60
   3   3  -6  348.27   11.80
  -3   3   6  359.16   12.00
  -2  -3   6  617.44   18.30
  -2  -3   6  571.54   18.60
   2  -3  -6  573.54   18.50
   2  -3  -6  558.14   18.40
   2   3  -6  581.54   18.70
  -2   3   6  577.14   18.40
  -2   3   6  548.95   18.40
   2   3  -6  577.64   18.00
   1  -3  -6  629.14   19.90
  -1  -3   6  621.74   20.20
   1  -3  -6  633.74   20.10
   1   3  -6  629.44   19.10
  -1   3   6  633.64   19.90
   1   3  -6  632.04   20.20
  -1   3   6  627.94   20.00
   1   3  -6  634.24   19.10
   0  -3  -6    4.70    1.00
   0  -3   6    3.80    1.10
   0  -3  -6    2.40    1.00
   0   3  -6    2.40    1.00
   0   3   6    4.40    1.10
   0   3   6    5.70    1.10
   1  -3   6    0.90    0.90
   1  -3   6    1.30    0.40
  -1  -3  -6    0.30    0.80
  -1  -3  -6    0.80    0.80
   1   3   6    1.30    0.90
  -1   3  -6    0.70    0.40
   1   3   6    0.20    0.70
  -1   3  -6    0.60    0.90
  -2  -3  -6  404.66   13.70
   2  -3   6  420.36   12.90
  -2  -3  -6  403.46   13.50
   2  -3   6  401.56   13.50
  -2   3  -6  411.26   13.60
   2   3   6  390.16   13.60
   2   3   6  409.26   13.40
   3  -3   6   56.19    3.10
  -3  -3  -6   52.09    3.00
  -3  -3  -6   55.99    3.30
   3  -3   6   58.49    2.90
  -3   3  -6   57.79    2.80
  -3   3  -6   58.69    3.10
   3   3   6   59.29    3.40
   3   3   6   60.19    3.00
   4  -3   6   99.29    4.40
   4  -3   6  103.19    4.70
  -4  -3  -6   99.69    5.10
  -4  -3  -6  104.29    4.50
   4   3   6  107.79    4.40
   4   3   6   96.89    5.00
  -4   3  -6  104.09    4.50
  -4   3  -6  100.09    4.50
   5  -3   6  122.49    5.70
   5  -3   6  125.39    5.10
  -5  -3  -6  122.39    5.10
   5   3   6  122.79    6.10
  -5   3  -6  121.79    5.50
  -5   3  -6  125.39    5.00
   5   3   6  123.79    4.90
  -6  -3  -6   27.70    2.00
   6  -3   6   24.30    2.00
  -6  -3  -6   25.10    2.20
   6  -3   6   34.20    3.60
  -6   3  -6   20.10    1.90
   6   3   6   24.90    3.20
  -6   3  -6   26.40    2.50
  -7  -3  -6  246.98    8.70
  -7  -3  -6  253.57    8.90
   7  -3   6  254.77    8.70
   7  -3   6  264.47   10.70
  -7   3  -6  258.47    8.60
   7   3   6  258.17   11.00
  -8  -3  -6    3.80    1.10
   8  -3   6    2.00    1.90
   8   3   6    5.80    2.40
   9  -3   6  232.08   11.00
   9   3   6  239.68   11.30
  10  -3   6   -1.40    1.90
  11  -3   6   40.20    5.30
  11   3   6   38.50    5.40
  12  -4  -6   24.10    4.70
  12   4  -6   29.30    5.20
  11  -4  -6   11.50    3.80
  11   4  -6    7.90    3.60
  10  -4  -6   12.50    3.30
  10   4  -6   11.70    3.70
   9  -4  -6    4.00    2.70
   9  -4  -6    5.60    1.10
  -9  -4   6    4.60    1.30
   9   4  -6    3.00    1.20
   9   4  -6    6.80    2.70
   8  -4  -6   25.30    2.10
   8  -4  -6   33.30    2.40
   8  -4  -6   32.60    4.40
  -8  -4   6   28.30    2.40
   8   4  -6   29.30    2.40
   8   4  -6   29.00    3.90
  -7  -4   6   80.49    4.00
   7  -4  -6   78.09    3.90
   7  -4  -6   78.69    3.70
   7  -4  -6   70.49    5.10
   7   4  -6   77.69    3.90
   7   4  -6   80.69    5.30
  -6  -4   6   93.99    4.50
   6  -4  -6  102.69    4.50
   6  -4  -6   86.89    5.30
  -6  -4   6   99.49    5.20
   6   4  -6  102.29    4.60
   6   4  -6   99.49    5.40
   5  -4  -6   20.90    2.60
  -5  -4   6   25.30    2.20
   5  -4  -6   15.80    2.60
  -5  -4   6   25.50    4.10
   5  -4  -6   17.20    2.10
   5   4  -6   25.90    2.50
   5   4  -6   19.30    2.50
  -5   4   6   17.80    1.90
   4  -4  -6    0.70    0.90
  -4  -4   6    0.20    0.90
  -4  -4   6    0.60    0.90
   4   4  -6   -0.30    0.90
  -4   4   6    0.00    1.20
  -4   4   6    1.00    0.80
   4   4  -6   -1.00    1.00
   3  -4  -6  244.88    8.90
  -3  -4   6  256.47    8.70
  -3  -4   6  253.77    9.10
  -3   4   6  233.08    8.80
   3   4  -6  251.57    8.80
   3   4  -6  255.07    9.10
  -3   4   6  249.28    9.20
  -2  -4   6   10.00    1.60
   2  -4  -6    9.60    1.60
  -2  -4   6    8.50    1.30
   2  -4  -6    7.70    1.30
  -2   4   6    7.70    1.40
  -2   4   6    8.10    1.40
   2   4  -6   10.40    1.70
   2   4  -6    9.10    1.20
  -1  -4   6   10.60    0.90
  -1  -4   6   11.10    1.60
   1  -4  -6   11.80    1.70
   1  -4  -6   10.00    1.60
   1   4  -6   10.80    0.90
  -1   4   6   12.90    1.80
   1   4  -6   12.30    1.80
  -1   4   6   11.60    1.60
   0  -4   6  325.97   11.40
   0  -4  -6  321.17   11.10
   0  -4  -6  322.47   11.20
   0   4  -6  344.37   11.50
   0   4   6  323.47   11.20
   0   4   6  327.67   11.10
   1  -4   6   51.29    1.90
  -1  -4  -6   53.19    3.00
   1  -4   6   51.29    1.80
  -1  -4  -6   53.79    3.00
   1  -4   6   54.49    3.10
  -1   4  -6   48.40    3.00
   1   4   6   51.29    2.90
   1   4   6   55.29    3.00
   2  -4   6   34.40    1.80
  -2  -4  -6   35.80    2.60
   2  -4   6   34.50    2.50
  -2  -4  -6   40.30    2.60
  -2   4  -6   35.90    1.80
  -2   4  -6   36.80    2.60
   2   4   6   35.50    2.60
   2   4   6   36.40    2.40
  -3  -4  -6  198.28    7.70
   3  -4   6  215.68    7.40
   3  -4   6  214.88    7.80
  -3  -4  -6  202.68    8.70
  -3   4  -6  206.28    7.20
   3   4   6  203.28    7.60
  -3   4  -6  203.18    7.70
  -4  -4  -6  132.19    6.40
   4  -4   6  143.89    5.80
   4  -4   6  137.89    5.80
  -4  -4  -6  144.29    5.80
   4   4   6  138.69    5.60
   4   4   6  147.09    6.50
  -4   4  -6  143.59    5.80
  -4   4  -6  138.89    5.60
   5  -4   6   26.40    2.20
   5  -4   6   30.00    2.70
  -5  -4  -6   27.40    2.10
  -5  -4  -6   28.30    2.40
  -5   4  -6   26.10    2.30
   5   4   6   29.80    3.30
  -5   4  -6   30.70    2.30
   6  -4   6  113.79    5.00
  -6  -4  -6  132.09    5.10
   6  -4   6  113.49    5.90
  -6  -4  -6  126.19    5.20
   6   4   6  117.99    6.40
  -6   4  -6  109.09    5.50
  -6   4  -6  122.99    5.00
   7  -4   6  102.49    4.40
  -7  -4  -6  108.39    4.70
   7  -4   6  109.29    6.10
  -7  -4  -6  104.49    4.50
  -7   4  -6  104.69    4.40
   7   4   6  109.59    6.40
   8  -4   6   58.19    2.80
   8  -4   6   62.79    4.90
  -8  -4  -6   64.69    3.20
  -8  -4  -6   63.49    3.00
   8   4   6   67.89    5.40
   9  -4   6   51.59    5.00
   9   4   6   53.59    5.10
  10  -4   6   -0.50    2.10
  10   4   6    3.90    2.80
  11  -4   6   13.90    3.70
  11   4   6   15.60    4.00
  12  -5  -6   13.80    4.30
  12   5  -6   18.00    4.50
  11  -5  -6   -0.20    2.70
  11   5  -6    1.00    2.80
 -10  -5   6    6.20    1.30
  10  -5  -6   12.10    3.60
  10   5  -6    4.20    3.20
   9  -5  -6   58.39    3.10
   9  -5  -6   54.79    5.30
   9  -5  -6   60.09    3.30
  -9  -5   6   59.89    3.50
   9   5  -6   61.19    3.40
   9   5  -6   69.09    5.70
  -8  -5   6  121.19    5.80
   8  -5  -6  149.59    7.80
   8  -5  -6  142.39    5.80
   8  -5  -6  134.39    5.60
   8   5  -6  135.69    5.80
   8   5  -6  136.29    7.60
   7  -5  -6    2.50    2.00
   7  -5  -6    2.70    1.20
   7  -5  -6    4.90    1.50
  -7  -5   6    1.40    1.30
   7   5  -6    4.00    1.40
   7   5  -6    0.60    1.80
   6  -5  -6    7.70    1.70
  -6  -5   6    7.10    1.70
   6  -5  -6   10.10    3.60
   6  -5  -6    9.30    1.60
   6   5  -6    9.10    2.20
   6   5  -6    8.80    1.80
   5  -5  -6  151.78    6.10
  -5  -5   6  143.29    6.80
   5  -5  -6  143.09    6.60
   5  -5  -6  145.59    7.20
  -5  -5   6  148.99    6.20
   5  -5  -6  143.89    5.90
   5   5  -6  135.09    6.00
   5   5  -6  136.69    6.40
  -4  -5   6  132.79    5.60
   4  -5  -6  122.99    5.40
  -4  -5   6  127.19    5.40
   4  -5  -6  121.89    5.60
  -4   5   6  125.79    5.30
   4   5  -6  125.09    5.50
   4   5  -6  126.99    5.50
  -4   5   6  116.29    5.80
   3  -5  -6  218.58    8.20
   3  -5  -6  220.28    8.10
  -3  -5   6  207.28    7.70
  -3  -5   6  210.28    8.20
  -3   5   6  223.18    8.40
   3   5  -6  210.08    8.20
  -3   5   6  214.48    8.00
   3   5  -6  218.88    7.80
  -2  -5   6  360.76   11.50
   2  -5  -6  352.96   12.30
   2  -5  -6  344.67   12.10
  -2  -5   6  363.66   12.50
   2   5  -6  368.46   11.80
  -2   5   6  342.07   12.20
  -2   5   6  352.36   12.30
   2   5  -6  356.86   12.40
   1  -5  -6  107.39    4.80
  -1  -5   6  107.99    3.70
   1  -5  -6  106.39    4.60
  -1  -5   6  106.19    4.90
  -1   5   6   99.29    4.60
   1   5  -6  101.39    4.80
  -1   5   6  105.39    4.70
   1   5  -6  106.19    3.60
   0  -5  -6    3.10    1.10
   0  -5   6    1.40    1.10
   0  -5  -6    2.30    1.20
   0   5  -6    1.40    1.10
   0   5   6    3.20    1.20
   0   5   6    2.60    1.10
  -1  -5  -6   40.60    2.70
   1  -5   6   45.60    2.90
  -1  -5  -6   43.00    2.90
   1  -5   6   43.40    1.70
   1  -5   6   44.30    1.60
   1   5   6   44.50    2.80
  -1   5  -6   45.90    3.00
   1   5   6   45.00    2.80
   2  -5   6  162.58    6.70
   2  -5   6  173.18    5.70
  -2  -5  -6  159.78    6.80
   2  -5   6  170.08    5.80
  -2  -5  -6  164.88    6.70
   2   5   6  169.38    6.80
   2   5   6  158.48    6.50
  -2   5  -6  171.48    6.80
   3  -5   6   31.20    2.00
  -3  -5  -6   33.40    2.60
  -3  -5  -6   31.20    2.70
   3  -5   6   28.00    2.40
   3  -5   6   33.80    2.10
  -3   5  -6   34.00    2.60
   3   5   6   27.40    2.60
   3   5   6   32.00    2.40
  -4  -5  -6    8.10    1.70
  -4  -5  -6    7.50    1.80
   4  -5   6    7.30    1.60
   4  -5   6    8.10    1.60
  -4  -5  -6    8.10    1.60
   4   5   6    6.70    1.70
  -4   5  -6    8.60    1.60
  -4   5  -6   10.50    1.50
   5  -5   6    4.40    1.30
  -5  -5  -6    5.40    1.50
  -5  -5  -6    4.70    1.30
   5  -5   6    5.40    1.70
  -5   5  -6    6.80    1.50
  -5   5  -6    4.60    1.30
  -6  -5  -6    4.80    1.40
   6  -5   6    5.50    1.50
  -6  -5  -6    8.90    1.90
   6  -5   6    8.50    2.20
  -6   5  -6    7.00    1.60
  -6   5  -6    3.40    1.40
   6   5   6   10.00    2.70
   7  -5   6   -1.40    1.40
  -7  -5  -6   -0.30    0.90
   7  -5   6    0.00    1.10
  -7  -5  -6    0.40    1.30
  -7   5  -6    0.20    1.00
   7   5   6    2.10    1.80
  -8  -5  -6   23.70    2.50
   8  -5   6   22.90    3.50
  -8  -5  -6   22.40    2.10
   8  -5   6   23.00    2.20
   8   5   6   28.70    4.10
  -8   5  -6   21.60    1.90
   9  -5   6   52.69    5.70
  -9  -5  -6   36.20    2.30
   9   5   6   44.90    5.30
  10  -5   6   -1.30    2.20
  10   5   6    1.40    2.50
  11  -5   6   14.00    3.70
  11   5   6   11.80    3.70
  12  -6  -6   13.50    4.00
  12   6  -6    9.50    4.00
  11  -6  -6   10.90    3.60
  11   6  -6   17.90    4.50
  10  -6  -6    2.90    1.20
  10  -6  -6    5.40    2.90
  10  -6  -6    3.30    1.20
 -10  -6   6    2.40    1.40
  10   6  -6    3.50    2.80
   9  -6  -6   39.10    2.80
   9  -6  -6   48.90    5.90
  -9  -6   6   34.90    3.20
   9  -6  -6   36.30    2.70
   9   6  -6   43.60    3.20
   9   6  -6   44.90    5.40
  -8  -6   6    8.70    2.00
   8  -6  -6    7.20    1.60
   8  -6  -6    9.20    2.70
   8  -6  -6    7.90    1.70
   8   6  -6    9.90    1.90
   8   6  -6   12.40    3.00
   7  -6  -6    6.90    2.60
  -7  -6   6    4.90    1.60
   7  -6  -6    3.00    1.40
   7  -6  -6    7.50    1.80
   7   6  -6    6.20    1.80
   7   6  -6    7.00    2.40
   6  -6  -6   14.70    2.20
   6  -6  -6   14.10    2.10
   6  -6  -6   17.00    2.90
  -6  -6   6   12.60    2.00
   6   6  -6   18.00    2.70
   6   6  -6   15.10    2.20
   5  -6  -6   43.60    3.60
   5  -6  -6   49.40    3.20
   5  -6  -6   45.30    3.20
  -5  -6   6   44.20    3.20
  -5  -6   6   41.80    3.20
   5   6  -6   45.60    3.30
   5   6  -6   47.60    3.50
  -4  -6   6  142.39    5.90
   4  -6  -6  135.19    6.10
   4  -6  -6  141.39    6.00
  -4  -6   6  142.69    6.20
   4  -6  -6  131.49    5.90
   4   6  -6  142.99    6.20
  -4   6   6  130.19    6.40
   4   6  -6  144.29    6.00
  -3  -6   6 1229.48   39.00
   3  -6  -6 1255.17   38.80
  -3  -6   6 1219.58   38.30
   3   6  -6 1236.38   38.30
  -3   6   6 1267.87   39.10
   3   6  -6 1247.78   39.00
   2  -6  -6   31.90    2.30
  -2  -6   6   24.40    1.80
   2  -6  -6   25.80    2.50
  -2  -6   6   26.60    2.50
   2   6  -6   21.30    2.50
  -2   6   6   27.70    2.30
  -2   6   6   28.10    2.50
   2   6  -6   29.10    1.80
   1  -6  -6    4.20    1.40
  -1  -6   6    5.30    1.50
   1  -6  -6    6.80    1.40
  -1  -6   6    7.00    0.90
   1   6  -6    8.50    0.90
  -1   6   6    2.00    1.10
   1   6  -6    5.90    1.60
  -1   6   6    6.00    1.40
   0  -6  -6    0.90    0.80
   0  -6   6    1.10    1.10
   0  -6  -6    1.10    1.20
   0  -6   6    0.50    0.40
   0   6  -6   -0.30    1.00
   0   6  -6    2.10    0.50
   0   6   6    0.00    1.00
   0   6   6    1.20    1.00
   1  -6   6   76.99    2.70
   1  -6   6   80.59    4.20
   1  -6   6   78.39    2.80
  -1  -6  -6   81.99    4.20
  -1  -6  -6   71.19    3.90
  -1   6  -6   79.79    4.20
   1   6   6   67.39    3.80
   1   6   6   78.19    4.00
   2  -6   6   47.10    2.20
  -2  -6  -6   41.80    3.00
  -2  -6  -6   42.50    3.10
  -2  -6  -6   46.80    3.00
   2  -6   6   41.80    3.00
  -2   6  -6   44.40    3.10
   2   6   6   45.60    3.10
  -3  -6  -6   32.20    2.80
  -3  -6  -6   32.50    2.80
   3  -6   6   31.40    2.00
  -3  -6  -6   29.80    2.50
   3  -6   6   36.50    2.30
   3  -6   6   34.00    2.60
   3   6   6   32.70    2.90
  -3   6  -6   30.50    2.60
  -4  -6  -6   28.00    2.70
   4  -6   6   28.20    2.20
  -4  -6  -6   27.50    2.40
   4  -6   6   29.90    2.40
   4  -6   6   24.30    2.70
  -4   6  -6   28.40    2.90
   4   6   6   25.10    2.90
  -5  -6  -6    1.50    1.50
  -5  -6  -6    1.50    1.20
   5  -6   6    0.70    1.20
   5  -6   6    1.50    1.20
   5  -6   6    1.50    1.10
   5   6   6    2.00    1.50
  -5   6  -6    3.30    1.40
  -6  -6  -6   12.50    2.10
  -6  -6  -6    9.70    1.80
   6  -6   6    8.70    1.70
   6  -6   6    7.30    1.80
   6  -6   6    9.70    2.40
  -6   6  -6   12.10    1.90
   6   6   6   12.00    2.60
  -7  -6  -6   31.80    2.90
   7  -6   6   29.20    3.70
   7  -6   6   19.90    2.40
  -7  -6  -6   23.30    2.60
   7   6   6   27.70    3.90
  -7   6  -6   26.60    2.70
  -8  -6  -6   23.40    2.70
   8  -6   6   21.00    2.30
   8  -6   6   32.60    4.20
  -8  -6  -6   25.10    2.50
   8   6   6   28.10    4.10
  -8   6  -6   23.10    2.20
   9  -6   6    7.10    1.30
  -9  -6  -6    7.10    1.50
   9  -6   6    7.20    2.70
  -9  -6  -6    8.10    1.80
   9   6   6    9.50    3.20
  10  -6   6   -0.10    1.90
  10   6   6    3.70    2.70
  11  -6   6   -3.10    2.20
  11   6   6   -0.50    2.50
  12  -7  -6    1.20    2.80
  12   7  -6    1.00    2.90
  11  -7  -6   11.80    4.00
 -11  -7   6    6.40    1.60
  11   7  -6   13.70    4.00
 -10  -7   6   -0.80    1.60
  10  -7  -6   -1.60    2.80
  10  -7  -6   -0.60    1.10
  10  -7  -6   -0.50    1.20
  10   7  -6   -0.10    2.60
   9  -7  -6   23.90    4.30
   9  -7  -6   17.60    2.40
  -9  -7   6   12.50    3.90
   9  -7  -6   13.20    2.20
   9   7  -6   22.00    4.00
   9   7  -6   17.90    2.60
  -8  -7   6    0.60    1.40
   8  -7  -6    0.30    1.30
   8  -7  -6    2.10    2.30
   8   7  -6   -0.10    2.00
   8   7  -6   -1.20    1.50
  -7  -7   6   31.60    3.10
   7  -7  -6   28.00    3.00
   7  -7  -6   36.10    3.10
   7  -7  -6   34.60    4.40
   7   7  -6   32.10    4.00
   7   7  -6   32.90    3.10
   6  -7  -6   26.70    3.00
   6  -7  -6   27.20    2.90
  -6  -7   6   21.50    2.90
   6  -7  -6   18.70    3.30
   6   7  -6   23.30    2.80
   6   7  -6   25.80    3.40
   5  -7  -6   30.20    2.80
  -5  -7   6   31.90    2.80
  -5  -7   6   30.40    2.90
   5  -7  -6   31.80    2.70
   5   7  -6   36.90    3.10
   5   7  -6   34.90    3.10
  -5   7   6   36.50    5.00
  -4  -7   6   45.40    3.10
   4  -7  -6   51.99    3.50
  -4  -7   6   55.09    3.70
   4  -7  -6   51.59    3.40
   4   7  -6   51.09    3.70
   4   7  -6   53.59    3.40
  -4   7   6   49.30    3.80
  -3  -7   6    6.20    1.70
   3  -7  -6    5.00    1.40
   3  -7  -6    2.60    1.30
  -3  -7   6    7.10    1.40
   3  -7  -6    1.70    1.50
   3   7  -6    7.30    1.60
   3   7  -6    8.10    1.90
  -3   7   6    5.00    1.60
   2  -7  -6  271.17   10.10
   2  -7  -6  264.87    9.90
  -2  -7   6  265.67    9.10
  -2  -7   6  253.77   10.10
   2  -7  -6  274.37   10.10
  -2   7   6  274.27   10.10
   2   7  -6  249.28   10.10
   2   7  -6  276.47    9.10
   1  -7  -6   25.30    2.30
   1  -7  -6   23.40    2.70
  -1  -7   6   23.70    2.80
   1  -7  -6   22.90    2.60
   1   7  -6   22.40    2.80
   1   7  -6   25.70    1.50
  -1   7   6   24.30    2.40
   0  -7   6  319.87   11.90
   0  -7  -6  324.67   11.80
   0  -7   6  333.57   10.30
   0  -7  -6  309.67   11.60
   0  -7  -6  334.37   11.90
   0   7  -6  340.07   10.30
   0   7  -6  318.27   11.90
   0   7   6  322.87   11.60
  -1  -7  -6   -0.70    1.20
   1  -7   6    0.80    0.60
  -1  -7  -6    0.60    1.00
  -1  -7  -6    2.00    1.30
   1  -7   6    1.50    0.60
   1  -7   6   -0.80    1.10
  -1   7  -6    0.60    1.30
   1   7   6    0.10    1.00
  -2  -7  -6  136.19    6.00
   2  -7   6  119.69    5.90
  -2  -7  -6  128.49    6.10
   2  -7   6  132.39    4.70
  -2  -7  -6  130.69    6.00
  -2   7  -6  131.19    6.00
   2   7   6  133.39    6.10
   3  -7   6    0.30    1.00
  -3  -7  -6   -0.60    1.20
   3  -7   6   -0.60    0.90
  -3  -7  -6    0.70    1.10
   3  -7   6    0.70    0.80
  -3   7  -6   -0.20    1.10
   3   7   6    0.90    1.50
   4  -7   6  105.89    4.80
  -4  -7  -6  108.39    5.40
  -4  -7  -6  104.09    5.10
   4  -7   6   99.79    5.10
   4  -7   6  100.29    4.60
   4   7   6  106.59    8.20
  -4   7  -6  109.79    5.20
  -5  -7  -6   53.69    3.80
  -5  -7  -6   52.89    3.50
   5  -7   6   51.89    3.30
   5  -7   6   56.39    3.70
   5  -7   6   61.69    3.80
   5   7   6   56.69    4.30
  -5   7  -6   51.89    3.50
   6  -7   6  142.59    6.60
  -6  -7  -6  120.29    5.80
   6  -7   6  125.19    6.00
   6  -7   6  119.79    6.40
  -6  -7  -6  138.59    6.30
  -6   7  -6  135.19    5.90
   6   7   6  127.09    7.10
   7  -7   6   16.50    2.90
  -7  -7  -6   16.30    2.50
  -7  -7  -6   12.70    2.10
  -7   7  -6   18.90    2.30
   7   7   6   18.10    3.30
  -8  -7  -6    3.80    1.80
   8  -7   6    6.40    2.40
   8  -7   6    1.40    1.30
  -8   7  -6    4.50    1.50
   8   7   6    5.00    2.70
  -9  -7  -6   48.40    3.40
  -9  -7  -6   41.10    3.10
   9  -7   6   44.90    5.10
   9  -7   6   43.10    2.80
 -10  -7  -6    1.40    1.30
  10  -7   6    7.30    3.00
  10   7   6    0.30    2.60
  11  -7   6   10.80    3.50
  11   7   6    5.90    3.10
  11  -8  -6   47.70    6.40
  11  -8  -6   37.10    2.60
 -11  -8   6   44.40    3.40
  11   8  -6   41.60    5.80
  10  -8  -6   15.50    4.10
  10  -8  -6   11.30    2.00
  10  -8  -6    7.90    2.00
 -10  -8   6    7.60    2.40
  10   8  -6   10.50    3.80
  -9  -8   6   53.99    4.20
   9  -8  -6   61.29    4.00
   9  -8  -6   63.09    5.80
   9  -8  -6   48.10    3.70
   9   8  -6   54.29    4.00
   9   8  -6   73.99    5.90
   8  -8  -6    0.50    1.30
   8  -8  -6    0.00    2.30
   8  -8  -6    2.60    1.60
  -8  -8   6   -0.20    1.60
   8   8  -6    0.20    1.90
   8   8  -6    1.70    1.80
   7  -8  -6   72.69    4.40
   7  -8  -6   61.59    4.10
  -7  -8   6   60.99    4.90
   7  -8  -6   75.29    5.40
   7   8  -6   68.39    4.40
   7   8  -6   70.39    5.10
   6  -8  -6   18.30    2.60
  -6  -8   6   19.90    3.20
   6  -8  -6   17.60    2.50
   6  -8  -6   21.20    3.40
   6   8  -6   19.10    3.00
   6   8  -6   17.40    2.70
  -5  -8   6  323.77   12.70
  -5  -8   6  333.07   12.40
   5  -8  -6  341.07   12.50
   5  -8  -6  331.67   12.40
  -5   8   6  361.96   13.30
   5   8  -6  348.27   12.70
   5   8  -6  332.37   12.50
   4  -8  -6    6.00    1.70
  -4  -8   6    2.90    1.40
   4  -8  -6    4.10    1.50
  -4  -8   6    4.70    1.50
   4   8  -6    4.40    1.50
  -4   8   6    5.60    1.90
   4   8  -6    3.50    1.60
  -3  -8   6  366.46   13.60
   3  -8  -6  377.96   13.40
   3  -8  -6  386.26   13.50
  -3  -8   6  366.46   12.70
  -3   8   6  365.46   13.50
   3   8  -6  370.96   13.60
   3   8  -6  370.06   12.70
   2  -8  -6   21.60    2.80
  -2  -8   6   21.90    2.80
   2  -8  -6   23.20    2.70
  -2  -8   6   24.40    1.90
   2  -8  -6   20.60    2.60
   2   8  -6   25.90    2.00
   2   8  -6   17.70    2.60
  -2   8   6   20.20    2.70
   1  -8  -6  291.07   10.90
   1  -8  -6  289.57   10.90
   1  -8  -6  287.67   10.70
  -1  -8   6  285.57   11.10
  -1  -8   6  289.17    9.60
   1   8  -6  291.87   11.10
   1   8  -6  287.97    9.80
  -1   8   6  286.97   10.70
   0  -8  -6  330.37   12.30
   0  -8  -6  340.07   12.50
   0  -8   6  328.87   12.60
   0  -8  -6  347.67   12.50
   0   8   6  340.27   12.30
   0   8  -6  329.17   12.50
   0   8  -6  358.56   10.90
  -1  -8  -6   14.30    2.20
  -1  -8  -6   18.90    2.50
  -1  -8  -6   22.40    2.90
   1  -8   6   18.00    2.50
  -1   8  -6   19.00    2.60
   1   8   6   18.00    2.40
   2  -8   6  363.86   11.60
  -2  -8  -6  357.16   13.10
  -2  -8  -6  355.46   13.10
   2  -8   6  367.56   11.70
   2  -8   6  348.47   13.20
   2   8   6  366.76   13.20
  -2   8  -6  354.56   13.10
  -3  -8  -6   -0.60    1.40
   3  -8   6    2.00    0.90
  -3  -8  -6    0.00    1.10
   3  -8   6    0.70    1.10
   3  -8   6    1.20    1.00
  -3   8  -6    2.20    1.50
   3   8   6    1.50    1.50
   4  -8   6  282.97   11.40
  -4  -8  -6  297.67   11.40
  -4  -8  -6  306.87   11.60
   4  -8   6  312.17   10.80
   4  -8   6  313.37   10.60
  -4   8  -6  305.17   11.50
   4   8   6  305.17   12.00
  -5  -8  -6    6.40    1.80
   5  -8   6    8.50    1.90
  -5  -8  -6   11.00    2.40
   5  -8   6   12.10    2.20
  -5   8  -6   10.00    2.10
   5   8   6    9.60    2.50
  -6  -8  -6   48.30    4.00
   6  -8   6   42.50    3.50
   6  -8   6   52.29    4.00
  -6  -8  -6   46.60    4.10
   6  -8   6   48.60    3.80
  -6   8  -6   47.00    3.50
   6   8   6   50.39    4.60
  -7  -8  -6    3.80    1.90
   7  -8   6   -0.10    1.20
  -7  -8  -6   -1.10    1.30
   7  -8   6   -0.20    1.60
  -7   8  -6   -2.40    1.00
   7   8   6    0.60    1.90
   8  -8   6    3.90    2.10
   8  -8   6    0.60    1.30
  -8  -8  -6    2.00    1.70
  -8  -8  -6    5.20    2.10
  -8   8  -6    0.50    1.40
   8   8   6    0.90    2.40
   9  -8   6   52.49    5.60
   9  -8   6   30.90    3.00
  -9  -8  -6   38.90    3.30
  -9  -8  -6   48.80    3.70
   9   8   6   48.90    5.90
  10  -8   6    1.40    2.40
  10  -8   6    3.10    1.10
 -10  -8  -6    1.10    1.60
  10   8   6    3.80    3.10
  11  -9  -6    9.30    1.80
 -11  -9   6    7.90    2.40
  11  -9  -6   10.50    3.80
  11   9  -6   10.10    3.60
  10  -9  -6    4.90    3.20
  10  -9  -6   -0.60    1.50
  10   9  -6   -0.40    4.30
   9  -9  -6   38.10    3.60
   9  -9  -6   49.40    6.10
   9   9  -6   34.80    4.40
   9   9  -6   35.50    5.00
   8  -9  -6    6.10    2.00
   8  -9  -6   12.20    3.40
   8   9  -6    5.10    3.70
   8   9  -6    7.30    2.70
   7  -9  -6   42.20    3.60
   7  -9  -6   40.40    4.80
   7   9  -6   44.90    4.30
   6  -9  -6   79.39    5.40
   6  -9  -6   73.69    4.90
   6   9  -6   68.99    5.50
   6   9  -6   76.29    5.00
   5  -9  -6   37.50    3.50
  -5  -9   6   34.10    3.20
   5   9  -6   43.00    3.80
  -5   9   6   43.00    4.70
   5   9  -6   41.90    3.50
  -4  -9   6    3.80    1.60
   4  -9  -6    2.90    1.70
   4   9  -6    4.50    2.00
  -4   9   6    3.60    1.90
   4   9  -6    7.30    1.80
   3  -9  -6   26.70    3.10
  -3  -9   6   22.60    2.30
  -3   9   6   27.20    3.30
   3   9  -6   29.20    2.40
   3   9  -6   25.40    3.10
   2  -9  -6  298.67   11.70
  -2  -9   6  321.37   10.70
   2   9  -6  300.07   11.80
   2   9  -6  306.47   10.50
  -2   9   6  312.57   11.70
  -1  -9   6   14.70    1.60
   1  -9  -6   12.90    2.40
   1   9  -6   11.60    2.40
   1   9  -6   15.80    1.60
  -1   9   6   14.50    2.50
   0  -9   6  221.38    7.70
   0  -9  -6  233.68    9.40
   0   9  -6  226.88    9.40
   0   9   6  220.38    9.00
   0   9  -6  229.98    7.80
  -1  -9  -6  146.69    7.10
   1  -9   6  155.88    5.50
   1   9   6  151.48    7.00
  -1   9  -6  154.48    7.20
  -1   9  -6  154.38    5.80
   2  -9   6  319.27   10.50
  -2  -9  -6  303.77   12.00
   2  -9   6  322.57   10.60
  -2   9  -6  320.07   12.10
   2   9   6  316.37   12.60
   3  -9   6   55.09    3.10
   3  -9   6   53.59    2.80
  -3  -9  -6   49.40    4.00
   3   9   6   52.19    4.00
  -3   9  -6   49.10    3.80
   4  -9   6  205.48    8.00
  -4  -9  -6  200.98    8.90
   4  -9   6  207.38    7.70
  -4   9  -6  211.08    8.80
   4   9   6  201.78    9.20
   5  -9   6  157.08    6.70
  -5  -9  -6  161.28    7.50
   5  -9   6  157.58    6.90
  -5   9  -6  155.98    7.20
   5   9   6  154.18    7.90
  -6  -9  -6  147.89    7.40
   6  -9   6  150.88    7.10
  -6   9  -6  144.89    6.80
   6   9   6  147.49    8.00
  -7  -9  -6   19.60    3.20
   7  -9   6   16.80    3.10
  -7   9  -6   14.60    2.40
   7   9   6   17.10    3.50
  -8  -9  -6   80.59    5.20
   8  -9   6   82.99    5.70
   8   9   6   80.59    6.50
  -8   9  -6   77.29    4.60
  -9  -9  -6   22.70    3.30
   9  -9   6   26.10    4.10
   9   9   6   24.40    4.40
  10  -9   6    1.10    1.20
  10  -9   6    4.50    2.70
 -10  -9  -6    0.90    1.70
  10   9   6    1.70    2.60
 -11 -10   6   14.90    3.10
  11 -10  -6   21.30    4.70
  11 -10  -6   10.30    2.20
  11  10  -6   26.40    5.10
  10 -10  -6   47.40    6.40
  10 -10  -6   36.60    4.50
  10  10  -6   42.60    5.80
   9 -10  -6   42.60    4.00
   9 -10  -6   42.50    6.10
   9  10  -6   39.60    5.20
   9  10  -6   35.40    3.90
   8 -10  -6   31.20    3.60
   8 -10  -6   34.90    4.90
   8  10  -6   30.30    4.40
   8  10  -6   30.10    3.70
   7 -10  -6   67.39    4.70
   7 -10  -6   61.49    5.30
   7  10  -6   63.79    5.10
   7  10  -6   65.89    4.80
   6 -10  -6   77.49    5.00
   6 -10  -6   85.19    5.70
   6  10  -6   69.39    5.10
   6  10  -6   72.29    5.10
   5 -10  -6  233.18    9.90
   5  10  -6  237.98   10.10
   5  10  -6  238.38    9.70
  -5  10   6  229.78   10.40
   4 -10  -6   24.10    3.20
  -4 -10   6   25.40    2.90
   4  10  -6   21.20    2.80
  -4  10   6   22.30    3.20
   4  10  -6   21.30    3.30
   3 -10  -6   50.09    4.00
  -3 -10   6   51.59    3.40
  -3  10   6   50.49    4.00
   3  10  -6   51.49    3.30
   3  10  -6   50.59    4.20
  -2 -10   6   -0.20    0.90
   2 -10  -6    2.20    1.70
   2  10  -6    0.50    1.00
   2  10  -6   -2.20    1.40
  -1 -10   6  318.47   11.10
   1 -10  -6  334.37   12.70
   1  10  -6  333.67   11.00
   1  10  -6  335.07   12.80
  -1  10   6  315.47   12.30
   0 -10   6   28.40    2.00
   0 -10  -6   25.90    3.30
   0  10   6   29.10    3.50
   0  10  -6   29.60    3.60
   0  10  -6   31.30    2.10
   1 -10   6  209.78    7.40
  -1 -10  -6  211.58    9.10
  -1  10  -6  206.78    7.50
   1  10   6  211.88    9.70
  -1  10  -6  212.28    9.20
   2 -10   6  112.79    4.70
   2 -10   6  111.39    4.50
  -2 -10  -6  103.89    6.00
  -2  10  -6  112.19    6.00
   2  10   6  112.69    6.00
  -3 -10  -6   41.50    4.00
   3 -10   6   44.20    2.60
   3 -10   6   48.00    3.00
  -3  10  -6   37.90    3.70
   3  10   6   42.40    4.00
  -4 -10  -6  231.48   10.00
   4 -10   6  230.48    8.60
   4 -10   6  237.58    8.90
  -4  10  -6  236.98    9.90
   4  10   6  225.98   10.20
  -5 -10  -6   15.90    3.10
   5 -10   6    9.90    2.20
   5 -10   6   10.30    1.90
   5  10   6    6.50    2.30
  -5  10  -6   11.30    2.40
  -6 -10  -6  151.38    7.80
   6 -10   6  154.98    7.30
   6  10   6  155.78    8.40
  -6  10  -6  156.78    7.30
  -7 -10  -6   26.70    3.80
   7 -10   6   21.80    3.40
   7  10   6   22.50    3.90
  -7  10  -6   18.70    2.80
   8 -10   6   37.70    4.50
  -8 -10  -6   38.00    4.30
   8  10   6   36.60    5.10
   9 -10   6    6.40    2.70
   9 -10   6    3.80    2.30
  -9 -10  -6    6.70    2.50
   9  10   6    7.10    3.40
 -10 -10  -6   41.30    4.30
  10 -10   6   42.20    5.50
  10 -10   6   40.00    3.20
  10  10   6   38.20    5.70
  10 -11  -6   49.00    6.90
 -10 -11   6   60.49    5.20
  10 -11  -6   54.59    4.60
  10  11  -6   59.29    6.70
   9 -11  -6   93.39    5.80
   9 -11  -6   89.09    7.30
   9  11  -6  103.69    7.30
   9  11  -6   80.49    5.80
   8 -11  -6   55.89    4.70
   8 -11  -6   55.89    6.10
   8  11  -6   61.89    5.00
   8  11  -6   63.59    5.70
   7 -11  -6   22.50    3.50
   7 -11  -6   24.70    4.40
   7  11  -6   24.20    3.70
   7  11  -6   17.70    3.40
   6 -11  -6  102.59    6.60
   6 -11  -6   99.29    6.10
   6  11  -6  103.69    6.10
   6  11  -6  103.09    6.20
   5 -11  -6    2.60    2.00
  -5  11   6    4.50    2.20
   5  11  -6    1.20    1.90
   5  11  -6    4.30    2.30
  -4 -11   6   59.79    4.10
   4 -11  -6   68.99    4.90
  -4  11   6   62.79    4.80
   4  11  -6   57.09    4.90
   4  11  -6   63.89    4.10
   3 -11  -6  103.69    6.00
   3  11  -6   96.79    6.10
  -3  11   6   91.39    5.70
   3  11  -6  103.99    5.00
   2 -11  -6  321.87   12.80
  -2 -11   6  324.07   11.50
  -2  11   6  329.37   12.70
   2  11  -6  318.97   12.90
   2  11  -6  331.17   11.40
  -1 -11   6   30.10    2.50
   1 -11  -6   34.60    4.00
  -1  11   6   35.60    3.50
   1  11  -6   32.60    2.50
   1  11  -6   29.80    3.60
   0 -11  -6   28.80    3.80
   0 -11   6   28.80    2.20
   0  11  -6   32.40    2.40
   0  11   6   32.60    3.60
   0  11  -6   26.10    3.50
  -1 -11  -6  120.59    6.50
   1 -11   6  113.69    4.60
   1  11   6  105.29    5.90
  -1  11  -6  105.79    6.20
  -1  11  -6  106.69    4.70
  -2 -11  -6   25.60    3.70
   2 -11   6   20.90    2.00
   2 -11   6   27.10    2.40
   2  11   6   20.20    3.00
  -2  11  -6   22.10    3.20
   3 -11   6  200.98    7.70
  -3 -11  -6  202.98    9.40
   3 -11   6  218.28    8.10
  -3  11  -6  206.68    9.30
   3  11   6  215.38    9.50
   4 -11   6    9.70    1.70
  -4 -11  -6    7.30    2.60
   4 -11   6   10.10    2.10
  -4  11  -6    6.60    2.20
   4  11   6    9.30    2.60
  -5 -11  -6  151.38    7.70
   5 -11   6  146.19    6.70
   5 -11   6  134.89    6.20
   5  11   6  148.79    8.00
  -5  11  -6  139.09    7.20
  -6 -11  -6    0.40    2.20
   6 -11   6    3.10    1.90
   6  11   6    2.60    2.70
  -6  11  -6    1.20    1.70
  -7 -11  -6   15.60    3.30
   7 -11   6   23.80    3.60
  -7  11  -6   22.10    3.10
   7  11   6   21.60    4.00
   8 -11   6    6.80    2.70
  -8 -11  -6    2.80    2.60
   8  11   6    3.90    3.20
  -8  11  -6    4.20    2.10
   9 -11   6   19.60    3.00
  -9 -11  -6   18.60    3.50
   9 -11   6   20.00    3.90
   9  11   6   16.30    4.20
  10 -12  -6    5.00    2.40
  10 -12  -6    1.80    3.00
 -10 -12   6    4.00    2.80
  10  12  -6   -2.20    2.70
   9 -12  -6   40.30    6.00
   9 -12  -6   38.30    4.40
   9  12  -6   40.20    4.70
   8 -12  -6  107.59    6.60
   8 -12  -6  105.19    7.90
   8  12  -6  110.79    6.80
   8  12  -6  103.49    7.10
   7 -12  -6   12.10    3.30
   7 -12  -6   19.70    3.40
   7  12  -6   17.30    3.40
   7  12  -6   17.30    3.50
   6 -12  -6  163.78    8.40
   6 -12  -6  169.68    8.90
   6  12  -6  170.58    8.30
   6  12  -6  176.98    8.70
   5 -12  -6  100.99    6.40
   5  12  -6  105.39    5.90
   5  12  -6  105.59    6.60
  -5  12   6  106.79    6.80
   4 -12  -6   85.19    5.70
   4  12  -6   76.39    5.70
  -4  12   6   72.99    5.50
   4  12  -6   88.79    5.00
   3 -12  -6   92.69    5.80
  -3 -12   6   61.69    4.30
  -3  12   6   74.89    5.30
   3  12  -6   85.29    4.50
   3  12  -6   82.99    5.70
   2 -12  -6   92.59    6.00
  -2 -12   6   91.29    4.80
   2  12  -6   93.99    6.10
   2  12  -6   97.19    4.70
  -2  12   6   92.99    5.70
   1 -12  -6  313.17   12.70
  -1 -12   6  305.87   11.00
   1  12  -6  311.47   10.80
   1  12  -6  310.97   12.70
  -1  12   6  304.87   12.20
   0 -12   6   40.00    2.70
   0 -12  -6   37.20    4.30
   0  12  -6   47.70    4.40
   0  12  -6   41.40    2.90
   0  12   6   42.40    3.90
   1 -12   6   61.19    3.30
  -1 -12  -6   62.89    5.00
  -1  12  -6   65.49    5.10
   1  12   6   63.39    4.70
  -1  12  -6   59.09    3.50
   2 -12   6  114.19    5.10
  -2 -12  -6  114.99    6.90
   2 -12   6  123.79    5.30
  -2  12  -6  122.29    6.90
   2  12   6  124.59    6.80
  -3 -12  -6  196.58    9.20
   3 -12   6  195.58    7.50
   3 -12   6  174.78    7.10
   3  12   6  189.48    9.00
  -3  12  -6  173.18    8.60
   4 -12   6   22.20    2.70
  -4 -12  -6   16.00    3.50
   4 -12   6   21.50    3.10
  -4  12  -6   21.70    3.60
   4  12   6   23.80    3.80
  -5 -12  -6   25.30    4.20
   5 -12   6   26.90    3.30
   5  12   6   27.70    4.30
  -5  12  -6   26.20    3.70
  -6 -12  -6  239.88   10.80
   6 -12   6  212.68   10.60
   6  12   6  245.08   11.50
  -6  12  -6  245.08   10.40
  -7 -12  -6   49.90    5.50
   7 -12   6   39.20    4.50
  -7  12  -6   47.20    4.40
   7  12   6   40.10    5.50
  -8 -12  -6  130.49    7.80
   8 -12   6  141.89    7.70
  -8  12  -6  122.69    7.00
   8  12   6  146.19    9.00
  -9 -12  -6    0.70    2.50
   9 -12   6    1.60    2.20
   9 -12   6    1.80    2.40
   9  12   6   -4.40    2.40
   9 -13  -6   13.40    4.10
   9 -13  -6   14.20    3.20
   9  13  -6   19.10    4.40
   9  13  -6   10.50    3.20
   8 -13  -6   64.09    5.50
   8 -13  -6   79.99    6.80
   8  13  -6   70.99    6.30
   8  13  -6   69.59    5.70
   7 -13  -6    9.90    3.50
   7 -13  -6    8.90    2.80
   7  13  -6    4.10    2.70
   7  13  -6   12.80    3.10
   6 -13  -6   70.89    5.90
   6 -13  -6   67.39    5.50
   6  13  -6   81.19    5.50
   6  13  -6   63.29    5.50
   5 -13  -6    0.30    2.40
   5  13  -6   -2.80    2.20
  -5  13   6   -2.30    2.20
   5  13  -6   -0.40    1.80
   4 -13  -6   93.59    6.20
   4  13  -6   88.59    5.20
  -4  13   6   84.19    6.10
   4  13  -6   91.59    6.40
  -3 -13   6   26.30    3.20
   3 -13  -6   32.40    4.20
   3  13  -6   39.20    4.80
   3  13  -6   41.20    3.40
  -3  13   6   41.80    4.50
  -2 -13   6  168.18    7.40
   2 -13  -6  180.98    9.00
   2  13  -6  182.88    9.00
  -2  13   6  169.28    8.50
   2  13  -6  182.08    7.30
  -1 -13   6   97.29    4.90
   1 -13  -6  101.59    6.60
  -1  13   6  106.39    6.20
   1  13  -6  103.39    4.90
   1  13  -6  105.29    6.60
   0 -13  -6   85.79    5.90
   0 -13   6   65.69    3.80
   0  13   6   75.79    5.20
   0  13  -6   68.69    4.00
   0  13  -6   76.29    5.60
  -1 -13  -6   14.10    3.20
   1 -13   6   11.50    1.80
  -1  13  -6    8.00    2.60
   1  13   6   13.60    3.10
  -1  13  -6   12.10    2.10
  -2 -13  -6    0.90    2.50
   2 -13   6   -0.90    1.00
   2  13   6    1.80    2.10
  -2  13  -6   -0.80    1.80
  -3 -13  -6   72.19    5.80
   3 -13   6   69.19    4.10
   3 -13   6   61.59    3.80
   3  13   6   76.59    5.60
  -3  13  -6   62.29    5.30
   4 -13   6    3.30    1.80
   4 -13   6    1.60    1.30
  -4 -13  -6    0.00    2.40
  -4  13  -6    1.50    2.10
   4  13   6    0.80    2.20
  -5 -13  -6  165.38    8.80
   5 -13   6  152.88    7.30
  -5  13  -6  158.98    8.20
   5  13   6  151.28    8.60
  -6 -13  -6    5.80    3.00
   6 -13   6    4.80    2.10
   6  13   6    3.80    4.60
  -6  13  -6    5.10    2.40
  -7 -13  -6    8.80    3.50
   7 -13   6    8.10    2.60
  -7  13  -6    3.90    2.40
   7  13   6    7.20    3.00
   8 -13   6    2.50    2.30
  -8 -13  -6    1.80    2.80
   8  13   6   -0.60    2.70
   8 -14  -6   -0.90    2.20
   8 -14  -6   -1.70    2.40
   8  14  -6   -2.00    2.50
   8  14  -6   -1.80    2.30
   7 -14  -6   11.80    5.80
   7 -14  -6   16.40    3.40
   7  14  -6   19.10    3.80
   7  14  -6   26.10    4.00
   6 -14  -6    5.60    2.70
   6 -14  -6   18.60    4.00
   6  14  -6   11.20    3.00
   6  14  -6   11.50    3.70
   5 -14  -6   10.50    3.00
   5  14  -6   13.30    2.90
   5  14  -6    7.20    3.20
  -5  14   6   13.40    3.50
   4 -14  -6    3.40    2.50
  -4  14   6    1.80    2.70
   4  14  -6    2.70    2.80
   4  14  -6    3.00    2.10
   3 -14  -6   36.50    4.70
   3  14  -6   26.90    4.20
  -3  14   6   25.30    4.00
   3  14  -6   38.70    3.40
   2 -14  -6    1.30    2.30
  -2 -14   6    1.20    1.50
   2  14  -6   -3.30    1.20
  -2  14   6    3.40    2.30
   2  14  -6   -2.70    2.10
   1 -14  -6   85.19    6.40
  -1 -14   6   69.19    4.40
   1  14  -6   76.89    6.00
   1  14  -6   86.19    4.50
  -1  14   6   87.59    5.80
   0 -14   6    2.10    1.50
   0 -14  -6    4.00    2.70
   0  14   6    2.70    2.20
   0  14  -6    2.10    1.70
   0  14  -6    1.90    2.20
   1 -14   6  129.29    6.00
  -1 -14  -6  138.09    8.10
  -1  14  -6  142.69    6.20
  -1  14  -6  144.39    8.10
   1  14   6  141.89    7.70
   2 -14   6   37.40    3.40
  -2 -14  -6   37.70    4.90
  -2  14  -6   39.50    4.80
   2  14   6   36.40    4.60
   3 -14   6    1.70    1.40
  -3 -14  -6    1.20    2.60
   3 -14   6    1.80    1.70
   3  14   6    3.00    2.40
  -3  14  -6    1.10    2.20
   4 -14   6    4.80    1.80
   4 -14   6    7.80    2.30
  -4 -14  -6    7.20    3.10
  -4  14  -6    9.00    2.90
   4  14   6    7.70    3.10
  -5 -14  -6   30.70    4.70
   5 -14   6   25.50    3.40
   5  14   6   23.40    4.10
  -5  14  -6   23.30    4.00
  -6 -14  -6   74.69    6.40
   6 -14   6   64.19    4.90
  -6  14  -6   72.79    5.80
   6  14   6   83.39    6.70
   7 -14   6    2.40    2.30
  -7 -14  -6    4.90    3.10
  -7  14  -6    1.80    2.40
   7  14   6   10.70    3.60
  -8 -14  -6   52.09    6.10
   8 -15  -6    1.80    3.30
   8 -15  -6    4.50    3.50
   8  15  -6    6.50    3.20
   8  15  -6    1.80    2.90
   7 -15  -6    4.60    2.90
   7 -15  -6    4.10    3.30
   7  15  -6    3.80    2.60
   6 -15  -6    3.50    2.70
   6  15  -6   10.70    3.60
   6  15  -6    5.10    2.60
   5 -15  -6    4.60    3.00
   5  15  -6    6.00    2.40
  -5  15   6    2.50    3.10
   5  15  -6   -0.20    2.90
   4 -15  -6   19.80    4.00
  -4  15   6   13.60    3.50
   4  15  -6   15.00    3.60
   4  15  -6   18.40    3.00
   3 -15  -6   -0.90    2.50
   3  15  -6   -4.60    2.20
  -3  15   6    2.80    2.80
   2 -15  -6   92.69    6.90
  -2  15   6   96.39    6.60
   2  15  -6   91.09    5.00
   2  15  -6   85.29    6.80
  -1 -15   6    1.60    1.70
   1 -15  -6   -3.00    2.30
   1  15  -6    1.60    1.80
   1  15  -6    2.10    2.50
  -1  15   6    2.40    2.40
   0 -15  -6   86.59    6.60
   0 -15   6   67.99    4.30
   0  15   6   80.19    5.80
   0  15  -6   71.49    4.40
   0  15  -6   78.09    6.20
  -1 -15  -6   12.50    3.50
   1 -15   6   11.30    2.20
   1  15   6   17.10    3.50
  -1  15  -6   16.40    3.60
  -1  15  -6   15.00    2.50
   2 -15   6   39.60    3.30
  -2 -15  -6   53.79    6.00
  -2  15  -6   49.99    5.40
   2  15   6   42.30    4.80
   3 -15   6   -1.90    1.30
   3 -15   6   -3.50    1.50
  -3 -15  -6   -4.00    2.30
   3  15   6    1.20    2.60
  -3  15  -6    3.60    2.70
   4 -15   6   10.70    2.50
  -4 -15  -6    7.60    3.70
   4  15   6    7.30    3.30
  -4  15  -6    8.70    3.20
  -5 -15  -6   36.10    5.20
   5 -15   6   31.10    3.90
  -5  15  -6   34.20    4.70
   5  15   6   28.40    4.60
  -6 -15  -6   30.10    6.10
   6 -15   6   22.20    3.40
  -6  15  -6   23.50    4.00
   6  15   6   25.50    4.60
   7 -15   6    3.90    2.40
  -7 -15  -6    3.80    6.30
   7  15   6    8.40    3.50
  -7  15  -6    4.10    2.60
   7 -16  -6    7.80    3.70
   7 -16  -6   10.90    3.60
   7  16  -6    8.90    3.50
   7  16  -6    7.90    3.20
   6 -16  -6   -2.70    2.40
   6 -16  -6    2.60    3.10
   6  16  -6    5.40    3.40
   6  16  -6    3.80    2.50
   5 -16  -6    8.00    3.30
  -5  16   6    7.50    5.80
   5  16  -6    3.10    3.10
   5  16  -6    2.20    2.40
   4 -16  -6   14.10    4.70
   4  16  -6    9.80    3.70
  -4  16   6   11.40    3.60
   4  16  -6    7.20    2.50
   3  16  -6    8.90    2.40
  -3  16   6    4.70    3.20
   3  16  -6    9.30    5.50
   2 -16  -6    2.90    3.70
   2  16  -6    2.50    5.40
   2  16  -6    3.30    2.10
  -2  16   6   -1.40    2.30
   1 -16  -6   -0.20    3.80
   1  16  -6    4.00    2.00
  -1  16   6    7.80    3.10
   1  16  -6   10.00    4.10
   0 -16   6    1.00    1.80
   0 -16  -6    0.30    3.50
   0  16   6    4.30    2.70
   0  16  -6   -0.40    3.20
   0  16  -6    0.30    1.70
  -1 -16  -6    5.30    4.80
   1 -16   6   -0.20    1.60
   1  16   6    5.00    2.70
  -1  16  -6    0.10    3.60
  -1  16  -6    2.00    1.80
   2 -16   6    5.90    2.00
  -2  16  -6    8.60    5.40
   2  16   6    6.30    3.00
   3 -16   6    0.80    1.90
  -3 -16  -6    1.90    3.10
   3  16   6    1.40    3.20
   4 -16   6    1.70    3.30
  -4 -16  -6   -1.50    2.90
   4  16   6    1.70    2.80
  -4  16  -6   -2.10    2.40
   5 -16   6    1.90    2.00
  -5 -16  -6   -0.60    3.10
  -5  16  -6    2.40    2.70
   5  16   6    1.00    2.70
   6 -16   6    1.80    2.10
  -6 -16  -6    3.70    3.50
  -6  16  -6    1.40    2.60
   6  16   6    1.10    2.90
   6 -17  -6    4.60    3.30
   6 -17  -6    1.60    2.70
   6  17  -6    2.10    2.60
   6  17  -6    5.40    3.50
   5 -17  -6    9.40    3.80
   5  17  -6   12.70    4.00
  -5  17   6   11.80    3.90
   5  17  -6   15.30    3.30
   4 -17  -6    1.80    2.70
   4  17  -6    0.80    3.00
  -4  17   6    1.40    3.20
   4  17  -6    0.00    2.20
   3 -17  -6   41.30    5.90
  -3  17   6   54.09    6.70
   3  17  -6   36.00    4.00
   3  17  -6   42.60    5.90
   2 -17  -6    2.70    3.30
  -2  17   6    1.40    2.70
   2  17  -6    3.20    3.40
   2  17  -6    2.40    2.00
   1 -17  -6   32.50    5.50
  -1  17   6   43.00    5.60
   1  17  -6   27.90    5.10
   1  17  -6   35.30    4.70
   0 -17  -6    3.70    3.30
   0  17  -6    1.70    1.90
   0  17  -6    0.20    3.10
   0  17   6    1.90    2.90
  -1 -17  -6   -1.40    2.80
  -1  17  -6    1.70    1.90
  -1  17  -6    1.80    3.10
   1  17   6    3.10    3.20
   2 -17   6   10.30    2.50
  -2 -17  -6   13.50    4.20
  -2  17  -6    9.60    3.70
   2  17   6    7.30    3.20
  -3 -17  -6    2.00    3.30
   3 -17   6    0.20    2.20
   3  17   6    3.70    3.10
  -3  17  -6   -1.00    2.50
   4 -17   6    6.60    2.40
  -4 -17  -6    4.80    3.80
  -4  17  -6    3.10    3.10
   4  17   6    8.20    3.30
  -5 -17  -6   -2.30    2.90
   5 -17   6    2.40    2.20
  -5  17  -6    1.60    2.90
   5  17   6    1.30    2.90
   4 -18  -6    3.80    3.50
   4  18  -6   -1.10    3.30
   4  18  -6    0.00    2.00
  -4  18   6   -0.30    3.30
   3 -18  -6    3.40    3.30
   3  18  -6    1.80    2.00
   3  18  -6    4.30    3.40
  -3  18   6    2.80    3.20
   2 -18  -6   -0.40    2.90
   2  18  -6    2.00    2.10
  -2  18   6    1.30    3.00
   2  18  -6   -3.80    2.90
   1 -18  -6    1.40    3.40
  -1  18   6    4.20    3.20
   1  18  -6    0.40    2.10
   1  18  -6    2.40    3.40
   0 -18  -6    3.00    3.30
   0  18   6    8.40    3.40
   0  18  -6    4.10    3.60
  -1 -18  -6    0.60    3.10
  -1  18  -6    0.80    3.10
   1  18   6   -0.50    2.80
  -1  18  -6   -1.80    3.00
   2 -18   6    1.30    2.60
  -2 -18  -6   -2.60    3.00
   2  18   6    2.40    2.90
  -2  18  -6   -3.80    2.70
   3 -18   6    5.50    2.40
  -3 -18  -6   -1.00    3.70
  -3  18  -6    6.50    3.50
   3  18   6    5.40    3.30
   1 -19  -6    4.80    3.70
  -1  19   6    6.00    3.50
   1  19  -6    8.40    2.60
   1  19  -6    7.20    4.00
   0 -19  -6    1.60    3.70
   0  19   6    7.20    3.70
   0  19  -6    1.10    3.30
   0  19  -6    4.00    2.30
  -1 -19  -6    2.00    3.70
  12   0  -7   -4.50    2.10
  11   0  -7    1.80    3.40
  10   0  -7    3.10    2.60
   9   0  -7   -0.70    0.70
   9   0  -7    0.20    2.20
  -8   0   7    0.20    0.90
   8   0  -7    2.70    1.00
   8   0  -7    4.60    2.30
   7   0  -7    0.40    1.00
   7   0  -7    2.30    1.80
  -7   0   7    1.40    1.00
  -6   0   7    4.20    1.70
  -6   0   7    3.60    1.20
   6   0  -7    3.80    1.70
   6   0  -7    3.20    1.20
   5   0  -7   -0.30    0.90
   5   0  -7   -0.90    0.90
  -5   0   7    0.10    0.90
   5   0  -7    1.70    1.20
  -4   0   7    2.90    1.00
   4   0  -7    2.00    1.10
   4   0  -7    2.40    1.00
   4   0  -7    2.80    1.20
   3   0  -7    0.00    0.70
   3   0  -7   -0.40    0.80
   3   0  -7    0.10    0.80
  -3   0   7   -0.50    0.70
   2   0  -7    1.30    1.00
  -2   0   7   -0.30    0.70
  -2   0   7    0.40    0.70
   2   0  -7    1.10    0.70
   1   0  -7    1.40    1.00
  -1   0   7    2.00    1.00
   1   0  -7    2.20    0.70
   0   0   7    1.90    1.00
   0   0   7    2.70    0.70
   0   0  -7    4.00    0.80
   0   0  -7    2.80    1.00
  -1   0  -7   -0.20    0.80
   1   0   7   -0.50    0.70
  -1   0  -7    0.80    0.60
   1   0   7    0.60    0.60
  -2   0  -7    0.20    0.70
  -2   0  -7    0.00    0.80
   2   0   7    0.10    0.80
   2   0   7   -0.10    0.70
  -3   0  -7    0.20    0.80
   3   0   7   -0.40    0.70
  -3   0  -7    0.90    0.90
   3   0   7    0.70    0.90
   4   0   7   -0.90    0.60
  -4   0  -7    0.00    0.80
   4   0   7    0.90    1.00
  -4   0  -7    1.00    0.90
   5   0   7    0.70    1.10
  -5   0  -7    1.10    1.10
   5   0   7    0.10    0.70
  -5   0  -7    0.80    0.90
   6   0   7    1.40    1.40
  -6   0  -7    0.10    0.90
   6   0   7   -0.70    0.70
   7   0   7    6.30    2.30
   8   0   7    2.30    1.80
   9   0   7    0.50    2.00
  10   0   7   -0.40    2.00
  11   0   7   -1.00    2.30
  12  -1  -7    4.50    3.30
  12   1  -7    3.50    2.80
  11  -1  -7    2.50    2.90
  11   1  -7    3.00    4.30
  10  -1  -7  147.29    8.80
  10   1  -7  151.08    8.90
   9  -1  -7   40.10    2.10
   9  -1  -7   39.20    5.00
  -9  -1   7   45.60    2.40
   9   1  -7   55.99    5.20
   9   1  -7   45.80    2.20
   8  -1  -7   46.00    4.40
  -8  -1   7   50.29    2.70
   8  -1  -7   48.10    2.60
   8   1  -7   49.40    2.70
  -8   1   7   46.70    2.60
   8   1  -7   56.19    4.70
   7  -1  -7    2.80    1.80
   7  -1  -7    2.00    1.10
  -7  -1   7    0.60    0.90
   7   1  -7    1.00    1.80
   7   1  -7    0.10    1.00
  -7   1   7    1.00    0.90
   6  -1  -7    6.80    1.50
   6  -1  -7    7.60    2.10
  -6  -1   7    4.40    1.20
  -6  -1   7    3.80    1.50
  -6   1   7    5.20    1.30
   6   1  -7    5.00    1.80
   6   1  -7    3.10    1.20
   5  -1  -7   48.00    2.90
   5  -1  -7   49.80    3.40
   5  -1  -7   48.00    3.20
  -5  -1   7   46.60    2.70
   5   1  -7   40.60    2.70
  -5   1   7   42.30    2.60
   5   1  -7   47.00    3.30
   4  -1  -7   90.09    4.30
  -4  -1   7   85.19    4.00
   4  -1  -7   90.19    4.10
  -4  -1   7   84.59    4.00
   4  -1  -7   89.49    4.30
  -4   1   7   89.79    3.90
   4   1  -7   81.39    4.00
   4   1  -7   84.29    4.20
   3  -1  -7  238.98    8.40
  -3  -1   7  236.28    8.40
   3  -1  -7  233.28    8.40
   3  -1  -7  237.68    8.40
   3   1  -7  230.48    8.20
   3   1  -7  227.78    8.40
  -3   1   7  237.08    8.30
   3   1  -7  227.58    8.20
  -2  -1   7   67.29    3.40
   2  -1  -7   70.39    3.20
   2  -1  -7   67.19    3.40
   2   1  -7   66.69    3.00
   2   1  -7   67.99    3.50
  -2   1   7   67.69    3.20
   2   1  -7   68.59    3.00
  -2   1   7   73.59    3.40
  -1  -1   7    3.80    1.10
   1  -1  -7    3.00    0.80
   1  -1  -7    2.90    1.10
  -1  -1   7    4.40    0.90
   1   1  -7    4.90    1.30
  -1   1   7    2.60    0.80
  -1   1   7    3.30    1.10
   1   1  -7    5.20    0.80
   0  -1   7  488.15   15.10
   0  -1  -7  496.15   16.10
   0  -1  -7  493.55   15.50
   0  -1   7  481.05   16.00
   0   1  -7  492.85   15.20
   0   1   7  498.75   15.50
   0   1   7  491.35   16.00
   0   1  -7  478.95   16.00
  -1  -1  -7   72.29    3.60
  -1  -1  -7   74.09    3.30
   1  -1   7   74.99    3.00
   1  -1   7   79.39    3.60
   1   1   7   72.79    3.50
   1   1   7   70.79    3.20
  -1   1  -7   73.69    3.60
  -2  -1  -7  145.29    5.80
   2  -1   7  151.08    5.50
   2  -1   7  147.59    5.80
  -2  -1  -7  149.69    5.80
   2   1   7  149.19    5.80
   2   1   7  137.79    5.70
  -2   1  -7  158.28    5.60
  -2   1  -7  154.68    6.00
   3  -1   7  199.58    7.50
  -3  -1  -7  198.68    7.70
   3  -1   7  205.58    7.50
  -3  -1  -7  199.38    7.50
  -3   1  -7  209.88    7.60
  -3   1  -7  200.48    7.50
   3   1   7  209.08    7.50
   3   1   7  206.88    7.70
   4  -1   7  214.98    8.30
  -4  -1  -7  224.38    8.00
  -4  -1  -7  222.38    8.60
   4  -1   7  220.48    7.90
   4   1   7  220.48    8.60
   4   1   7  216.18    7.80
  -4   1  -7  213.58    8.30
  -4   1  -7  227.38    8.00
   5  -1   7    8.70    1.90
   5  -1   7    5.90    1.20
  -5  -1  -7    5.40    1.50
  -5  -1  -7    6.70    1.40
   5   1   7    9.00    1.90
  -5   1  -7    8.00    1.40
   5   1   7    7.90    1.20
  -5   1  -7    6.40    1.60
   6  -1   7   60.29    4.20
   6  -1   7   65.99    3.10
  -6  -1  -7   58.19    3.20
  -6   1  -7   70.29    3.30
   6   1   7   60.49    4.40
   6   1   7   63.89    3.10
  -7  -1  -7   11.00    1.50
   7  -1   7   10.50    1.30
   7  -1   7   18.80    3.10
   7   1   7   10.20    1.30
  -7   1  -7   15.30    1.90
   7   1   7   13.30    2.80
   8  -1   7   72.49    5.20
   8   1   7   66.49    5.30
   9  -1   7    3.50    2.30
   9   1   7    2.70    2.20
  10  -1   7   24.90    4.50
  10   1   7   20.10    4.20
  11  -1   7   14.20    3.90
  11   1   7   19.70    4.40
  12  -2  -7   27.30    5.30
  12   2  -7   19.80    4.50
  11  -2  -7   -0.30    2.50
  11   2  -7   -3.30    2.80
  10  -2  -7   28.80    4.60
  10   2  -7   23.30    4.50
   9  -2  -7   13.60    1.50
  -9  -2   7   10.60    1.50
   9  -2  -7   14.30    3.40
   9   2  -7    9.50    3.20
  -8  -2   7    2.50    1.10
   8  -2  -7    1.90    1.90
   8  -2  -7    2.10    1.10
   8   2  -7    2.60    2.20
   8   2  -7    5.00    1.30
   7  -2  -7   55.09    3.10
   7  -2  -7   51.19    4.30
  -7  -2   7   48.90    2.90
   7   2  -7   55.99    4.70
   7   2  -7   49.40    3.00
  -7   2   7   54.29    2.90
  -6  -2   7   81.19    3.90
  -6  -2   7   74.89    4.40
   6  -2  -7   85.79    4.00
  -6   2   7   83.79    3.80
   6   2  -7   76.39    3.90
   6   2  -7   76.69    4.80
  -5  -2   7  584.44   19.90
   5  -2  -7  590.34   19.50
  -5  -2   7  564.34   18.70
   5  -2  -7  589.84   18.80
   5  -2  -7  558.14   19.30
   5   2  -7  582.24   18.80
  -5   2   7  584.44   18.50
   5   2  -7  571.94   19.30
  -4  -2   7    4.00    1.30
   4  -2  -7    7.50    1.60
  -4  -2   7    5.20    1.20
   4  -2  -7    7.10    1.40
   4  -2  -7    3.90    1.40
   4   2  -7    3.90    1.30
   4   2  -7    6.40    1.30
  -4   2   7    6.90    1.30
  -3  -2   7  315.77   10.80
   3  -2  -7  331.97   11.20
  -3  -2   7  315.27   11.20
   3  -2  -7  328.47   11.20
   3   2  -7  320.37   11.00
   3   2  -7  325.17   11.20
  -3   2   7  329.07   11.40
  -3   2   7  331.47   11.10
   2  -2  -7   85.09    3.70
  -2  -2   7   86.89    4.00
   2  -2  -7   80.49    3.90
   2   2  -7   88.39    4.10
  -2   2   7   84.09    3.80
   2   2  -7   83.79    3.40
  -2   2   7   84.39    3.90
   1  -2  -7  511.75   16.50
  -1  -2   7  515.15   16.90
   1  -2  -7  527.75   16.90
  -1   2   7  517.85   16.50
   1   2  -7  504.65   16.90
   1   2  -7  522.85   15.90
  -1   2   7  517.85   16.80
   1   2  -7  514.55   15.80
   0  -2   7    0.80    0.90
   0  -2   7    1.50    0.40
   0  -2  -7    1.30    0.70
   0  -2  -7    0.50    0.80
   0   2  -7    1.70    0.50
   0   2   7    1.90    0.80
   0   2   7    1.30    0.90
   0   2  -7    0.80    1.00
   1  -2   7  662.23   21.60
   1  -2   7  681.13   20.60
  -1  -2  -7  677.33   21.40
  -1  -2  -7  664.33   21.50
   1   2   7  689.03   21.40
  -1   2  -7  682.53   21.70
  -1   2  -7  680.23   20.70
   1   2   7  668.23   21.50
  -2  -2  -7   20.40    2.30
  -2  -2  -7   21.80    2.30
   2  -2   7   17.00    2.10
   2   2   7   17.00    1.80
   2   2   7   17.60    1.90
  -2   2  -7   16.70    2.00
  -2   2  -7   13.50    1.30
   3  -2   7  512.15   16.40
  -3  -2  -7  498.05   16.90
  -3  -2  -7  508.65   16.50
   3  -2   7  502.05   16.50
  -3   2  -7  509.35   16.60
   3   2   7  510.65   16.90
   3   2   7  503.65   16.40
  -3   2  -7  494.35   16.30
  -4  -2  -7   92.49    4.20
  -4  -2  -7   93.89    4.80
   4  -2   7   98.09    4.50
   4  -2   7   83.89    4.00
   4   2   7   92.29    4.10
  -4   2  -7   90.59    4.30
  -4   2  -7   89.69    4.20
   4   2   7   94.29    4.70
   5  -2   7   28.10    3.00
  -5  -2  -7   20.60    2.20
  -5  -2  -7   20.40    2.80
   5  -2   7   18.60    1.80
   5   2   7   18.80    1.70
   5   2   7   22.60    3.10
  -5   2  -7   20.70    1.90
  -5   2  -7   26.70    3.20
  -6  -2  -7  230.88    8.20
   6  -2   7  218.68    8.00
   6  -2   7  221.78    9.30
   6   2   7  210.78    7.90
   6   2   7  232.88    9.90
  -6   2  -7  233.18    8.10
   7  -2   7    3.00    1.80
  -7  -2  -7    3.10    1.00
   7  -2   7    1.50    0.80
  -7  -2  -7    2.50    1.20
  -7   2  -7    1.60    0.90
   7   2   7    7.00    2.40
   8  -2   7  108.89    6.50
   8  -2   7  109.29    4.10
  -8  -2  -7  116.49    4.40
  -8   2  -7  102.89    3.80
   8   2   7  111.09    6.70
   9  -2   7    3.50    2.50
   9   2   7    6.30    2.60
  10  -2   7   59.79    6.50
  11  -2   7   15.60    3.90
  11   2   7    9.80    3.60
  12  -3  -7   17.40    4.40
  12   3  -7   18.40    4.60
  11  -3  -7    6.40    3.20
  11   3  -7    7.40    3.30
  10  -3  -7   72.39    6.20
  10   3  -7   77.49    6.50
   9  -3  -7  157.38    5.80
   9  -3  -7  154.38    8.40
  -9  -3   7  148.39    5.70
   9  -3  -7  144.49    5.50
   9   3  -7  139.39    5.60
   9   3  -7  164.58    8.60
   8  -3  -7   90.79    6.00
   8  -3  -7   89.59    4.00
  -8  -3   7   93.89    4.20
   8  -3  -7   91.99    4.20
   8   3  -7   89.69    4.20
   8   3  -7   89.99    6.00
  -7  -3   7   10.80    1.80
   7  -3  -7   15.70    2.00
   7  -3  -7   12.20    2.80
  -7   3   7   14.60    1.70
   7   3  -7   15.10    2.80
   7   3  -7   12.50    1.80
  -6  -3   7   54.39    3.30
  -6  -3   7   50.59    3.60
   6  -3  -7   60.29    3.30
   6  -3  -7   55.39    4.10
  -6   3   7   58.89    3.10
   6   3  -7   59.79    4.10
   6   3  -7   56.69    3.30
  -5  -3   7  149.19    6.10
   5  -3  -7  146.89    6.50
   5  -3  -7  150.78    6.60
  -5  -3   7  139.19    6.40
   5  -3  -7  145.59    6.00
   5   3  -7  143.59    6.50
  -5   3   7  150.58    5.80
   5   3  -7  143.39    6.00
  -4  -3   7   62.49    3.40
   4  -3  -7   68.29    3.50
  -4  -3   7   68.99    3.60
   4  -3  -7   68.79    3.80
   4  -3  -7   69.69    4.20
   4   3  -7   63.59    3.60
  -4   3   7   72.39    3.40
   4   3  -7   66.89    3.70
  -3  -3   7   69.89    3.30
   3  -3  -7   71.99    3.70
   3  -3  -7   72.79    3.70
  -3  -3   7   65.89    3.60
  -3   3   7   72.99    3.80
   3   3  -7   68.09    3.40
  -3   3   7   71.09    3.50
   3   3  -7   75.79    3.80
  -2  -3   7  625.14   21.00
   2  -3  -7  668.83   21.00
  -2   3   7  662.53   20.80
  -2   3   7  645.64   20.80
   2   3  -7  649.04   21.00
   2   3  -7  651.53   20.20
   1  -3  -7   49.60    3.00
  -1  -3   7   49.50    3.00
   1  -3  -7   51.19    2.70
   1   3  -7   52.89    2.00
   1   3  -7   50.19    3.10
   1   3  -7   50.99    2.00
  -1   3   7   55.19    2.80
  -1   3   7   57.89    3.00
   0  -3  -7  684.63   22.00
   0  -3  -7  684.23   21.70
   0  -3   7  683.53   22.00
   0   3   7  690.23   21.70
   0   3  -7  681.23   22.10
   0   3   7  693.53   21.90
  -1  -3  -7    3.00    1.00
   1  -3   7    3.30    1.20
   1  -3   7    3.70    0.50
  -1  -3  -7    1.80    1.00
  -1   3  -7    4.20    1.30
   1   3   7    4.50    1.30
  -1   3  -7    2.80    0.60
   1   3   7    5.10    1.20
   2  -3   7  617.04   18.80
   2  -3   7  608.34   19.70
  -2  -3  -7  588.24   19.60
  -2  -3  -7  602.54   19.70
  -2   3  -7  607.64   19.70
   2   3   7  611.74   19.50
   2   3   7  617.94   19.70
  -2   3  -7  585.94   19.90
  -3  -3  -7   83.99    4.40
   3  -3   7   87.39    4.20
  -3  -3  -7   83.79    4.10
   3  -3   7   87.69    3.80
   3   3   7   86.79    4.40
   3   3   7   87.99    4.00
  -3   3  -7   86.39    3.80
  -3   3  -7   90.39    4.20
   4  -3   7  456.95   14.80
   4  -3   7  434.26   14.60
  -4  -3  -7  432.46   14.60
  -4  -3  -7  427.06   15.40
   4   3   7  439.26   14.50
  -4   3  -7  425.36   14.60
   4   3   7  430.96   15.30
  -4   3  -7  456.55   14.70
  -5  -3  -7    0.60    1.10
   5  -3   7    2.10    1.30
   5  -3   7    1.40    0.90
   5   3   7    1.50    1.50
  -5   3  -7    0.10    0.90
  -5   3  -7    0.00    1.00
   5   3   7    1.20    0.80
  -6  -3  -7  276.97    9.80
   6  -3   7  278.47   10.80
   6  -3   7  273.47    9.70
   6   3   7  279.67   11.30
  -6   3  -7  283.37    9.70
  -6   3  -7  257.17   10.40
   7  -3   7   23.00    1.90
  -7  -3  -7   21.80    1.90
  -7  -3  -7   22.00    2.20
   7  -3   7   24.20    3.40
   7   3   7   28.00    3.80
  -7   3  -7   25.50    1.90
   8  -3   7   57.49    4.70
  -8  -3  -7   56.09    2.90
   8  -3   7   58.99    2.80
  -8  -3  -7   47.10    2.60
   8   3   7   52.19    4.80
   9  -3   7   93.09    6.20
   9   3   7   77.09    6.10
  10  -3   7   34.00    5.00
  10   3   7   25.10    4.60
  11  -3   7  116.89    7.80
  11   3   7  109.19    8.00
  12  -4  -7   35.60    5.70
  12   4  -7   43.20    6.30
  11  -4  -7    7.90    3.70
  11   4  -7    2.30    2.80
  10  -4  -7   55.79    6.10
  10   4  -7   62.79    6.00
  -9  -4   7   88.09    4.20
   9  -4  -7   88.79    4.10
   9  -4  -7   93.49    6.50
   9  -4  -7   84.09    4.00
   9   4  -7  101.69    6.80
   9   4  -7   90.59    4.20
  -8  -4   7  153.88    6.40
   8  -4  -7  152.78    6.20
   8  -4  -7  156.48    8.20
   8  -4  -7  160.08    6.30
   8   4  -7  154.68    6.30
   8   4  -7  161.98    8.30
   7  -4  -7    8.50    2.40
  -7  -4   7    6.60    1.70
   7  -4  -7    6.10    1.60
   7  -4  -7    8.90    1.60
   7   4  -7    7.60    1.70
   7   4  -7    6.30    2.10
  -6  -4   7  360.76   13.20
   6  -4  -7  378.96   17.00
   6  -4  -7  376.96   12.70
  -6  -4   7  358.86   12.70
  -6   4   7  366.66   12.40
   6   4  -7  363.86   12.60
   6   4  -7  351.76   13.40
   5  -4  -7  196.08    8.30
   5  -4  -7  190.78    8.10
  -5  -4   7  201.08    7.80
  -5  -4   7  193.18    8.40
   5  -4  -7  207.48    7.70
   5   4  -7  198.88    7.80
  -5   4   7  201.48    7.50
   5   4  -7  197.88    8.10
  -4  -4   7  127.79    5.30
  -4  -4   7  129.39    5.50
   4  -4  -7  123.59    5.40
   4  -4  -7  129.89    5.60
  -4   4   7  118.99    5.20
  -4   4   7  114.49    5.70
   4   4  -7  123.09    5.40
   4   4  -7  123.79    5.50
  -3  -4   7  126.89    5.00
   3  -4  -7  123.59    5.40
  -3  -4   7  125.39    5.50
   3  -4  -7  127.99    5.40
  -3   4   7  135.89    5.70
  -3   4   7  122.29    5.30
   3   4  -7  127.99    5.60
   3   4  -7  122.69    5.10
  -2  -4   7  459.95   15.60
   2  -4  -7  473.95   15.50
  -2   4   7  464.15   15.30
  -2   4   7  452.25   15.30
   2   4  -7  449.86   14.60
   2   4  -7  473.15   15.60
   1  -4  -7  412.26   13.80
  -1  -4   7  425.96   14.20
   1  -4  -7  402.26   14.00
   1   4  -7  415.96   12.70
  -1   4   7  399.86   13.90
   1   4  -7  407.76   14.20
   1   4  -7  420.76   12.70
  -1   4   7  434.26   13.90
   0  -4   7  347.37   12.10
   0  -4  -7  347.97   12.00
   0   4   7  354.26   11.90
   0   4  -7  343.67   12.10
   0   4   7  336.17   11.70
   1  -4   7  225.18    6.80
  -1  -4  -7  215.88    8.10
   1  -4   7  229.18    6.80
   1  -4   7  216.38    8.30
  -1  -4  -7  214.98    8.20
   1   4   7  210.98    8.10
   1   4   7  217.88    8.10
  -1   4  -7  214.48    8.30
  -2  -4  -7   70.29    3.80
   2  -4   7   80.59    3.10
   2  -4   7   70.99    3.80
  -2  -4  -7   78.79    4.00
  -2   4  -7   73.99    2.90
  -2   4  -7   71.99    3.90
   2   4   7   75.19    3.70
   2   4   7   77.99    4.00
  -3  -4  -7  572.44   18.80
   3  -4   7  563.44   18.90
  -3  -4  -7  552.14   19.20
   3  -4   7  595.64   18.30
   3   4   7  569.44   18.70
  -3   4  -7  579.84   18.90
   3   4   7  599.64   19.30
  -3   4  -7  567.14   18.10
   4  -4   7   21.30    2.30
  -4  -4  -7   23.20    2.50
   4  -4   7   22.80    2.50
  -4  -4  -7   19.40    2.60
   4   4   7   21.60    2.20
   4   4   7   24.00    2.80
  -4   4  -7   20.90    1.90
  -4   4  -7   25.20    2.60
   5  -4   7   23.00    2.40
  -5  -4  -7   25.30    2.30
   5  -4   7   33.70    3.30
   5   4   7   22.10    3.00
  -5   4  -7   21.10    2.10
  -5   4  -7   27.50    2.60
   5   4   7   20.90    2.00
   6  -4   7  424.66   14.60
   6  -4   7  439.36   15.60
  -6  -4  -7  439.66   14.80
  -6  -4  -7  438.26   14.60
   6   4   7  441.66   16.30
  -6   4  -7  441.96   14.60
  -6   4  -7  435.26   15.30
  -7  -4  -7  200.68    7.40
  -7  -4  -7  178.78    7.10
   7  -4   7  194.38    7.20
   7  -4   7  186.08    8.60
   7   4   7  195.88    9.20
  -7   4  -7  189.68    7.10
  -8  -4  -7  198.28    7.30
   8  -4   7  199.88    7.20
   8  -4   7  218.28    9.70
  -8  -4  -7  205.28    7.50
  -8   4  -7  201.08    7.10
   8   4   7  195.18    9.80
  -9  -4  -7   61.59    2.90
   9  -4   7   55.89    5.10
   9   4   7   62.59    5.60
  10  -4   7   89.29    6.70
  10   4   7   98.99    7.20
  11  -4   7    4.80    2.80
  11   4   7    0.60    2.70
  12  -5  -7   17.60    4.80
  12   5  -7   23.10    5.10
  11  -5  -7   89.39    7.30
  11   5  -7   93.89    7.40
 -10  -5   7    4.20    1.40
  10  -5  -7    5.40    2.70
  10  -5  -7    3.70    1.20
  10  -5  -7    2.40    1.10
  10   5  -7    2.30    1.30
  10   5  -7    3.60    2.80
   9  -5  -7  147.29    8.30
  -9  -5   7  137.29    6.00
   9  -5  -7  145.89    5.90
   9  -5  -7  130.99    5.70
   9   5  -7  152.28    8.40
   9   5  -7  143.89    6.00
  -8  -5   7  105.29    5.10
   8  -5  -7  110.69    6.60
   8  -5  -7  110.79    5.00
   8  -5  -7   90.59    4.60
   8   5  -7   97.89    4.90
   8   5  -7  107.49    6.50
   7  -5  -7  170.88    6.90
   7  -5  -7  170.68    8.40
  -7  -5   7  171.48    7.30
   7  -5  -7  186.78    7.20
   7   5  -7  180.08    7.20
   7   5  -7  170.88    8.30
   6  -5  -7  153.88    6.50
   6  -5  -7  156.68    7.50
  -6  -5   7  150.58    6.70
  -6  -5   7  151.18    7.60
   6   5  -7  157.58    6.60
   6   5  -7  168.28    7.40
  -5  -5   7  156.68    6.60
   5  -5  -7  152.78    6.50
   5  -5  -7  162.38    7.10
  -5   5   7  145.79    6.20
   5   5  -7  157.78    6.80
   5   5  -7  151.48    6.50
  -4  -5   7  246.78    9.50
   4  -5  -7  261.17    9.70
   4  -5  -7  256.17    9.50
  -4  -5   7  248.68    9.20
   4   5  -7  247.68    9.30
  -4   5   7  259.07    9.90
  -4   5   7  254.67    9.30
   4   5  -7  257.47    9.60
   3  -5  -7  189.08    9.00
  -3  -5   7  153.98    5.90
  -3  -5   7  150.18    6.60
   3  -5  -7  150.28    6.40
  -3   5   7  150.38    6.30
   3   5  -7  162.08    6.70
   3   5  -7  154.68    6.00
  -3   5   7  158.88    6.70
   2  -5  -7  349.67   12.30
  -2  -5   7  344.57   12.40
   2  -5  -7  345.87   12.10
  -2  -5   7  355.56   11.30
   2   5  -7  343.57   11.30
   2   5  -7  346.17   12.40
  -2   5   7  355.96   12.20
  -2   5   7  360.26   12.30
  -1  -5   7   20.00    2.40
  -1  -5   7   20.90    1.10
   1  -5  -7   19.70    1.90
   1  -5  -7   17.70    2.30
  -1   5   7   18.50    2.20
   1   5  -7   20.60    2.50
   1   5  -7   21.10    1.10
  -1   5   7   19.40    2.10
   0  -5   7  723.43   23.90
   0  -5  -7  737.83   23.70
   0  -5  -7  733.43   23.60
   0   5  -7  743.23   23.90
   0   5   7  749.13   23.60
   0   5   7  733.73   23.70
  -1  -5  -7   50.79    3.00
   1  -5   7   38.70    2.90
  -1  -5  -7   45.30    3.00
  -1   5  -7   49.60    3.20
   1   5   7   46.20    2.90
   1   5   7   46.80    3.00
   2  -5   7  237.28    7.80
   2  -5   7  235.68    9.00
   2  -5   7  244.48    7.80
  -2  -5  -7  232.58    8.90
  -2   5  -7  237.18    9.00
   2   5   7  238.18    8.80
   2   5   7  233.28    9.00
   3  -5   7   26.40    1.90
   3  -5   7   24.60    2.30
  -3  -5  -7   26.40    2.70
  -3  -5  -7   23.90    2.80
  -3   5  -7   24.70    2.70
   3   5   7   24.00    2.80
   3   5   7   23.90    2.20
   4  -5   7  497.45   17.10
  -4  -5  -7  500.25   17.10
   4  -5   7  526.75   16.90
  -4   5  -7  511.35   16.60
   4   5   7  490.85   16.90
  -4   5  -7  528.85   17.20
   4   5   7  524.05   17.90
   5  -5   7  132.29    6.00
  -5  -5  -7  138.09    5.80
   5  -5   7  129.19    5.80
  -5  -5  -7  135.79    5.90
  -5   5  -7  134.19    5.80
  -5   5  -7  132.99    5.70
   5   5   7  130.79    6.70
  -6  -5  -7   74.79    4.20
   6  -5   7   74.29    4.60
  -6  -5  -7   72.29    3.80
   6  -5   7   75.19    4.00
  -6   5  -7   71.19    4.10
   6   5   7   77.49    5.20
  -6   5  -7   75.49    3.90
   7  -5   7  210.68    8.20
  -7  -5  -7  214.88    8.20
   7  -5   7  230.48    9.70
  -7  -5  -7  226.08    8.50
   7   5   7  225.18   10.20
  -7   5  -7  214.38    8.10
   8  -5   7  204.08    7.60
  -8  -5  -7  207.18    7.70
  -8  -5  -7  215.68    8.00
   8  -5   7  204.28    9.50
   8   5   7  206.28   10.20
  -8   5  -7  208.58    7.50
   9  -5   7  148.19    8.10
  -9  -5  -7  132.39    5.30
  -9  -5  -7  140.69    5.60
   9   5   7  154.28    8.70
  10  -5   7    4.30    2.60
  10   5   7    4.50    2.70
  11  -5   7   44.50    5.80
  11   5   7   37.10    5.40
  12  -6  -7   11.40    4.00
  12   6  -7    7.00    3.80
  11  -6  -7   27.40    4.80
  11   6  -7   32.20    5.20
  10  -6  -7   25.10    2.40
  10  -6  -7   27.70    4.50
 -10  -6   7   28.80    2.80
  10  -6  -7   27.20    2.40
  10   6  -7   37.10    5.30
  10   6  -7   32.70    2.80
   9  -6  -7   -1.80    1.90
   9  -6  -7    0.20    1.10
  -9  -6   7    1.00    1.60
   9  -6  -7    1.90    1.30
   9   6  -7    2.40    1.60
   9   6  -7   -0.30    2.30
   8  -6  -7   32.00    2.80
   8  -6  -7   30.90    4.20
   8  -6  -7   27.90    2.70
   8   6  -7   32.40    3.20
   8   6  -7   35.00    4.40
   7  -6  -7    3.10    2.30
   7  -6  -7    3.10    1.50
  -7  -6   7    1.90    1.70
   7  -6  -7    4.30    1.40
   7   6  -7    4.70    2.20
   7   6  -7    5.40    1.70
  -6  -6   7  370.76   13.20
   6  -6  -7  360.56   13.60
   6  -6  -7  368.36   12.90
   6  -6  -7  348.57   13.80
   6   6  -7  365.46   13.00
   6   6  -7  361.66   13.60
  -5  -6   7   66.39    4.00
   5  -6  -7   72.79    4.50
  -5  -6   7   66.69    4.50
   5  -6  -7   73.89    4.60
   5  -6  -7   73.59    4.10
   5   6  -7   72.49    4.20
   5   6  -7   72.99    4.30
   4  -6  -7  979.60   31.30
  -4  -6   7  969.10   31.00
   4  -6  -7  984.00   31.60
   4   6  -7  997.70   31.60
  -4   6   7  973.20   31.90
   4   6  -7  995.10   31.10
  -4   6   7 1003.70   31.90
   3  -6  -7  242.48    8.90
  -3  -6   7  229.38    8.10
  -3   6   7  227.28    9.00
  -3   6   7  225.18    9.20
   3   6  -7  212.78    8.80
   3   6  -7  226.28    8.20
   2  -6  -7  321.27   11.70
   2  -6  -7  324.67   11.50
  -2  -6   7  325.17   10.50
   2   6  -7  332.17   11.90
  -2   6   7  327.17   12.10
  -2   6   7  309.77   11.60
   1  -6  -7  599.74   19.90
   1  -6  -7  603.94   20.30
  -1  -6   7  606.74   18.30
  -1  -6   7  589.14   20.70
  -1   6   7  576.04   20.10
   1   6  -7  608.44   20.10
   1   6  -7  616.84   18.20
  -1   6   7  586.94   19.70
   0  -6   7  234.68    9.50
   0  -6  -7  244.18    9.30
   0   6   7  248.18    9.20
   0   6  -7  246.78    9.40
   0   6   7  251.87    9.80
  -1  -6  -7 1031.40   32.90
   1  -6   7 1028.30   33.30
  -1  -6  -7 1023.30   33.00
   1   6   7 1035.00   33.60
  -1   6  -7 1071.19   33.20
   1   6   7 1052.69   32.90
  -2  -6  -7  427.66   14.90
  -2  -6  -7  426.16   15.10
   2  -6   7  445.86   13.40
   2  -6   7  403.86   15.30
   2  -6   7  438.16   13.50
  -2   6  -7  433.46   15.00
   2   6   7  427.26   15.00
   3  -6   7  470.25   14.90
   3  -6   7  462.85   14.80
   3  -6   7  438.36   16.50
  -3  -6  -7  451.25   15.70
  -3  -6  -7  449.86   16.80
  -3   6  -7  468.85   15.90
   3   6   7  472.25   16.20
  -4  -6  -7   18.60    2.60
   4  -6   7   19.70    2.10
   4  -6   7   21.80    2.90
   4  -6   7   25.30    2.60
  -4  -6  -7   23.10    2.90
   4   6   7   23.30    3.10
  -4   6  -7   24.40    2.80
  -5  -6  -7  330.97   12.70
   5  -6   7  329.97   12.00
  -5  -6  -7  335.67   12.30
   5  -6   7  367.46   12.40
   5  -6   7  337.07   12.30
  -5   6  -7  350.96   12.20
   5   6   7  318.57   13.00
  -6  -6  -7  208.98    8.30
   6  -6   7  187.68    7.90
   6  -6   7  195.58    8.40
  -6  -6  -7  197.68    9.00
   6   6   7  219.68    9.50
  -6   6  -7  202.18    7.90
   7  -6   7  378.06   13.50
   7  -6   7  400.96   14.80
  -7  -6  -7  376.56   15.80
  -7  -6  -7  412.86   13.90
  -7   6  -7  396.36   13.40
   7   6   7  364.66   15.30
  -8  -6  -7  180.38    7.40
   8  -6   7  159.98    6.90
   8  -6   7  177.88    8.70
  -8  -6  -7  171.28    7.00
  -8   6  -7  186.08    6.90
   8   6   7  195.48    9.60
   9  -6   7  111.09    6.80
  -9  -6  -7  121.09    5.10
  -9  -6  -7   98.39    4.70
   9  -6   7   98.69    4.40
   9   6   7  112.09    8.20
  10  -6   7   81.29    6.30
  10   6   7   74.69    6.60
  11  -6   7   14.80    3.80
  11   6   7   16.50    4.40
  11  -7  -7   53.29    6.40
 -11  -7   7   40.80    3.10
  11   7  -7   36.50    5.50
  10  -7  -7   -4.10    4.10
  10  -7  -7   -0.10    1.30
  10  -7  -7    0.90    1.30
  10   7  -7   -2.80    2.20
  10   7  -7   -0.20    1.60
  -9  -7   7  133.29    6.70
   9  -7  -7  151.18    6.50
   9  -7  -7  137.39    8.40
   9   7  -7  143.99    6.50
   9   7  -7  152.78    8.50
  -8  -7   7   24.50    3.10
   8  -7  -7   40.60    4.80
   8  -7  -7   33.00    3.10
   8  -7  -7   25.90    2.90
   8   7  -7   32.00    4.50
   8   7  -7   30.00    3.30
   7  -7  -7   85.19    4.70
  -7  -7   7   89.39    5.20
   7  -7  -7   99.09    6.20
   7  -7  -7   92.79    5.00
   7   7  -7   95.89    5.20
   7   7  -7  105.79    6.00
   6  -7  -7   91.59    5.60
   6  -7  -7   88.59    4.90
   6  -7  -7   81.79    4.60
  -6  -7   7   88.79    5.00
   6   7  -7   85.19    4.90
   6   7  -7   89.09    5.20
   5  -7  -7  141.69    6.40
  -5  -7   7  139.99    6.50
   5  -7  -7  136.09    6.20
  -5  -7   7  135.19    6.20
   5   7  -7  142.69    6.50
   5   7  -7  135.99    6.40
  -5   7   7  144.49    7.10
   4  -7  -7   65.49    3.90
  -4  -7   7   60.69    4.00
  -4  -7   7   65.89    3.60
   4  -7  -7   61.49    4.00
  -4   7   7   61.99    4.30
   4   7  -7   63.39    3.70
   4   7  -7   60.79    4.10
   3  -7  -7    7.10    1.80
  -3  -7   7    9.00    1.50
   3  -7  -7    5.20    1.50
   3  -7  -7    7.00    1.70
  -3  -7   7    9.00    1.90
  -3   7   7    5.80    1.80
   3   7  -7   10.60    2.10
   3   7  -7    9.90    1.60
  -2  -7   7  784.02   23.90
   2  -7  -7  793.42   25.20
  -2  -7   7  759.52   25.40
   2  -7  -7  760.72   25.00
  -2   7   7  742.33   25.00
   2   7  -7  763.72   25.30
  -2   7   7  772.82   25.10
   2   7  -7  784.42   23.90
  -1  -7   7   30.10    2.90
   1  -7  -7   37.40    2.80
   1  -7  -7   33.30    3.00
  -1  -7   7   35.00    1.80
  -1   7   7   34.60    2.80
   1   7  -7   38.00    1.70
  -1   7   7   33.10    2.80
   1   7  -7   29.50    2.90
   0  -7   7 1010.70   33.00
   0  -7  -7  986.00   32.60
   0  -7  -7 1029.90   32.90
   0  -7   7 1066.29   30.90
   0   7  -7 1086.69   30.90
   0   7  -7 1031.80   33.00
   0   7   7 1055.89   32.70
   0   7   7  959.70   32.60
  -1  -7  -7   35.90    2.90
  -1  -7  -7   38.90    3.10
   1  -7   7   34.90    1.50
   1  -7   7   38.90    3.00
   1  -7   7   38.20    1.60
  -1  -7  -7   38.70    2.90
  -1   7  -7   36.90    3.10
   1   7   7   33.60    2.90
   2  -7   7  794.92   23.70
  -2  -7  -7  764.42   25.20
   2  -7   7  748.13   25.30
  -2  -7  -7  779.52   25.30
   2  -7   7  778.62   23.90
  -2  -7  -7  754.62   25.50
   2   7   7  755.32   25.30
  -2   7  -7  803.62   25.40
   3  -7   7   21.50    1.70
  -3  -7  -7   25.00    2.80
   3  -7   7   21.50    1.90
   3  -7   7   26.90    3.00
  -3  -7  -7   28.50    3.20
   3   7   7   20.20    2.70
  -3   7  -7   26.20    2.90
  -4  -7  -7  301.67   11.50
  -4  -7  -7  305.37   11.40
   4  -7   7  300.37   11.50
   4  -7   7  314.57   10.70
   4  -7   7  315.77   10.80
  -4   7  -7  313.67   11.40
   4   7   7  292.77   11.90
   5  -7   7   58.19    3.80
  -5  -7  -7   56.99    4.10
   5  -7   7   61.29    3.80
  -5  -7  -7   61.69    3.80
   5  -7   7   55.09    3.40
  -5   7  -7   61.69    3.90
   5   7   7   66.09    4.70
   6  -7   7   42.80    3.20
  -6  -7  -7   37.20    3.10
  -6  -7  -7   44.20    3.60
   6  -7   7   29.20    2.80
   6  -7   7   35.40    3.40
  -6   7  -7   43.90    3.20
   6   7   7   44.40    4.20
   7  -7   7   86.89    5.30
  -7  -7  -7   88.49    5.00
   7  -7   7   71.99    4.40
  -7  -7  -7   82.79    4.50
  -7   7  -7   84.49    4.40
   7   7   7   77.99    5.90
  -8  -7  -7   71.29    4.40
   8  -7   7   63.69    5.00
   8  -7   7   52.19    4.40
  -8  -7  -7   60.19    3.90
   8   7   7   73.89    5.90
  -8   7  -7   66.79    3.70
  -9  -7  -7   55.69    4.20
   9  -7   7   49.40    3.30
  -9  -7  -7   66.69    4.10
   9  -7   7   69.89    5.50
   9   7   7   62.69    5.80
 -10  -7  -7    4.90    1.60
  10  -7   7    6.40    2.80
  10   7   7    7.70    3.10
 -11  -8   7    6.10    2.00
  11  -8  -7    4.20    1.60
  11  -8  -7    4.50    3.20
  11   8  -7    7.00    3.30
 -10  -8   7   29.00    3.60
  10  -8  -7   48.30    3.60
  10  -8  -7   46.70    6.40
  10   8  -7   43.20    3.70
  10   8  -7   44.60    5.60
   9  -8  -7    8.60    2.00
   9  -8  -7   22.60    4.60
   9  -8  -7   17.50    2.60
   9   8  -7   18.10    2.70
   9   8  -7   18.50    3.80
   8  -8  -7   52.69    4.00
   8  -8  -7   58.89    5.40
   8   8  -7   58.89    5.10
   8   8  -7   61.69    4.20
   7  -8  -7    2.30    2.30
   7  -8  -7    3.20    1.80
   7  -8  -7    1.90    1.60
   7   8  -7    3.40    1.70
   7   8  -7    3.80    2.00
   6  -8  -7  123.99    6.80
   6  -8  -7  131.39    6.30
   6  -8  -7  126.49    6.90
   6   8  -7  129.29    6.50
   6   8  -7  129.89    6.60
   5  -8  -7   65.29    4.80
   5  -8  -7   74.29    4.60
  -5  -8   7   70.99    4.30
   5   8  -7   75.49    4.50
  -5   8   7   70.79    4.90
   5   8  -7   74.89    4.70
   4  -8  -7   41.20    3.30
  -4  -8   7   35.70    2.70
   4  -8  -7   35.50    3.10
   4   8  -7   34.10    3.30
   4   8  -7   34.40    2.80
  -3  -8   7  128.69    5.20
   3  -8  -7  116.59    5.90
   3  -8  -7  122.39    6.10
   3   8  -7  119.39    5.10
   3   8  -7  126.89    6.20
  -3   8   7  112.99    5.90
   2  -8  -7   90.49    5.10
  -2  -8   7   99.29    5.70
  -2  -8   7   99.09    4.10
   2  -8  -7   95.39    5.10
  -2   8   7   87.59    5.00
   2   8  -7  100.09    5.40
   2   8  -7   99.59    4.00
   1  -8  -7  387.86   13.90
  -1  -8   7  382.66   14.00
   1  -8  -7  373.06   13.70
   1  -8  -7  354.06   13.30
   1   8  -7  390.06   13.90
  -1   8   7  375.46   13.50
   1   8  -7  385.76   12.00
   0  -8  -7   87.39    4.90
   0  -8   7   89.99    5.10
   0  -8  -7   91.49    5.10
   0  -8   7   92.49    3.40
   0  -8  -7   89.99    4.80
   0   8  -7   94.09    3.40
   0   8  -7   95.19    5.10
   0   8   7   88.29    4.80
   1  -8   7  534.05   16.20
   1  -8   7  517.35   18.40
  -1  -8  -7  520.95   18.20
  -1  -8  -7  544.25   19.10
   1  -8   7  534.05   16.30
   1   8   7  524.05   18.10
  -1   8  -7  520.55   18.30
  -2  -8  -7   83.79    5.00
   2  -8   7  102.89    4.30
   2  -8   7   87.79    3.60
   2  -8   7   87.39    5.00
  -2   8  -7   97.19    5.20
   2   8   7   86.79    5.00
   3  -8   7  178.38    8.00
  -3  -8  -7  184.48    7.90
   3  -8   7  184.38    6.50
   3  -8   7  181.68    6.70
   3   8   7  168.78    8.00
  -3   8  -7  191.88    8.00
   4  -8   7   -0.90    1.20
  -4  -8  -7   -1.70    1.50
   4  -8   7    1.20    1.20
   4  -8   7    0.30    1.00
   4   8   7    2.00    1.80
  -4   8  -7    1.50    1.50
  -5  -8  -7  162.88    7.40
   5  -8   7  158.38    6.60
   5  -8   7  164.48    6.90
   5  -8   7  147.19    7.80
  -5   8  -7  162.38    7.20
   5   8   7  161.98    8.00
  -6  -8  -7   56.39    4.20
   6  -8   7   50.59    3.80
   6  -8   7   43.20    3.30
   6  -8   7   41.60    3.50
  -6   8  -7   56.09    3.80
   6   8   7   52.89    4.70
  -7  -8  -7   12.90    2.50
   7  -8   7    6.80    1.90
   7  -8   7   11.60    2.50
   7   8   7   11.60    3.20
  -7   8  -7   10.60    2.10
   8  -8   7   54.59    4.60
  -8  -8  -7   56.49    4.20
   8  -8   7   34.90    3.30
  -8   8  -7   51.49    3.50
   8   8   7   46.80    5.50
   9  -8   7   15.50    3.30
  -9  -8  -7   12.80    2.50
  -9  -8  -7   12.30    2.30
   9   8   7   13.00    3.60
 -10  -8  -7    5.40    1.90
  10  -8   7   12.50    3.30
  10  -8   7    7.90    1.50
  10   8   7    8.40    3.30
  11  -9  -7    4.10    1.80
  11  -9  -7    4.60    3.40
 -11  -9   7    3.40    2.10
  11   9  -7    8.20    3.70
  10  -9  -7   13.10    2.50
  10  -9  -7   18.20    4.20
   9  -9  -7   12.30    2.60
   9  -9  -7   10.00    3.40
   9   9  -7   13.20    2.90
   9   9  -7   13.60    3.30
   8  -9  -7   -0.60    1.90
   8  -9  -7   -1.20    2.20
   8   9  -7   -0.90    1.80
   8   9  -7    0.90    2.20
   7  -9  -7   98.89    6.40
   7  -9  -7   91.49    6.10
   7   9  -7   90.89    5.90
   7   9  -7   95.09    5.60
   6  -9  -7    5.00    2.30
   6  -9  -7    4.30    2.30
   6   9  -7    3.90    2.20
   5  -9  -7   86.19    5.30
  -5  -9   7   91.89    5.00
   5   9  -7   89.99    5.00
  -5   9   7   90.29    5.80
  -4  -9   7   17.50    2.40
   4  -9  -7   18.70    2.80
   4   9  -7   23.10    2.60
  -4   9   7   18.30    2.90
   4   9  -7   25.90    5.00
  -3  -9   7   27.30    2.30
   3  -9  -7   30.70    3.30
   3   9  -7   28.10    2.30
   3   9  -7   30.90    3.50
   2  -9  -7   22.10    3.00
  -2  -9   7   20.90    1.90
  -2   9   7   19.80    2.70
   2   9  -7   24.00    1.90
   2   9  -7   19.70    2.90
   1  -9  -7   23.00    3.00
  -1  -9   7   20.80    1.70
   1   9  -7   22.60    1.70
  -1   9   7   20.40    2.70
   1   9  -7   21.70    3.00
   0  -9  -7  141.59    6.80
   0   9   7  131.89    6.50
   0   9  -7  140.49    6.80
   0   9  -7  146.69    5.00
  -1  -9  -7  228.28    9.70
   1  -9   7  240.98    7.80
   1   9   7  239.68    9.70
  -1   9  -7  229.98    9.70
  -2  -9  -7  109.19    6.00
   2  -9   7  113.59    4.40
   2  -9   7  110.49    4.20
   2   9   7  109.39    5.80
  -2   9  -7  111.59    5.90
  -3  -9  -7    5.00    2.30
   3  -9   7    8.10    1.50
   3  -9   7    7.10    1.20
   3   9   7    6.70    2.10
  -3   9  -7    9.80    2.30
   4  -9   7  103.09    4.80
   4  -9   7   94.79    4.40
  -4   9  -7   99.79    5.60
   4   9   7  104.99    6.00
   5  -9   7    0.70    1.40
  -5   9  -7   -1.00    1.70
   5   9   7    2.20    2.10
   6  -9   7   30.80    3.40
  -6  -9  -7   30.10    4.20
   6  -9   7   21.00    3.00
   6   9   7   18.50    3.40
  -6   9  -7   25.90    3.20
  -7  -9  -7    1.20    2.30
   7  -9   7    2.00    1.70
  -7   9  -7   -0.40    1.50
   7   9   7   -2.70    2.10
   8  -9   7   80.29    5.60
  -8   9  -7   79.69    4.70
   9  -9   7   -1.20    1.80
  -9  -9  -7    2.00    2.00
   9   9   7   -0.50    2.50
 -10  -9  -7    8.80    2.30
  10  -9   7    7.30    1.70
  10  -9   7   11.10    3.20
  10   9   7    9.90    3.60
  11 -10  -7    0.70    1.70
  10 -10  -7   16.20    3.10
  10 -10  -7   12.80    4.30
  10  10  -7   23.80    4.80
  10  10  -7   18.30    3.20
   9 -10  -7   -1.60    1.70
   9 -10  -7    5.10    4.20
   9  10  -7    0.10    2.10
   9  10  -7    0.60    1.90
   8 -10  -7   44.20    5.40
   8 -10  -7   49.60    4.30
   8  10  -7   43.50    4.40
   8  10  -7   48.10    5.50
   7 -10  -7    5.20    2.90
   7 -10  -7    6.20    2.30
   7  10  -7    3.90    2.30
   7  10  -7    1.60    2.00
   6 -10  -7   50.49    4.50
   6 -10  -7   48.10    4.70
   6  10  -7   64.29    4.80
   6  10  -7   56.39    4.50
   5 -10  -7  164.88    7.80
  -5  10   7  150.68    8.10
   5  10  -7  160.38    7.90
   5  10  -7  167.48    7.40
  -4 -10   7  155.78    6.80
   4 -10  -7  154.78    7.50
  -4  10   7  147.19    7.60
   4  10  -7  163.38    7.80
   4  10  -7  151.18    6.70
  -3 -10   7   50.39    3.30
   3 -10  -7   55.39    4.40
   3  10  -7   55.49    4.40
   3  10  -7   55.59    3.30
  -3  10   7   53.59    4.20
   2 -10  -7   53.99    4.30
  -2 -10   7   47.90    2.90
   2  10  -7   47.50    4.20
   2  10  -7   49.50    2.80
  -2  10   7   48.00    3.90
   1 -10  -7   58.29    4.50
  -1 -10   7   66.69    3.20
   1  10  -7   66.49    3.10
  -1  10   7   65.69    4.40
   1  10  -7   69.19    4.70
   0 -10   7   36.20    2.10
   0 -10  -7   36.10    3.90
   0  10  -7   35.90    2.20
   0  10   7   38.20    3.50
   0  10  -7   32.20    3.70
   1 -10   7   55.39    2.70
  -1 -10  -7   62.79    4.60
   1  10   7   56.39    4.20
  -1  10  -7   57.99    4.40
   2 -10   7  101.59    4.20
  -2 -10  -7  109.99    6.10
   2 -10   7  108.99    4.40
   2  10   7  102.59    5.80
  -2  10  -7  101.49    5.80
  -3 -10  -7   27.40    3.60
   3 -10   7   32.20    2.50
   3 -10   7   28.00    2.10
   3  10   7   36.70    4.40
  -3  10  -7   37.90    4.10
   4 -10   7   -0.90    1.20
  -4 -10  -7    0.40    2.00
   4 -10   7    0.30    1.00
  -4  10  -7   -1.10    1.60
   4  10   7    1.50    1.90
   5 -10   7    6.60    1.70
   5 -10   7    9.50    2.10
  -5 -10  -7    4.60    2.40
   5  10   7    6.50    2.50
  -5  10  -7    8.10    2.40
   6 -10   7   61.79    4.40
  -6 -10  -7   54.69    4.80
   6  10   7   58.89    5.30
  -6  10  -7   65.99    4.50
  -7 -10  -7    4.90    2.30
   7 -10   7    8.40    2.40
  -7  10  -7    4.60    2.00
   7  10   7    5.20    2.60
   8 -10   7   19.80    3.60
  -8 -10  -7   11.90    2.90
   8  10   7   19.40    4.50
  -8  10  -7   14.20    2.60
  -9 -10  -7    1.70    2.20
   9 -10   7   -1.30    1.80
   9  10   7    0.50    2.60
  10 -11  -7    4.50    3.60
  10 -11  -7    5.40    2.30
  10  11  -7    8.30    3.50
  10  11  -7    2.20    2.40
   9 -11  -7    5.10    3.50
   9 -11  -7    5.70    2.30
   9  11  -7    4.20    2.90
   9  11  -7    5.40    2.60
   8 -11  -7   15.90    3.10
   8 -11  -7   10.20    3.80
   8  11  -7    8.70    3.00
   8  11  -7    8.00    2.70
   7 -11  -7    1.70    2.40
   7 -11  -7    9.00    2.60
   7  11  -7    9.00    3.00
   7  11  -7    6.70    2.60
   6 -11  -7   33.70    4.40
   6 -11  -7   37.30    4.30
   6  11  -7   41.00    4.60
   6  11  -7   36.20    4.10
   5 -11  -7   78.59    5.40
   5  11  -7   76.89    5.50
   5  11  -7   80.99    5.00
  -5  11   7   66.69    5.50
   4 -11  -7  137.09    7.20
  -4 -11   7  118.09    6.10
   4  11  -7  135.99    7.20
   4  11  -7  131.19    6.10
  -4  11   7  130.19    7.20
  -3 -11   7    7.10    1.90
   3 -11  -7    4.10    2.20
   3  11  -7    5.70    1.70
  -3  11   7    8.00    2.30
   3  11  -7   10.70    2.70
   2 -11  -7    3.50    2.10
  -2 -11   7    0.90    1.20
   2  11  -7    0.90    1.20
  -2  11   7    2.10    2.00
   2  11  -7    1.30    1.90
  -1 -11   7    9.80    1.60
   1 -11  -7   11.60    2.70
   1  11  -7   10.00    2.60
   1  11  -7   10.20    1.60
  -1  11   7    8.50    2.20
   0 -11   7    0.70    0.90
   0 -11  -7    1.50    1.90
   0  11  -7    2.00    1.00
   0  11   7    1.50    1.80
   0  11  -7    0.30    1.90
   1 -11   7    9.70    1.30
  -1 -11  -7   11.60    2.80
   1  11   7   10.50    2.70
  -1  11  -7    7.80    2.40
  -2 -11  -7   46.60    4.50
   2 -11   7   50.99    2.90
   2 -11   7   48.00    2.70
  -2  11  -7   53.99    4.40
   2  11   7   49.80    4.30
  -3 -11  -7   13.00    3.00
   3 -11   7   19.60    2.30
   3 -11   7   19.50    2.00
   3  11   7   20.80    3.50
  -3  11  -7   20.30    3.30
  -4 -11  -7   -0.80    2.00
   4 -11   7   -0.60    0.90
   4 -11   7    1.40    1.30
   4  11   7    3.30    2.10
  -4  11  -7    0.50    1.80
   5 -11   7    2.00    1.20
  -5 -11  -7   -1.70    2.10
   5 -11   7    1.10    1.60
   5  11   7    0.00    2.40
  -5  11  -7    0.10    1.80
   6 -11   7   25.40    3.40
  -6 -11  -7   22.60    3.80
  -6  11  -7   24.60    3.50
   6  11   7   28.90    4.40
   7 -11   7    0.30    1.80
  -7 -11  -7   -1.60    2.10
  -7  11  -7    0.60    1.80
  -8 -11  -7   34.30    4.50
   8 -11   7   29.40    4.00
   8  11   7   27.60    4.60
  -8  11  -7   30.90    3.60
  -9 -11  -7    0.40    2.30
   9 -11   7    2.90    2.40
   9  11   7   -0.30    2.90
  10 -12  -7   -3.30    2.70
  10 -12  -7    0.90    2.20
  10  12  -7   -1.20    2.80
   9 -12  -7    3.10    2.40
   9 -12  -7    0.30    2.70
   9  12  -7   -0.30    2.70
   9  12  -7    1.80    2.60
   8 -12  -7    7.70    2.70
   8  12  -7    6.70    2.80
   8  12  -7    8.70    3.00
   7 -12  -7    2.40    2.90
   7 -12  -7    0.10    2.00
   7  12  -7    0.90    2.20
   7  12  -7   -1.50    2.30
   6 -12  -7    3.00    2.40
   6 -12  -7    3.90    2.40
   6  12  -7    5.20    2.80
   6  12  -7    3.90    2.30
   5 -12  -7   -1.70    1.80
  -5  12   7   -0.10    2.00
   5  12  -7    1.90    2.30
  -4 -12   7   35.10    3.30
   4 -12  -7   36.60    4.40
   4  12  -7   39.50    4.60
   4  12  -7   39.60    3.40
  -4  12   7   34.60    4.30
   3 -12  -7    2.40    2.10
  -3 -12   7    3.00    2.00
  -3  12   7    0.50    2.30
   3  12  -7    3.60    1.60
   3  12  -7    1.70    2.00
   2 -12  -7    5.20    2.40
  -2 -12   7    8.70    1.80
   2  12  -7    8.80    1.70
   2  12  -7    7.00    2.60
  -2  12   7   13.30    2.90
  -1 -12   7   -0.60    1.10
   1 -12  -7   -1.50    1.90
   1  12  -7    1.00    1.20
   1  12  -7    3.60    2.00
  -1  12   7   -1.50    1.50
   0 -12  -7   20.40    3.50
   0 -12   7   20.40    2.10
   0  12  -7   17.60    3.30
   0  12  -7   25.70    2.20
   0  12   7   23.80    3.30
  -1 -12  -7   -0.50    1.90
   1 -12   7    2.00    1.10
  -1  12  -7    0.40    2.00
   1  12   7    0.80    2.00
  -1  12  -7    1.50    1.30
   2 -12   7   69.49    3.50
   2 -12   7   80.79    3.90
  -2 -12  -7   73.89    5.60
  -2  12  -7   74.49    5.40
   2  12   7   75.69    5.30
   3 -12   7    3.50    1.30
  -3 -12  -7    6.90    2.90
   3 -12   7    4.60    1.50
   3  12   7    4.50    2.40
  -3  12  -7    6.50    2.40
   4 -12   7   17.10    2.10
  -4 -12  -7   22.30    3.80
   4 -12   7   22.70    2.70
  -4  12  -7   20.00    3.30
   4  12   7   22.10    3.90
   5 -12   7   16.00    2.60
  -5 -12  -7   14.30    3.40
   5 -12   7    9.40    1.90
  -5  12  -7    9.60    2.60
   5  12   7   14.80    3.40
   6 -12   7    4.20    2.30
  -6 -12  -7   12.80    3.30
   6  12   7   11.40    3.40
  -6  12  -7    8.10    2.70
  -7 -12  -7    1.30    2.60
   7 -12   7    0.70    1.80
  -7  12  -7   -1.40    1.90
   8 -12   7   16.60    3.30
  -8 -12  -7   19.00    3.90
   8  12   7   14.30    4.00
  -8  12  -7   22.30    3.50
  -9 -12  -7   -0.80    2.60
   9 -13  -7   10.60    4.00
   9 -13  -7    4.30    2.70
   9  13  -7   12.00    3.70
   9  13  -7    6.60    2.80
   8 -13  -7    1.10    2.60
   8 -13  -7    1.10    2.50
   8  13  -7    1.60    2.80
   8  13  -7    1.70    2.60
   7 -13  -7   17.20    4.30
   7 -13  -7   11.90    3.30
   7  13  -7    3.80    2.70
   7  13  -7    9.90    3.00
   6 -13  -7   -2.20    2.00
   6  13  -7   -0.40    2.40
  -6  13   7   -0.50    2.70
   6  13  -7    0.00    2.00
   5 -13  -7    6.70    2.80
   5  13  -7   11.40    3.30
   5  13  -7   19.10    3.00
  -5  13   7   21.10    4.00
   4 -13  -7    4.60    2.60
  -4  13   7   14.20    3.40
   4  13  -7   17.50    3.70
   4  13  -7   14.10    2.40
  -3 -13   7   10.70    2.20
   3 -13  -7   16.60    3.40
   3  13  -7   14.00    2.30
  -3  13   7   13.50    3.40
   3  13  -7   16.40    3.60
  -2 -13   7    7.80    1.90
   2 -13  -7   10.90    3.20
   2  13  -7    5.70    2.60
  -2  13   7    8.30    2.70
   2  13  -7   11.90    2.00
  -1 -13   7   46.30    3.10
   1 -13  -7   43.00    5.10
   1  13  -7   45.70    3.10
   1  13  -7   49.30    4.80
  -1  13   7   44.20    4.40
   0 -13   7    0.70    1.20
   0 -13  -7    0.00    2.30
   0  13   7    0.30    1.90
   0  13  -7    1.90    2.20
   0  13  -7    0.70    1.20
  -1 -13  -7    2.30    2.30
   1 -13   7    1.20    1.10
  -1  13  -7    0.90    1.30
  -1  13  -7    0.10    1.90
   1  13   7   -0.50    1.80
   2 -13   7   45.10    3.00
   2 -13   7   59.99    3.50
  -2 -13  -7   57.39    5.30
   2  13   7   50.49    4.70
  -2  13  -7   50.79    4.80
  -3 -13  -7   66.49    5.90
   3 -13   7   67.69    3.70
   3 -13   7   60.99    3.90
  -3  13  -7   67.29    5.40
   3  13   7   65.99    5.50
   4 -13   7   17.80    2.50
  -4 -13  -7   12.40    3.50
   4  13   7   18.30    3.60
  -4  13  -7   17.50    3.40
  -5 -13  -7    9.00    3.30
   5 -13   7    3.70    1.60
   5 -13   7    8.00    2.10
  -5  13  -7    4.30    2.50
   5  13   7    3.40    2.80
  -6 -13  -7    7.10    3.10
   6 -13   7    6.20    2.80
  -6  13  -7    6.30    2.50
   6  13   7   11.50    3.60
  -7 -13  -7   10.70    3.60
   7 -13   7   15.70    3.20
   7  13   7   16.50    4.20
  -7  13  -7   15.00    3.10
  -8 -13  -7   22.10    4.10
   8 -13   7   11.90    2.90
   8  13   7   17.10    4.20
  -8  13  -7   14.00    3.10
   8 -14  -7   15.80    3.90
   8 -14  -7   14.60    3.50
   8  14  -7   25.80    4.20
   8  14  -7   28.10    4.20
   7 -14  -7    0.80    2.60
   7 -14  -7   -1.50    2.70
   7  14  -7   -3.20    1.90
   7  14  -7   -1.00    2.50
   6 -14  -7   24.00    4.10
  -6  14   7   27.70    4.70
   6  14  -7   17.00    4.00
   6  14  -7   21.30    3.40
   5 -14  -7   33.50    4.60
   5  14  -7   39.10    5.20
   5  14  -7   37.70    4.10
  -5  14   7   37.70    5.10
   4 -14  -7   19.00    3.90
  -4  14   7   26.30    4.30
   4  14  -7   23.90    4.20
  -3 -14   7   17.40    2.80
   3 -14  -7   23.50    4.10
  -3  14   7   34.00    4.70
   3  14  -7   23.00    3.90
   3  14  -7   24.70    3.00
  -2 -14   7    4.40    1.80
   2 -14  -7   11.90    3.30
  -2  14   7   12.30    3.20
   2  14  -7   10.20    3.10
   2  14  -7    8.50    2.00
  -1 -14   7   68.29    4.10
   1 -14  -7   75.39    6.20
   1  14  -7   78.89    6.10
  -1  14   7   82.09    5.80
   1  14  -7   83.29    4.30
   0 -14   7   -0.70    1.20
   0 -14  -7   -0.10    2.50
   0  14   7    0.20    2.00
   0  14  -7   -0.90    1.30
   0  14  -7    1.90    2.50
   1 -14   7   36.30    2.80
  -1 -14  -7   39.60    5.00
  -1  14  -7   37.50    4.70
  -1  14  -7   47.30    3.20
   1  14   7   51.19    4.80
   2 -14   7   15.90    2.20
  -2 -14  -7   19.20    3.70
   2 -14   7   11.90    1.90
   2  14   7   20.30    3.60
  -2  14  -7   16.20    3.50
   3 -14   7   32.70    3.10
  -3 -14  -7   31.80    4.90
   3 -14   7   27.20    2.60
   3  14   7   33.30    4.60
  -3  14  -7   30.10    4.40
   4 -14   7   25.60    2.90
  -4 -14  -7   39.50    5.20
   4 -14   7   32.70    3.30
  -4  14  -7   41.90    4.90
   4  14   7   31.90    4.50
  -5 -14  -7   26.10    4.70
   5 -14   7   25.30    3.10
   5  14   7   23.70    5.60
  -5  14  -7   25.00    3.90
  -6 -14  -7   28.30    4.70
   6 -14   7   25.10    3.40
   6  14   7   29.80    4.90
  -6  14  -7   32.70    4.40
  -7 -14  -7   -2.90    2.50
   7 -14   7    2.00    2.20
  -7  14  -7   -1.20    2.20
   7  14   7   -0.10    2.70
   8 -15  -7    4.90    3.10
   8  15  -7    1.20    3.00
   7 -15  -7   -0.20    2.60
   7 -15  -7   -0.30    3.00
   7  15  -7   -1.20    2.80
   7  15  -7    1.50    2.50
   6 -15  -7    5.20    2.70
   6  15  -7    3.00    4.30
   6  15  -7    1.50    2.50
  -6  15   7    2.20    3.60
   5 -15  -7   21.60    4.20
  -5  15   7   15.00    4.00
   5  15  -7   21.10    3.20
   5  15  -7   18.70    4.20
   4 -15  -7   11.00    3.50
   4  15  -7   14.90    2.70
  -4  15   7   14.80    3.70
   4  15  -7   16.20    4.00
   3 -15  -7   25.00    4.30
  -3  15   7   29.50    4.40
   3  15  -7   24.30    4.30
   3  15  -7   26.90    3.10
   2 -15  -7    6.70    3.20
  -2 -15   7    5.80    2.00
   2  15  -7    9.00    2.20
   2  15  -7    8.70    3.40
  -2  15   7    6.80    2.80
   1 -15  -7    6.60    3.00
  -1 -15   7    4.30    1.90
   1  15  -7    2.20    3.00
  -1  15   7    4.50    2.80
   1  15  -7    3.10    1.80
   0 -15   7   30.30    3.00
   0 -15  -7   34.10    4.80
   0  15  -7   28.90    3.00
   0  15   7   38.60    4.80
   0  15  -7   28.30    4.30
   1 -15   7   12.10    2.10
  -1 -15  -7   16.30    3.90
  -1  15  -7   17.50    3.90
  -1  15  -7   18.50    2.40
   1  15   7   12.20    3.20
   2 -15   7    5.40    1.70
  -2 -15  -7    7.90    3.40
   2 -15   7   10.00    2.20
  -2  15  -7    7.90    3.10
   2  15   7    9.20    3.20
   3 -15   7    0.50    1.70
  -3 -15  -7    1.10    2.90
   3  15   7   -0.80    2.30
  -3  15  -7    4.40    2.90
   4 -15   7   22.30    3.40
  -4 -15  -7   32.50    4.90
   4 -15   7   40.70    3.60
  -4  15  -7   40.00    5.00
   4  15   7   35.30    6.30
  -5 -15  -7    2.40    3.50
   5 -15   7    1.30    1.70
  -5  15  -7    1.00    2.40
   5  15   7    0.70    2.70
   6 -15   7   14.10    2.70
  -6  15  -7   18.80    3.80
   6  15   7    7.60    3.40
   7 -16  -7   -1.80    2.60
   7 -16  -7   -4.00    2.90
   7  16  -7    6.20    3.40
   7  16  -7   -2.20    2.40
   6 -16  -7   26.40    4.60
   6  16  -7   13.80    4.10
   6  16  -7   24.10    3.70
   5 -16  -7   28.90    4.70
  -5  16   7   35.90    5.30
   5  16  -7   33.80    4.90
   5  16  -7   34.30    4.10
   4 -16  -7   32.50    4.90
  -4  16   7   40.70    5.40
   4  16  -7   33.40    5.00
   4  16  -7   33.20    3.90
   3 -16  -7   21.50    4.70
  -3  16   7   22.70    4.20
   3  16  -7   28.80    4.70
   3  16  -7   21.70    3.80
   2 -16  -7   28.80    6.00
   2  16  -7   18.70    2.90
  -2  16   7   19.70    3.90
   2  16  -7   22.80    5.10
   1 -16  -7  136.29   12.40
  -1 -16   7  103.89    5.90
  -1  16   7  135.09    7.90
   1  16  -7  148.69   11.10
   1  16  -7  130.49    6.10
   0 -16   7    7.10    2.00
   0 -16  -7    5.20    4.20
   0  16   7    4.30    2.80
   0  16  -7    9.30    2.20
  -1 -16  -7   -3.10    2.50
  -1  16  -7    0.00    5.30
  -1  16  -7    5.50    2.00
   1  16   7    1.70    2.50
   2 -16   7   89.79    5.10
  -2 -16  -7  100.39    7.60
  -2  16  -7   87.49    7.80
   2  16   7   90.29    6.80
  -3 -16  -7   96.49    7.60
   3 -16   7   95.09    5.20
  -3  16  -7   85.69    7.00
   3  16   7   87.29    6.90
   4 -16   7    4.20    1.90
  -4 -16  -7    3.10    3.10
  -4  16  -7    7.80    3.20
   4  16   7   -0.20    2.80
  -5 -16  -7   35.40    5.50
  -5  16  -7   42.20    5.40
   5  16   7   28.50    4.90
  -6 -16  -7   20.00    4.70
   6 -16   7   11.20    2.70
   6  16   7   16.60    4.20
  -6  16  -7   15.90    3.80
   6 -17  -7   19.00    4.00
   5 -17  -7   10.80    3.80
  -5  17   7   22.10    4.80
   5  17  -7   16.70    3.20
   5  17  -7   18.00    4.40
   4 -17  -7    1.40    3.00
   4  17  -7    4.10    2.30
   4  17  -7    3.70    3.30
  -4  17   7    5.80    3.40
   3 -17  -7    2.30    3.20
  -3  17   7    4.70    3.40
   3  17  -7   -0.20    1.70
   3  17  -7    1.70    3.10
   2 -17  -7   22.50    4.80
   2  17  -7   22.60    4.70
   2  17  -7   22.10    3.90
   1 -17  -7    1.10    3.30
   1  17  -7    0.60    3.10
   1  17  -7    1.10    1.70
   0 -17  -7   42.20    5.80
   0  17  -7   43.40    3.70
   0  17  -7   42.70    5.90
  -1 -17  -7    0.80    3.20
  -1  17  -7   -3.40    2.70
   1  17   7   -0.10    2.70
   2 -17   7   66.89    4.50
  -2 -17  -7   56.39    6.50
  -2  17  -7   51.99    6.10
   2  17   7   62.19    6.10
  -3 -17  -7    1.20    3.40
   3 -17   7    1.10    1.90
   3  17   7    1.40    2.60
  -3  17  -7    4.30    3.10
  -4 -17  -7   13.80    4.10
   4 -17   7   17.30    3.00
  -4  17  -7   14.70    4.00
   4  17   7   14.30    3.80
   4 -18  -7   19.80    4.60
  -4  18   7   16.50    4.40
   4  18  -7   14.90    3.00
   4  18  -7   20.30    4.90
   3 -18  -7   -0.90    3.20
  -3  18   7    1.30    3.30
   3  18  -7    5.90    3.50
   3  18  -7    1.60    2.20
   2 -18  -7    1.70    3.40
  -2  18   7    5.30    3.40
   2  18  -7    8.90    3.90
   2  18  -7   12.60    2.70
   1 -18  -7   21.60    5.10
  -1  18   7   20.80    4.40
   1  18  -7   15.70    3.20
   1  18  -7   22.20    4.90
   0 -18  -7    5.60    3.90
   0  18  -7    2.70    1.90
   0  18   7    3.80    3.30
   0  18  -7    7.80    3.80
  -1 -18  -7   37.20    6.00
   1  18   7   44.20    5.60
  -1  18  -7   33.40    5.50
   2 -18   7   -1.20    1.90
  -2 -18  -7   -1.30    3.10
   2  18   7   -2.10    2.60
  -2  18  -7    1.60    3.30
  -3 -18  -7   37.60    6.10
   3 -18   7   25.70    3.30
   3  18   7   32.10    5.30
  -3  18  -7   38.10    5.70
  12   0  -8    2.50    3.30
  11   0  -8   21.60    4.40
  10   0  -8   88.39    6.80
  -9   0   8   -0.30    1.20
   9   0  -8    0.20    1.10
   9   0  -8    5.90    2.50
  -8   0   8   11.80    1.60
   8   0  -8    9.40    2.60
   8   0  -8   10.10    1.60
  -7   0   8  303.17   10.40
   7   0  -8  308.17   10.60
   7   0  -8  291.67   12.00
  -6   0   8  213.68    7.90
   6   0  -8  219.98    9.10
   6   0  -8  216.98    8.10
   5   0  -8   70.19    3.80
   5   0  -8   78.19    4.10
  -5   0   8   70.89    3.70
   5   0  -8   70.89    4.20
   4   0  -8  306.57   10.70
  -4   0   8  300.57   10.40
   4   0  -8  283.57   10.50
   4   0  -8  296.57   10.50
   3   0  -8   89.79    4.30
   3   0  -8   83.69    4.00
   3   0  -8   92.39    4.00
  -3   0   8   91.39    4.20
   2   0  -8  425.06   13.70
   2   0  -8  422.16   14.30
  -2   0   8  421.06   13.80
  -2   0   8  426.86   14.20
   1   0  -8  225.28    7.80
  -1   0   8  228.68    7.90
   1   0  -8  247.28    8.70
  -1   0   8  236.38    8.50
   0   0  -8 1109.99   33.40
   0   0   8 1091.99   33.30
   0   0  -8 1104.69   34.20
   0   0   8 1073.49   34.10
  -1   0  -8    6.20    1.10
   1   0   8    7.20    1.10
   1   0   8    4.40    1.20
  -1   0  -8    5.00    1.40
   2   0   8   99.79    4.20
   2   0   8   94.39    4.30
  -2   0  -8   98.49    4.20
  -2   0  -8   94.09    4.50
  -3   0  -8 1349.47   42.70
   3   0   8 1422.96   42.80
   3   0   8 1389.06   42.60
  -3   0  -8 1373.26   42.70
   4   0   8  522.45   17.70
  -4   0  -8  506.85   17.60
  -4   0  -8  538.55   17.30
   4   0   8  534.35   17.20
   5   0   8  476.35   16.10
  -5   0  -8  462.35   15.20
   5   0   8  446.66   15.00
  -5   0  -8  441.46   15.90
   6   0   8   19.20    2.90
   6   0   8   13.30    1.70
  -6   0  -8   16.60    2.10
   7   0   8  229.78   10.00
   7   0   8  225.68    8.00
  -7   0  -8  231.68    8.20
  -8   0  -8   13.90    1.70
   8   0   8   16.80    3.40
   9   0   8   89.89    6.30
  10   0   8    0.90    2.30
  11   0   8  114.09    7.80
  12  -1  -8   21.90    4.90
  12   1  -8   16.30    4.50
  11  -1  -8   30.70    5.20
  11   1  -8   22.90    5.00
  10  -1  -8   12.60    3.80
  10   1  -8   13.00    3.60
   9  -1  -8  194.28    6.90
   9  -1  -8  201.38    9.90
  -9  -1   8  191.78    6.90
   9   1  -8  189.18    6.90
   9   1  -8  201.48    9.90
   8  -1  -8    2.10    2.30
   8  -1  -8   -0.20    1.10
  -8  -1   8    0.80    1.10
   8   1  -8    3.50    2.10
  -8   1   8    2.50    1.10
   8   1  -8    1.70    1.20
   7  -1  -8   43.90    4.40
  -7  -1   8   38.30    2.70
   7  -1  -8   42.10    2.80
   7   1  -8   43.70    3.90
  -7   1   8   41.40    2.70
   7   1  -8   39.20    2.80
  -6  -1   8    5.10    1.40
  -6  -1   8    2.40    1.30
   6  -1  -8    5.30    1.90
   6  -1  -8    4.90    1.50
   6   1  -8    1.50    1.60
   6   1  -8    1.90    1.30
  -6   1   8    2.90    1.20
   5  -1  -8  730.13   22.90
   5  -1  -8  737.13   23.50
  -5  -1   8  712.63   22.80
   5  -1  -8  684.93   23.30
   5   1  -8  716.03   23.40
  -5   1   8  714.33   22.70
   5   1  -8  683.03   23.90
   5   1  -8  722.53   22.90
   4  -1  -8    9.70    1.70
   4  -1  -8   10.40    1.70
  -4  -1   8    6.90    1.40
   4  -1  -8   11.90    1.80
   4   1  -8    9.50    1.70
   4   1  -8    9.90    1.70
  -4   1   8   10.80    1.70
   4   1  -8    7.30    1.50
   3  -1  -8  245.38    9.10
   3  -1  -8  251.57    8.90
  -3  -1   8  258.27    9.10
   3   1  -8  252.07    8.80
  -3   1   8  255.07    9.10
  -3   1   8  254.77    9.00
   3   1  -8  243.08    8.80
   3   1  -8  245.78    9.20
  -2  -1   8  562.74   18.30
   2  -1  -8  555.34   17.80
   2  -1  -8  542.05   18.30
   2   1  -8  563.44   17.60
  -2   1   8  565.34   18.00
  -2   1   8  562.44   18.20
   2   1  -8  554.64   17.60
   2   1  -8  569.44   18.40
  -1  -1   8  521.15   15.90
  -1  -1   8  505.35   16.70
   1  -1  -8  504.65   16.10
   1  -1  -8  493.65   16.70
  -1   1   8  511.65   16.70
  -1   1   8  511.95   16.20
   1   1  -8  510.55   15.90
   1   1  -8  506.15   16.80
   0  -1   8 1177.48   37.50
   0  -1   8 1213.98   36.50
   0  -1  -8 1217.38   37.60
   0  -1  -8 1191.08   37.00
   0   1  -8 1238.58   36.90
   0   1   8 1212.78   36.90
   0   1  -8 1236.18   37.70
   0   1   8 1187.78   37.50
   1  -1   8  654.33   21.40
   1  -1   8  683.23   21.00
  -1  -1  -8  654.03   21.50
  -1  -1  -8  675.83   21.10
  -1   1  -8  659.33   21.50
   1   1   8  675.23   21.50
   1   1   8  673.93   21.00
  -1   1  -8  668.13   20.70
  -2  -1  -8  778.72   24.60
   2  -1   8  777.62   24.70
   2  -1   8  775.42   24.20
  -2  -1  -8  778.82   24.70
   2   1   8  775.82   24.50
  -2   1  -8  762.92   24.20
  -2   1  -8  784.32   24.80
   2   1   8  772.72   24.60
   3  -1   8  256.87    9.10
  -3  -1  -8  250.67    9.30
   3  -1   8  250.37    9.00
  -3  -1  -8  257.67    9.20
   3   1   8  252.87    9.30
  -3   1  -8  255.07    9.20
  -3   1  -8  244.58    9.00
   3   1   8  251.97    9.10
  -4  -1  -8 1075.79   33.50
   4  -1   8 1086.99   33.70
   4  -1   8 1051.09   33.40
  -4   1  -8 1095.59   33.50
   4   1   8 1063.09   33.30
  -4   1  -8 1032.00   33.70
   4   1   8 1094.29   34.00
   5  -1   8  129.39    5.90
   5  -1   8  127.79    5.20
  -5  -1  -8  119.79    5.30
  -5  -1  -8  124.69    6.00
  -5   1  -8  125.29    5.30
   5   1   8  123.99    6.00
   5   1   8  124.29    5.10
  -5   1  -8  118.69    5.70
   6  -1   8  469.35   16.80
  -6  -1  -8  481.05   15.60
   6  -1   8  461.65   15.40
  -6   1  -8  478.25   15.50
   6   1   8  458.75   15.30
   7  -1   8   77.19    5.00
   7  -1   8   68.19    3.30
  -7  -1  -8   72.79    3.60
  -7   1  -8   73.89    3.50
   7   1   8   70.49    3.30
   7   1   8   70.49    5.00
  -8  -1  -8  206.08    7.10
   8  -1   8  198.78    9.70
   8  -1   8  227.48    7.40
  -8   1  -8  198.48    8.10
   8   1   8  221.88   10.00
   9  -1   8  106.59    7.00
   9   1   8  119.79    7.20
  10  -1   8   -0.20    1.90
  11  -1   8   88.19    7.00
  11   1   8   90.89    7.10
  12  -2  -8   -2.70    2.60
  12   2  -8   -1.90    2.60
  11  -2  -8   29.10    4.90
  11   2  -8   43.10    6.10
  10  -2  -8   10.80    3.10
  10   2  -8   17.00    4.10
  -9  -2   8   51.59    3.00
   9  -2  -8   50.09    2.80
   9  -2  -8   58.79    5.20
   9   2  -8   49.40    2.90
   9   2  -8   56.59    5.30
   8  -2  -8   40.50    4.50
   8  -2  -8   40.00    2.80
  -8  -2   8   46.60    2.90
   8   2  -8   45.70    2.90
   8   2  -8   52.79    4.60
  -8   2   8   42.80    2.70
   7  -2  -8  170.88    6.70
   7  -2  -8  171.78    8.10
  -7  -2   8  165.78    6.60
  -7   2   8  163.68    6.40
   7   2  -8  168.78    8.00
   7   2  -8  163.68    6.60
   6  -2  -8  256.37   10.40
   6  -2  -8  268.97    9.50
  -6  -2   8  250.17   10.00
  -6  -2   8  270.57    9.50
   6   2  -8  259.57   10.30
  -6   2   8  255.67    9.20
   6   2  -8  256.47    9.40
   5  -2  -8   24.90    2.40
   5  -2  -8   22.30    2.70
  -5  -2   8   22.90    2.30
   5  -2  -8   23.20    2.70
   5   2  -8   26.00    2.60
  -5   2   8   22.40    2.10
   5   2  -8   27.30    2.60
  -4  -2   8  487.25   16.20
   4  -2  -8  487.65   16.60
  -4  -2   8  483.35   16.40
   4  -2  -8  502.55   16.40
   4  -2  -8  489.85   16.50
   4   2  -8  511.35   16.50
   4   2  -8  483.85   16.40
  -4   2   8  498.15   16.20
  -3  -2   8   23.70    2.30
   3  -2  -8   24.40    2.30
   3  -2  -8   24.20    2.00
  -3   2   8   25.00    2.30
  -3   2   8   25.00    2.10
   3   2  -8   26.70    2.00
   3   2  -8   24.80    2.00
   3   2  -8   21.40    2.40
   2  -2  -8  651.03   20.50
   2  -2  -8  634.54   20.80
  -2  -2   8  633.74   20.80
  -2   2   8  633.44   20.50
   2   2  -8  650.13   20.90
   2   2  -8  674.83   20.40
   2   2  -8  646.24   20.00
  -2   2   8  618.74   20.60
   1  -2  -8  382.96   13.60
   1  -2  -8  406.86   13.30
  -1  -2   8  404.26   13.70
  -1  -2   8  420.66   12.70
  -1   2   8  389.76   13.20
   1   2  -8  415.46   12.60
  -1   2   8  397.26   13.60
   1   2  -8  411.56   13.80
   0  -2   8  206.98    6.80
   0  -2  -8  208.48    7.60
   0  -2   8  213.38    8.10
   0  -2  -8  227.18    8.20
   0   2  -8  217.68    6.90
   0   2   8  211.48    8.00
   0   2   8  213.58    7.60
   0   2  -8  217.48    8.20
   1  -2   8 1234.98   38.40
  -1  -2  -8 1224.98   38.10
   1  -2   8 1252.37   37.30
  -1  -2  -8 1233.08   38.40
  -1   2  -8 1242.98   37.40
   1   2   8 1227.28   38.00
  -1   2  -8 1254.77   38.50
   1   2   8 1223.38   38.30
   2  -2   8   67.59    3.50
  -2  -2  -8   62.19    3.40
  -2  -2  -8   61.99    3.50
   2  -2   8   67.99    3.00
   2   2   8   66.49    3.40
  -2   2  -8   66.09    3.00
  -2   2  -8   64.19    3.60
   2   2   8   63.79    3.40
  -3  -2  -8  868.21   27.40
   3  -2   8  869.51   27.40
  -3  -2  -8  860.41   27.70
   3  -2   8  882.21   27.10
  -3   2  -8  857.11   27.40
   3   2   8  872.21   27.60
  -3   2  -8  854.91   27.10
   3   2   8  851.51   27.20
   4  -2   8    8.90    1.70
   4  -2   8    4.40    1.20
  -4  -2  -8    4.90    1.40
  -4  -2  -8    8.00    1.70
  -4   2  -8    4.40    1.40
   4   2   8    5.00    1.20
  -4   2  -8    4.70    1.20
   4   2   8    7.70    1.70
   5  -2   8  287.17   10.70
  -5  -2  -8  283.07   10.20
   5  -2   8  275.57   10.00
   5   2   8  290.57   11.10
   5   2   8  274.17    9.90
  -5   2  -8  283.97   10.50
  -5   2  -8  296.57   10.20
   6  -2   8   37.50    3.30
  -6  -2  -8   30.40    2.50
   6  -2   8   30.10    2.30
   6   2   8   34.50    3.80
  -6   2  -8   31.50    2.50
   6   2   8   26.00    2.20
   7  -2   8   77.99    5.10
   7  -2   8   75.19    3.60
  -7  -2  -8   80.89    3.90
  -7   2  -8   80.39    3.70
   7   2   8   77.39    5.30
   8  -2   8   31.60    4.40
   8  -2   8   24.60    1.70
  -8  -2  -8   23.10    2.00
  -8  -2  -8   22.00    1.70
   8   2   8   30.40    4.20
   9  -2   8   76.69    5.80
   9   2   8   75.49    5.90
  10  -2   8   29.20    4.60
  10   2   8   29.60    4.90
  11  -2   8   76.39    6.60
  11   2   8   94.19    7.20
  12  -3  -8    5.30    3.20
  12   3  -8    9.00    3.90
  11  -3  -8   -0.70    2.50
  11   3  -8    3.20    3.10
  10  -3  -8   61.39    5.70
 -10  -3   8   62.09    3.10
  10   3  -8   59.49    3.60
  10   3  -8   75.89    6.30
   9  -3  -8   29.70    2.30
   9  -3  -8   27.40    2.30
  -9  -3   8   30.60    2.60
   9  -3  -8   27.70    4.20
   9   3  -8   40.20    4.90
   9   3  -8   32.40    2.60
  -8  -3   8   16.90    2.10
   8  -3  -8   15.80    3.20
   8  -3  -8   17.00    2.20
   8   3  -8   19.30    2.30
   8   3  -8   17.70    3.40
   7  -3  -8   66.19    4.90
   7  -3  -8   67.69    3.70
  -7  -3   8   64.99    3.70
   7   3  -8   71.69    3.80
   7   3  -8   66.99    4.80
  -7   3   8   65.69    3.50
  -6  -3   8   36.40    2.80
   6  -3  -8   39.30    3.60
  -6  -3   8   34.60    3.00
   6  -3  -8   37.80    2.90
   6   3  -8   42.80    3.50
   6   3  -8   39.00    2.90
  -6   3   8   35.10    2.60
  -5  -3   8   17.90    2.50
   5  -3  -8   16.30    2.40
   5  -3  -8   12.60    2.10
   5  -3  -8   14.10    2.00
  -5  -3   8   15.50    2.10
  -5   3   8   14.00    1.90
   5   3  -8   16.40    2.40
   5   3  -8   14.70    2.10
   4  -3  -8   48.20    3.00
  -4  -3   8   43.00    3.00
  -4  -3   8   39.30    2.60
   4  -3  -8   43.60    2.90
   4   3  -8   43.20    3.00
   4   3  -8   38.90    2.80
  -4   3   8   43.10    2.70
  -4   3   8   38.60    3.10
  -3  -3   8  383.26   13.20
   3  -3  -8  386.36   13.10
  -3  -3   8  378.46   12.50
   3  -3  -8  358.36   12.90
   3   3  -8  393.26   13.20
  -3   3   8  369.46   13.10
   3   3  -8  381.06   12.60
  -3   3   8  382.26   12.90
   2  -3  -8  145.59    5.70
  -2  -3   8  135.09    6.00
   2  -3  -8  140.39    6.00
   2   3  -8  149.09    6.10
  -2   3   8  138.69    5.80
   2   3  -8  142.09    5.20
  -2   3   8  148.19    5.90
   2   3  -8  142.59    5.10
  -1  -3   8   90.39    4.30
   1  -3  -8   78.89    3.80
   1  -3  -8   80.29    4.20
  -1   3   8   87.89    4.20
   1   3  -8   87.19    3.10
   1   3  -8   92.39    4.40
  -1   3   8   85.79    3.90
   1   3  -8   87.49    3.00
   0  -3   8   69.99    3.80
   0  -3   8   73.99    2.50
   0  -3  -8   76.19    3.60
   0  -3  -8   73.79    3.90
   0   3   8   75.09    3.60
   0   3  -8   74.99    4.00
   0   3   8   73.89    3.70
   0   3  -8   73.89    2.50
  -1  -3  -8   60.69    3.50
   1  -3   8   60.69    2.30
  -1  -3  -8   61.19    3.30
   1  -3   8   59.59    3.50
   1   3   8   58.29    3.20
  -1   3  -8   61.99    2.40
   1   3   8   62.19    3.40
  -1   3  -8   66.79    3.60
  -2  -3  -8  244.18    9.10
   2  -3   8  252.47    8.20
   2  -3   8  248.28    9.20
  -2  -3  -8  245.18    9.20
  -2   3  -8  245.18    9.20
  -2   3  -8  246.08    8.20
   2   3   8  245.98    9.10
   2   3   8  247.78    9.00
  -3  -3  -8  175.18    7.00
   3  -3   8  173.18    6.50
   3  -3   8  169.98    6.90
   3   3   8  182.28    6.90
   3   3   8  178.18    7.20
  -3   3  -8  180.88    7.10
  -3   3  -8  169.68    6.40
  -4  -3  -8  250.07    9.30
  -4  -3  -8  241.48    9.80
   4  -3   8  258.77    9.30
   4  -3   8  247.28    9.30
   4   3   8  250.47    9.90
  -4   3  -8  262.17    9.40
  -4   3  -8  255.47    9.20
   4   3   8  257.07    9.20
   5  -3   8   61.09    3.70
   5  -3   8   51.99    3.20
  -5  -3  -8   57.89    3.50
  -5   3  -8   57.29    3.40
   5   3   8   57.59    4.10
   5   3   8   60.69    3.30
   6  -3   8   22.30    2.30
   6  -3   8   30.50    3.40
  -6  -3  -8   25.00    2.40
   6   3   8   20.90    2.20
  -6   3  -8   25.20    2.50
  -6   3  -8   18.20    2.90
   6   3   8   20.30    3.00
  -7  -3  -8    4.30    1.30
  -7  -3  -8    3.70    1.40
   7  -3   8    1.10    1.80
   7  -3   8    2.00    1.10
  -7   3  -8    3.80    1.20
   7   3   8    8.20    2.30
  -8  -3  -8  242.78    8.60
  -8  -3  -8  261.07    8.90
   8  -3   8  255.87   11.00
   8  -3   8  248.38    8.60
   8   3   8  247.18   11.30
  -8   3  -8  248.48    8.50
   9  -3   8   -0.10    1.90
   9   3   8    0.40    2.20
  10  -3   8   25.60    4.30
  10   3   8   27.60    4.40
  11  -3   8   19.70    4.00
  11   3   8   14.10    3.70
  12  -4  -8    5.20    3.30
  12   4  -8    4.00    3.10
  11  -4  -8   19.00    4.30
  11   4  -8   20.90    4.30
  10  -4  -8   36.10    2.40
 -10  -4   8   34.70    2.60
  10  -4  -8   35.90    2.30
  10  -4  -8   36.20    5.20
  10   4  -8   56.09    6.50
  10   4  -8   34.70    2.60
   9  -4  -8    6.60    2.80
   9  -4  -8    4.40    1.50
   9  -4  -8    3.40    1.40
  -9  -4   8    1.70    1.40
   9   4  -8    4.40    2.60
   9   4  -8    3.30    1.60
   8  -4  -8  183.78    9.10
   8  -4  -8  185.38    7.50
  -8  -4   8  187.58    7.50
   8  -4  -8  176.38    7.20
   8   4  -8  197.98    9.20
   8   4  -8  195.78    7.50
   7  -4  -8    2.20    1.30
   7  -4  -8    5.30    2.20
  -7  -4   8    1.10    1.30
  -7   4   8    1.80    1.30
   7   4  -8    3.30    2.10
   7   4  -8    2.70    1.40
  -6  -4   8  155.28    6.60
   6  -4  -8  153.98    7.50
   6  -4  -8  145.79    6.40
  -6  -4   8  147.99    6.70
   6   4  -8  150.78    6.50
   6   4  -8  154.48    7.20
  -6   4   8  149.88    6.20
  -5  -4   8   26.60    2.80
   5  -4  -8   21.30    2.80
   5  -4  -8   22.30    2.40
  -5  -4   8   27.00    3.20
   5   4  -8   24.20    2.70
   5   4  -8   21.80    2.60
  -5   4   8   22.60    2.40
  -4  -4   8    3.60    1.10
  -4  -4   8    3.70    1.30
   4  -4  -8    1.00    1.00
   4  -4  -8    0.00    1.10
   4   4  -8    2.00    1.20
   4   4  -8    2.40    1.20
  -4   4   8    2.10    1.30
  -4   4   8    1.60    1.10
  -3  -4   8  351.86   12.80
   3  -4  -8  364.96   12.80
   3  -4  -8  392.26   13.30
  -3  -4   8  367.16   12.10
   3   4  -8  357.66   12.20
   3   4  -8  369.36   12.90
  -3   4   8  359.86   12.60
  -3   4   8  370.46   12.90
   2  -4  -8  189.98    7.40
   2  -4  -8  186.98    7.60
  -2  -4   8  193.78    7.70
   2   4  -8  199.38    6.70
   2   4  -8  206.18    7.90
  -2   4   8  188.58    7.50
  -2   4   8  191.08    7.50
  -1  -4   8  386.06   13.60
   1  -4  -8  389.16   13.50
   1  -4  -8  394.46   13.30
   1   4  -8  401.96   12.00
  -1   4   8  393.56   13.30
   1   4  -8  394.06   12.00
  -1   4   8  388.06   13.40
   1   4  -8  389.26   13.70
   0  -4  -8   34.10    2.40
   0  -4   8   36.60    2.70
   0  -4  -8   29.30    2.60
   0   4  -8   36.50    2.80
   0   4   8   33.30    2.50
   0   4   8   32.20    2.40
  -1  -4  -8  738.63   24.10
   1  -4   8  780.62   22.50
  -1  -4  -8  710.03   24.10
   1  -4   8  753.32   24.30
  -1   4  -8  777.22   24.40
   1   4   8  728.33   24.00
   1   4   8  764.42   24.10
   2  -4   8    8.90    1.10
  -2  -4  -8    6.80    1.50
   2  -4   8    7.70    1.70
  -2  -4  -8   12.20    2.00
   2   4   8    6.90    1.40
   2   4   8   10.50    2.00
  -2   4  -8    4.60    1.50
  -2   4  -8    7.40    0.90
  -3  -4  -8  263.57    9.50
   3  -4   8  256.27    9.50
  -3  -4  -8  241.58    9.70
   3  -4   8  256.77    8.80
  -3   4  -8  257.57    9.50
   3   4   8  244.88    9.60
  -3   4  -8  248.88    8.60
   3   4   8  260.27    9.30
   4  -4   8  148.29    6.40
   4  -4   8  156.58    6.30
  -4  -4  -8  152.08    6.50
   4   4   8  151.48    6.30
   4   4   8  158.78    7.00
  -4   4  -8  156.38    6.50
  -4   4  -8  157.68    6.10
   5  -4   8  744.03   23.50
  -5  -4  -8  704.03   23.20
   5  -4   8  695.03   23.10
  -5   4  -8  731.43   23.20
  -5   4  -8  693.03   23.20
   5   4   8  726.93   25.40
   5   4   8  713.93   23.00
  -6  -4  -8    0.50    1.20
   6  -4   8    1.10    1.00
   6  -4   8    0.70    1.50
  -6   4  -8    1.90    1.20
   6   4   8    0.60    1.50
  -6   4  -8    1.60    1.10
   7  -4   8   30.20    2.50
   7  -4   8   39.60    4.20
  -7  -4  -8   32.50    2.50
  -7  -4  -8   37.60    3.00
   7   4   8   38.40    4.60
  -7   4  -8   36.70    2.60
   8  -4   8   11.80    1.70
  -8  -4  -8   13.80    2.10
   8  -4   8   13.00    2.90
  -8  -4  -8   11.90    1.70
   8   4   8    9.50    2.80
  -8   4  -8   20.00    2.00
   9  -4   8   30.90    4.20
  -9  -4  -8   24.70    1.90
  -9  -4  -8   26.70    2.40
   9   4   8   31.00    4.70
  10  -4   8   32.10    4.80
  10   4   8   29.90    5.10
  11  -4   8    2.30    2.50
  11   4   8    2.00    2.70
  12  -5  -8    8.20    3.70
  12   5  -8    6.50    3.60
  11  -5  -8    2.90    2.90
  11   5  -8    3.40    3.30
  10  -5  -8    2.50    1.30
  10  -5  -8   -1.20    2.30
  10  -5  -8    1.80    1.20
 -10  -5   8    2.40    1.40
  10   5  -8    2.00    1.40
  10   5  -8    2.50    2.70
   9  -5  -8   14.90    2.20
   9  -5  -8   16.50    3.70
  -9  -5   8   13.60    2.30
   9  -5  -8   14.90    2.10
   9   5  -8   10.90    2.10
   9   5  -8   22.70    4.10
  -8  -5   8    0.90    1.50
   8  -5  -8    0.90    1.30
   8  -5  -8    2.80    2.30
   8  -5  -8    0.50    1.10
   8   5  -8    0.70    1.40
   8   5  -8   -1.20    1.90
  -7  -5   8    0.80    1.80
   7  -5  -8    1.60    1.90
   7  -5  -8    2.80    1.40
   7  -5  -8    1.30    1.40
   7   5  -8    2.30    1.60
   7   5  -8    1.30    1.80
   6  -5  -8    1.20    1.70
   6  -5  -8   -0.60    1.10
  -6  -5   8   -0.50    1.30
  -6  -5   8    0.10    1.20
  -6   5   8    0.60    1.10
   6   5  -8    1.30    1.50
   6   5  -8    1.20    1.40
   5  -5  -8    9.00    2.20
   5  -5  -8    5.30    1.70
  -5  -5   8    5.50    1.80
   5   5  -8    7.30    1.90
  -5   5   8    5.10    1.50
   5   5  -8    4.20    1.60
   4  -5  -8  131.89    6.00
  -4  -5   8  138.69    5.70
   4  -5  -8  126.39    6.00
  -4  -5   8  139.49    6.20
  -4   5   8  134.19    5.90
   4   5  -8  137.99    6.20
   4   5  -8  138.09    5.80
  -4   5   8  133.09    6.30
  -3  -5   8   56.19    3.50
   3  -5  -8   47.00    3.40
  -3  -5   8   57.59    2.90
   3  -5  -8   47.10    3.20
  -3   5   8   47.70    3.20
  -3   5   8   49.60    3.40
   3   5  -8   53.79    3.60
   3   5  -8   56.29    2.90
   2  -5  -8   47.30    3.30
   2  -5  -8   44.40    3.20
  -2  -5   8   43.80    3.20
   2   5  -8   49.00    2.30
  -2   5   8   51.59    3.20
   2   5  -8   44.00    3.40
  -2   5   8   50.99    3.10
  -1  -5   8   20.80    2.50
   1  -5  -8   22.20    2.60
   1  -5  -8   26.90    2.20
  -1   5   8   21.10    2.40
  -1   5   8   26.30    2.30
   1   5  -8   22.00    2.60
   1   5  -8   25.60    1.10
   1   5  -8   25.90    1.10
   0  -5   8    2.30    1.20
   0  -5  -8    0.80    0.90
   0  -5  -8    2.20    1.30
   0   5  -8    0.70    1.20
   0   5   8    2.00    1.10
   0   5   8    0.80    0.90
  -1  -5  -8  195.08    8.60
  -1  -5  -8  186.28    7.50
   1  -5   8  184.58    7.60
  -1   5  -8  182.68    7.60
   1   5   8  185.58    7.40
   1   5   8  188.58    7.40
   2  -5   8   71.39    4.00
   2  -5   8   69.69    2.80
   2  -5   8   69.39    2.80
  -2  -5  -8   73.29    4.10
  -2  -5  -8   70.59    4.00
  -2   5  -8   71.59    4.10
   2   5   8   73.39    3.90
   2   5   8   67.89    3.90
   3  -5   8    4.10    1.40
  -3  -5  -8    4.90    1.60
   3  -5   8    4.60    1.10
  -3  -5  -8    5.40    1.60
   3   5   8    5.30    1.60
   3   5   8    4.60    1.40
  -3   5  -8    2.90    1.40
  -3   5  -8    5.10    1.00
   4  -5   8   22.00    2.60
   4  -5   8   21.50    2.40
  -4  -5  -8   23.70    2.70
   4   5   8   18.00    2.60
  -4   5  -8   18.50    1.80
   4   5   8   21.60    2.70
  -4   5  -8   23.50    2.80
   5  -5   8  182.38    7.60
   5  -5   8  192.18    7.70
  -5  -5  -8  200.98    7.90
  -5   5  -8  196.88    7.70
   5   5   8  189.78    8.50
  -5   5  -8  175.28    7.30
   6  -5   8   18.00    2.40
  -6  -5  -8   16.50    2.40
  -6  -5  -8   16.40    2.50
   6  -5   8   25.10    3.20
  -6   5  -8   22.30    2.60
   6   5   8   17.50    3.00
  -6   5  -8   19.60    2.50
   7  -5   8   75.69    4.00
   7  -5   8   73.09    5.00
  -7  -5  -8   75.39    4.10
  -7  -5  -8   82.79    4.50
   7   5   8   79.39    5.60
  -7   5  -8   78.99    4.10
   8  -5   8   31.90    2.50
  -8  -5  -8   31.70    2.60
  -8  -5  -8   39.30    3.10
   8  -5   8   41.50    4.60
   8   5   8   34.30    4.70
  -8   5  -8   34.20    2.50
   9  -5   8    8.40    2.70
  -9  -5  -8    5.70    1.40
   9  -5   8    5.00    1.10
  -9  -5  -8    7.90    1.70
   9   5   8    8.20    2.80
  10  -5   8   16.40    3.40
  10   5   8   15.60    3.70
  11  -5   8    2.10    2.50
  11   5   8   -0.70    2.50
  12  -6  -8   -0.50    2.70
  12   6  -8    4.70    3.70
  11  -6  -8    2.50    3.10
  11   6  -8    0.10    2.70
 -10  -6   8   -2.20    1.50
  10  -6  -8    1.10    3.40
  10  -6  -8    0.20    1.20
  10  -6  -8   -0.80    1.30
  10   6  -8   -0.20    2.50
  10   6  -8   -2.40    1.30
  -9  -6   8    2.60    1.80
   9  -6  -8    1.70    1.40
   9  -6  -8    1.20    1.40
   9  -6  -8    1.70    2.70
   9   6  -8    0.60    1.50
   9   6  -8    2.80    2.50
   8  -6  -8   -0.30    1.40
  -8  -6   8   -0.80    1.60
   8  -6  -8    1.50    2.10
   8  -6  -8    0.40    2.20
   8   6  -8   -1.30    1.80
   8   6  -8   -0.80    1.50
   7  -6  -8   13.90    2.30
   7  -6  -8   13.90    3.20
   7  -6  -8   17.40    2.40
  -7  -6   8   16.10    2.50
   7   6  -8   17.90    2.50
   7   6  -8   16.90    3.10
  -6  -6   8   29.00    3.30
   6  -6  -8   35.20    4.00
   6  -6  -8   31.90    3.30
   6  -6  -8   29.10    3.00
   6   6  -8   29.60    3.50
   6   6  -8   35.50    3.30
  -5  -6   8   18.40    2.60
  -5  -6   8   21.20    2.70
   5  -6  -8   22.40    2.70
  -5   6   8   21.80    2.50
   5   6  -8   25.70    2.90
   5   6  -8   25.00    2.80
   4  -6  -8   54.79    3.60
  -4  -6   8   51.89    3.70
  -4  -6   8   51.09    3.10
  -4   6   8   60.59    4.10
   4   6  -8   53.19    3.70
  -4   6   8   50.39    3.40
   4   6  -8   50.39    3.30
   3  -6  -8  365.86   12.90
   3  -6  -8  369.16   12.90
  -3  -6   8  356.36   13.10
  -3  -6   8  353.96   11.90
   3   6  -8  358.96   13.00
  -3   6   8  344.67   12.70
  -3   6   8  361.36   13.00
   3   6  -8  360.66   12.00
   2  -6  -8   53.09    3.30
   2  -6  -8   57.39    3.70
  -2  -6   8   56.99    2.70
  -2  -6   8   50.99    3.60
   2   6  -8   50.59    2.50
  -2   6   8   54.89    3.50
  -2   6   8   52.49    3.40
   2   6  -8   49.60    3.60
  -1  -6   8  402.76   14.60
   1  -6  -8  400.26   14.40
   1   6  -8  424.96   12.60
  -1   6   8  416.16   14.30
   1   6  -8  437.76   14.80
  -1   6   8  399.66   14.30
   0  -6   8   38.40    3.00
   0  -6  -8   41.60    3.20
   0  -6  -8   39.90    2.90
   0   6  -8   38.00    3.20
   0   6   8   39.20    2.90
   0   6   8   44.70    3.00
  -1  -6  -8   40.00    2.90
  -1  -6  -8   33.90    3.00
   1  -6   8   37.70    3.00
   1   6   8   38.50    2.90
  -1   6  -8   33.10    3.00
   1   6   8   37.60    2.90
   2  -6   8   59.89    3.70
   2  -6   8   59.89    2.40
  -2  -6  -8   53.49    3.60
   2  -6   8   58.19    2.30
  -2  -6  -8   54.49    3.70
   2   6   8   49.30    3.60
  -2   6  -8   62.39    3.80
   2   6   8   57.49    3.50
   3  -6   8    9.20    1.40
   3  -6   8    9.70    1.30
  -3  -6  -8    9.60    2.00
   3  -6   8    7.70    1.80
   3   6   8    9.80    2.10
   3   6   8    7.90    1.60
  -3   6  -8    9.20    2.00
   4  -6   8    0.50    0.90
   4  -6   8    1.20    1.10
   4  -6   8    0.30    1.10
  -4  -6  -8   -0.40    1.30
  -4   6  -8    0.50    1.10
   4   6   8    1.50    1.40
  -5  -6  -8  124.49    5.80
   5  -6   8  129.79    5.90
  -5  -6  -8  134.99    6.20
   5  -6   8  131.49    6.10
  -5   6  -8  120.79    5.90
   5   6   8  131.69    6.80
  -6  -6  -8   13.30    2.10
   6  -6   8   11.80    2.30
  -6  -6  -8    9.10    2.20
   6  -6   8   10.10    2.00
   6   6   8   10.50    2.80
  -6   6  -8   14.70    2.30
  -6   6  -8    7.50    1.60
   7  -6   8   22.50    3.20
  -7  -6  -8   20.00    2.50
  -7  -6  -8   24.10    3.00
   7   6   8   21.60    3.80
  -7   6  -8   24.80    2.70
   8  -6   8    3.20    2.10
   8  -6   8    1.70    1.20
  -8  -6  -8    3.30    1.70
  -8   6  -8    2.60    1.30
   8   6   8    0.40    2.10
   9  -6   8   -2.10    1.80
  -9  -6  -8   -0.70    1.40
   9  -6   8    1.40    1.00
  -9  -6  -8    1.50    1.20
  -9   6  -8    0.70    1.10
   9   6   8    1.10    2.20
  10  -6   8    0.40    2.10
  10   6   8    0.00    2.30
  11  -7  -8    1.60    2.80
  11  -7  -8    0.50    1.20
  11   7  -8   -0.90    2.70
  10  -7  -8   10.30    2.10
  10  -7  -8    7.90    2.40
 -10  -7   8   10.40    2.50
  10  -7  -8   18.40    4.10
  10   7  -8   12.00    2.40
  10   7  -8   13.60    3.70
   9  -7  -8   21.60    2.70
   9  -7  -8   11.30    2.20
  -9  -7   8   12.00    2.70
   9  -7  -8   24.80    4.20
   9   7  -8   18.60    2.80
   9   7  -8   13.30    3.30
  -8  -7   8   20.00    3.00
   8  -7  -8   23.90    3.90
   8  -7  -8   26.80    3.00
   8  -7  -8   24.00    3.00
   8   7  -8   25.50    3.10
   8   7  -8   20.00    3.40
   7  -7  -8    3.40    2.30
   7  -7  -8    2.90    1.50
   7  -7  -8    0.80    1.50
  -7  -7   8    3.60    1.80
   7   7  -8    4.40    2.20
   7   7  -8    3.40    1.90
   6  -7  -8   87.29    4.80
   6  -7  -8   98.49    5.10
   6  -7  -8   84.49    5.60
  -6  -7   8   83.79    5.00
   6   7  -8   84.59    5.20
   6   7  -8   94.29    5.20
   5  -7  -8   21.50    2.80
   5  -7  -8   24.70    3.00
  -5  -7   8   26.00    2.50
  -5  -7   8   22.10    3.00
   5   7  -8   25.10    3.10
   5   7  -8   25.20    3.00
  -5   7   8   26.90    3.50
   4  -7  -8   84.39    4.60
  -4  -7   8   70.99    4.50
  -4  -7   8   74.29    3.90
   4   7  -8   82.19    4.80
   4   7  -8   83.09    4.10
  -4   7   8   66.09    4.60
  -3  -7   8   39.00    2.50
   3  -7  -8   35.80    3.30
  -3  -7   8   37.30    3.20
  -3   7   8   37.10    3.20
  -3   7   8   33.70    2.90
   3   7  -8   36.60    3.30
   3   7  -8   41.80    2.60
   2  -7  -8   65.99    4.00
  -2  -7   8   76.89    3.20
   2  -7  -8   79.29    4.60
  -2  -7   8   80.99    4.50
  -2   7   8   69.09    4.20
   2   7  -8   80.19    4.60
  -2   7   8   72.89    4.20
   1  -7  -8   35.70    3.20
  -1  -7   8   37.10    1.70
   1  -7  -8   39.60    2.90
  -1  -7   8   37.40    3.10
  -1   7   8   37.90    3.00
   1   7  -8   36.80    3.20
   1   7  -8   38.40    1.60
  -1   7   8   35.60    2.90
   0  -7  -8   16.80    2.40
   0  -7   8   18.10    2.60
   0  -7  -8   19.00    2.70
   0   7   8   19.70    2.40
   0   7  -8   21.20    3.00
   0   7   8   19.20    2.50
   1  -7   8  145.29    6.70
  -1  -7  -8  145.29    6.50
  -1  -7  -8  150.88    6.70
  -1   7  -8  161.78    6.90
   1   7   8  137.79    6.40
   1   7   8  137.09    6.40
  -2  -7  -8   11.40    2.30
   2  -7   8    8.90    0.90
   2  -7   8    8.60    1.00
   2  -7   8    9.40    1.90
   2   7   8    8.10    1.80
   2   7   8    6.50    1.60
  -2   7  -8    8.80    2.00
  -3  -7  -8  121.89    6.00
   3  -7   8  119.39    4.60
   3  -7   8  127.49    4.80
   3  -7   8  120.99    6.00
  -3  -7  -8  116.99    5.70
  -3   7  -8  120.49    5.90
   4  -7   8   82.79    4.00
   4  -7   8   74.19    4.60
  -4  -7  -8   76.59    4.50
  -4  -7  -8   77.39    4.80
   4  -7   8   82.59    3.80
   4   7   8   89.99    5.20
  -4   7  -8   84.49    4.70
   5  -7   8   38.90    2.80
  -5  -7  -8   35.00    3.10
   5  -7   8   32.40    3.10
  -5  -7  -8   38.90    3.60
   5  -7   8   40.80    3.10
   5   7   8   37.60    4.10
  -5   7  -8   42.00    3.30
  -6  -7  -8   66.49    4.10
   6  -7   8   56.99    4.00
  -6  -7  -8   65.29    4.50
   6  -7   8   71.99    4.40
   6  -7   8   63.29    3.90
  -6   7  -8   69.29    4.10
   6   7   8   67.29    5.20
  -7  -7  -8   93.59    5.10
   7  -7   8   69.89    4.40
  -7  -7  -8   73.19    4.40
   7  -7   8   90.19    5.30
   7   7   8   83.39    6.00
  -7   7  -8   79.49    4.50
   8  -7   8    8.10    1.90
   8  -7   8   12.80    2.90
  -8  -7  -8   10.00    2.10
  -8  -7  -8   11.20    2.50
   8   7   8    9.00    2.90
  -8   7  -8   13.50    2.10
  -9  -7  -8   -1.80    1.40
   9  -7   8    0.70    2.00
  -9  -7  -8    0.80    1.60
   9  -7   8    0.30    1.30
   9   7   8    1.60    2.60
  -9   7  -8    0.00    1.10
  10  -7   8    2.50    2.30
  10  -7   8    4.70    1.60
 -10  -7  -8    2.40    1.50
  10   7   8   11.00    3.80
  11  -8  -8   32.90    5.30
  11  -8  -8   22.70    2.70
  11   8  -8   24.60    4.70
  10  -8  -8   34.80    3.30
  10  -8  -8   38.60    5.50
  10   8  -8   33.50    3.70
  10   8  -8   32.80    5.10
   9  -8  -8   62.69    6.00
   9  -8  -8   66.19    4.40
   9   8  -8   63.89    4.50
   9   8  -8   69.99    5.90
   8  -8  -8    9.40    3.20
   8  -8  -8    7.80    2.20
   8   8  -8   10.00    2.40
   8   8  -8    6.90    2.70
   7  -8  -8    2.80    1.80
   7  -8  -8    4.10    2.20
   7   8  -8    3.50    2.00
   7   8  -8    3.80    2.00
   6  -8  -8  248.78   10.00
   6  -8  -8  245.68   10.70
   6   8  -8  234.28   10.00
   6   8  -8  244.68   10.10
  -5  -8   8   31.80    2.90
   5  -8  -8   39.50    3.50
   5   8  -8   37.80    3.60
   5   8  -8   45.10    3.40
  -5   8   8   37.80    4.20
   4  -8  -8  198.48    8.70
  -4  -8   8  201.28    8.00
   4   8  -8  212.48    8.10
   4   8  -8  204.38    8.80
  -4   8   8  221.58    9.20
   3  -8  -8   24.80    3.10
  -3  -8   8   22.00    2.00
   3   8  -8   26.60    3.30
   3   8  -8   24.80    2.10
  -3   8   8   22.80    3.00
  -2  -8   8  291.87   10.00
   2  -8  -8  306.17   11.60
  -2   8   8  296.87   11.40
   2   8  -8  311.87   11.80
   2   8  -8  304.27   10.00
  -1  -8   8   64.49    2.60
   1  -8  -8   61.59    4.30
  -1   8   8   65.89    4.10
   1   8  -8   67.99    4.40
   1   8  -8   67.09    2.60
   0  -8  -8   31.10    3.40
   0   8  -8   27.40    3.10
   0   8   8   32.00    3.00
  -1  -8  -8  263.37   10.50
   1   8   8  269.87   10.40
  -1   8  -8  259.37   10.50
   2  -8   8    9.90    1.00
   2  -8   8   10.20    1.10
  -2  -8  -8    9.20    2.30
  -2   8  -8   10.90    2.30
   3  -8   8  102.29    4.00
  -3  -8  -8   97.09    5.60
   3  -8   8  103.59    4.30
   3   8   8  104.99    5.80
  -3   8  -8  106.99    5.60
   4  -8   8    5.10    1.40
  -4  -8  -8    7.00    2.30
   4  -8   8    6.30    1.30
  -4   8  -8    5.00    1.90
   4   8   8    7.00    2.10
   5  -8   8   38.00    3.10
  -5  -8  -8   39.50    4.10
   5  -8   8   36.20    2.70
  -5   8  -8   37.90    3.40
   5   8   8   33.00    3.90
  -6  -8  -8    8.50    2.50
   6  -8   8    7.10    2.10
   6  -8   8    2.90    1.50
  -6   8  -8    7.60    1.90
   6   8   8    4.30    2.30
  -7  -8  -8    0.40    1.80
   7  -8   8   -1.10    1.30
  -7   8  -8    3.30    1.60
   7   8   8   -1.40    1.80
   8  -8   8   25.30    3.20
   8  -8   8   51.49    5.20
  -8  -8  -8   39.80    4.10
   8   8   8   39.40    5.20
  -8   8  -8   38.00    3.20
   9  -8   8    7.80    2.70
  -9  -8  -8    9.00    2.40
   9   8   8    7.70    3.30
  -9   8  -8    8.20    1.80
  10  -8   8   26.60    4.50
  10  -8   8   24.90    2.50
 -10  -8  -8   19.60    2.70
  10   8   8   28.40    5.00
  11  -9  -8    6.00    2.00
  11  -9  -8    0.60    3.00
  11   9  -8    2.20    3.00
  10  -9  -8   75.89    4.80
  10  -9  -8   82.39    7.00
  10   9  -8   65.39    4.90
   9  -9  -8   -2.40    2.20
   9   9  -8   -1.10    1.90
   9   9  -8    1.90    2.70
   8  -9  -8    6.70    3.00
   8  -9  -8   11.80    2.60
   8   9  -8    6.90    2.70
   8   9  -8    5.30    2.20
   7  -9  -8    0.20    1.80
   7  -9  -8    1.10    2.20
   7   9  -8    3.20    2.20
   7   9  -8    1.80    2.00
   6  -9  -8   64.29    5.10
   6  -9  -8   66.69    4.60
   6   9  -8   63.39    4.80
   6   9  -8   61.49    5.10
  -5  -9   8    5.40    1.70
   5  -9  -8    1.80    1.90
   5   9  -8    5.30    2.30
  -5   9   8    0.60    2.30
   5   9  -8    2.50    1.70
  -4  -9   8   15.70    2.20
   4  -9  -8   18.20    3.20
  -4   9   8   18.90    3.10
   4   9  -8   16.50    2.30
   4   9  -8   14.30    2.70
   3  -9  -8  149.99    9.80
  -3  -9   8  145.59    5.90
   3   9  -8  141.09    5.80
   3   9  -8  151.08    7.40
  -3   9   8  147.99    7.10
  -2  -9   8   34.40    2.30
   2   9  -8   33.20    4.70
  -2   9   8   45.30    5.30
   2   9  -8   40.60    2.20
  -1   9   8   67.19    6.20
   1   9  -8   66.19    2.80
   0  -9   8   33.00    1.60
  -1  -9  -8  124.79    8.90
   1  -9   8  126.09    4.20
   1  -9   8  122.49    4.20
   1   9   8  115.79    6.10
   2  -9   8   13.80    1.40
  -2  -9  -8   10.80    2.80
   2   9   8    8.50    2.20
   3  -9   8  159.78    5.70
   3  -9   8  164.78    6.00
  -3  -9  -8  159.48    7.70
   3   9   8  142.89    7.40
   4  -9   8  368.96   12.60
   4  -9   8  377.76   12.80
  -4  -9  -8  374.06   14.20
  -4   9  -8  403.36   15.30
   4   9   8  356.36   14.40
   5  -9   8  263.17    9.70
   5  -9   8  271.77   10.10
  -5  -9  -8  268.97   11.10
   5   9   8  262.97   11.50
  -5   9  -8  266.77   11.70
   6  -9   8    5.20    1.90
   6  -9   8    5.90    1.70
  -6  -9  -8    7.80    2.50
   6   9   8    6.10    2.50
  -6   9  -8    4.20    2.20
   7  -9   8   28.90    3.60
  -7  -9  -8   27.30    3.70
   7   9   8   25.70    4.20
   8  -9   8   91.79    5.90
  -8  -9  -8   84.69    5.60
   8   9   8   83.09    6.60
  -8   9  -8   84.69    5.10
   9  -9   8    2.20    2.00
   9   9   8   -0.30    2.70
  -9   9  -8    1.30    1.60
 -10  -9  -8   12.80    2.60
  10  -9   8   10.70    3.20
  10  -9   8   12.40    2.30
  10   9   8    7.50    3.20
  10 -10  -8   17.50    3.10
  10 -10  -8   14.90    4.00
  10  10  -8   14.10    3.60
  10  10  -8   13.20    3.00
   9 -10  -8   22.90    4.60
   9 -10  -8   22.90    3.40
   9  10  -8   28.20    3.70
   9  10  -8   22.10    4.20
   8 -10  -8   52.39    6.00
   8 -10  -8   48.30    4.50
   8  10  -8   52.09    4.60
   8  10  -8   51.29    5.00
   7 -10  -8   45.10    4.10
   7 -10  -8   43.20    4.90
   7  10  -8   37.10    4.30
   7  10  -8   41.70    4.40
   6 -10  -8  231.38   10.80
   6 -10  -8  238.38   10.30
   6  10  -8  239.68   10.30
   6  10  -8  239.18   10.10
   5 -10  -8   45.30    4.10
  -5 -10   8   33.00    3.20
   5  10  -8   39.00    3.60
  -5  10   8   37.70    4.60
   5  10  -8   36.80    4.10
   4 -10  -8  861.31   28.70
   4  10  -8  849.12   28.80
  -4  10   8  861.31   28.90
   4  10  -8  858.01   27.50
  -3 -10   8   57.19    3.40
   3 -10  -8   63.39    4.80
   3  10  -8   62.69    4.80
  -3  10   8   57.79    4.50
   3  10  -8   62.59    3.40
   2 -10  -8  369.46   13.80
  -2 -10   8  345.87   11.90
   2  10  -8  355.06   13.80
  -2  10   8  351.56   13.50
   2  10  -8  359.26   11.80
   1 -10  -8   34.00    3.80
  -1 -10   8   30.10    2.00
  -1  10   8   27.90    3.40
   1  10  -8   30.00    3.70
   1  10  -8   30.40    2.90
   0 -10  -8   93.99    5.60
   0 -10   8   86.99    3.70
   0  10   8   84.29    5.20
   0  10  -8   91.09    5.60
   0  10  -8   90.29    3.40
   1 -10   8  147.79    5.20
   1 -10   8  150.38    5.10
  -1 -10  -8  143.29    7.30
   1  10   8  150.88    7.20
  -1  10  -8  139.69    7.30
   2 -10   8   34.70    1.90
  -2 -10  -8   32.10    3.90
  -2  10  -8   30.10    3.70
   2  10   8   27.50    3.40
  -3 -10  -8   83.59    5.60
   3 -10   8   91.69    4.00
   3 -10   8   89.59    3.80
   3  10   8   90.59    5.70
  -3  10  -8   91.29    5.60
   4 -10   8    6.90    1.30
   4 -10   8   13.90    2.00
  -4 -10  -8   10.80    2.80
  -4  10  -8    8.30    2.30
   4  10   8   11.30    3.00
   5 -10   8  185.58    7.90
   5 -10   8  180.28    7.60
  -5 -10  -8  190.28    8.90
  -5  10  -8  188.88    8.60
   5  10   8  183.68    9.20
   6 -10   8    2.30    1.80
   6 -10   8    1.80    1.50
  -6 -10  -8    4.00    2.50
  -6  10  -8   -0.10    1.60
   6  10   8   -0.10    2.20
   7 -10   8   15.20    2.80
  -7 -10  -8   15.50    3.20
  -7  10  -8   18.10    2.90
   7  10   8   11.90    3.30
   8 -10   8   29.50    4.10
  -8 -10  -8   29.10    4.00
  -8  10  -8   30.30    3.50
   8  10   8   33.00    5.20
   9 -10   8   40.40    5.00
  -9 -10  -8   40.00    4.40
  -9  10  -8   31.90    3.60
   9  10   8   40.00    5.60
  10 -11  -8   10.20    2.60
  10 -11  -8    0.70    3.10
  10  11  -8    4.20    3.10
  10  11  -8    1.60    2.30
   9 -11  -8   66.79    5.40
   9 -11  -8   80.19    6.90
   9  11  -8   62.79    5.20
   9  11  -8   77.39    6.40
   8 -11  -8    2.20    2.70
   8 -11  -8    3.10    2.30
   8  11  -8    3.00    2.50
   8  11  -8    3.60    2.40
   7 -11  -8   63.19    5.00
   7 -11  -8   50.49    5.80
   7  11  -8   58.79    5.10
   7  11  -8   54.59    4.80
   6 -11  -8    3.60    2.30
   6  11  -8    7.80    2.40
   6  11  -8    6.10    2.60
  -6  11   8    5.80    2.80
   5 -11  -8  136.79    7.40
   5  11  -8  131.99    7.40
  -5  11   8  125.99    7.50
   5  11  -8  141.79    6.60
   4 -11  -8   17.90    3.20
  -4 -11   8   19.50    2.60
   4  11  -8   23.10    2.70
  -4  11   8   15.20    3.40
   4  11  -8   19.00    3.20
  -3 -11   8  224.88    8.80
   3 -11  -8  255.67   10.50
   3  11  -8  237.68   10.40
  -3  11   8  222.78   10.10
   3  11  -8  233.18    8.70
  -2 -11   8    2.20    1.20
   2 -11  -8    3.10    2.10
   2  11  -8    3.10    1.20
   2  11  -8   -0.60    1.70
  -2  11   8    1.80    1.90
   1 -11  -8   60.39    4.80
  -1 -11   8   55.09    2.90
   1  11  -8   59.39    2.90
   1  11  -8   51.99    4.70
  -1  11   8   58.59    4.40
   0 -11  -8   32.40    4.10
   0 -11   8   26.40    1.80
   0  11  -8   26.70    3.80
   0  11   8   22.40    3.30
  -1 -11  -8   34.40    4.10
   1 -11   8   32.30    2.00
  -1  11  -8   33.90    4.10
   1  11   8   36.10    4.10
   2 -11   8  148.29    5.40
  -2 -11  -8  143.39    7.70
   2 -11   8  150.68    5.50
  -2  11  -8  139.79    7.50
   2  11   8  145.39    7.50
   3 -11   8   18.50    2.00
   3 -11   8   14.50    1.60
  -3 -11  -8   16.60    3.40
   3  11   8   13.90    2.90
  -3  11  -8   16.80    3.10
  -4 -11  -8  271.67   11.70
   4 -11   8  278.27    9.90
   4 -11   8  259.57    9.50
  -4  11  -8  278.77   11.50
   4  11   8  269.17   11.70
  -5 -11  -8   62.29    5.30
   5 -11   8   59.99    3.90
  -5  11  -8   57.19    4.70
   5  11   8   57.69    5.30
   6 -11   8   37.80    3.40
  -6 -11  -8   36.80    4.60
  -6  11  -8   41.20    3.90
   6  11   8   32.00    4.60
  -7 -11  -8    3.50    2.50
   7 -11   8    1.20    1.80
   7  11   8    2.50    2.70
  -7  11  -8    2.90    1.90
  -8 -11  -8  106.09    6.80
   8 -11   8  107.19    6.40
  -8  11  -8  107.29    6.10
   8  11   8  104.89    7.80
  -9 -11  -8   18.60    3.80
   9 -11   8   15.80    3.40
  -9  11  -8   14.30    2.90
   9  11   8   16.80    4.10
   9 -12  -8   -3.90    2.70
   9 -12  -8   -1.30    1.90
   9  12  -8    2.20    2.80
   9  12  -8   -3.80    2.10
   8 -12  -8   39.30    4.70
   8 -12  -8   40.90    5.80
   8  12  -8   36.20    4.70
   8  12  -8   54.89    5.30
   7 -12  -8   58.49    5.70
   7 -12  -8   47.80    4.70
   7  12  -8   54.09    4.90
   7  12  -8   50.09    5.30
   6 -12  -8   53.89    5.10
   6  12  -8   59.29    5.20
  -6  12   8   38.20    5.00
   6  12  -8   51.89    4.60
   5 -12  -8   11.30    2.80
  -5  12   8   14.00    3.40
   5  12  -8   12.90    3.20
   5  12  -8   11.70    2.40
   4 -12  -8  175.78    8.50
  -4 -12   8  138.29    6.90
   4  12  -8  155.48    8.40
  -4  12   8  153.68    8.30
   4  12  -8  176.98    7.10
   3 -12  -8   47.10    5.10
  -3 -12   8   50.59    3.40
   3  12  -8   55.29    3.40
   3  12  -8   54.29    4.90
  -3  12   8   48.30    4.60
   2 -12  -8  251.17   11.30
  -2 -12   8  261.97    9.50
   2  12  -8  265.27    9.20
  -2  12   8  247.78   11.00
   2  12  -8  265.27   11.50
  -1 -12   8    2.80    1.20
   1 -12  -8    0.40    2.20
   1  12  -8    3.70    2.10
  -1  12   8    5.70    2.30
   1  12  -8    1.80    1.20
   0 -12   8  208.68    7.40
   0 -12  -8  221.18   10.00
   0  12   8  202.38    9.40
   0  12  -8  207.98    9.80
   0  12  -8  206.38    7.40
  -1 -12  -8    3.20    2.30
   1 -12   8    2.00    1.00
   1 -12   8    3.00    1.20
   1  12   8    2.90    2.20
  -1  12  -8    7.60    2.60
   2 -12   8   88.29    3.90
   2 -12   8   80.39    3.70
  -2 -12  -8   86.09    6.00
  -2  12  -8   84.09    5.90
   2  12   8   88.09    5.80
   3 -12   8   39.30    2.70
   3 -12   8   35.10    2.40
  -3 -12  -8   35.20    4.70
  -3  12  -8   33.00    4.10
   3  12   8   45.40    5.10
   4 -12   8  112.59    5.30
   4 -12   8  112.69    5.00
  -4 -12  -8  124.09    7.30
   4  12   8  117.59    7.20
  -4  12  -8  123.29    7.00
   5 -12   8   27.30    2.60
   5 -12   8   32.80    3.40
  -5 -12  -8   40.00    5.00
  -5  12  -8   32.70    4.10
   5  12   8   37.90    4.80
  -6 -12  -8   11.60    3.40
   6 -12   8    7.40    2.20
  -6  12  -8   12.80    3.00
   7 -12   8   69.49    4.90
  -7 -12  -8   61.79    5.80
  -7  12  -8   69.39    5.20
   7  12   8   73.99    6.50
  -8 -12  -8   -0.10    2.40
   8 -12   8    2.10    2.10
  -8  12  -8    0.90    2.10
   8  12   8   -1.20    2.40
   9 -13  -8   23.00    3.90
   9 -13  -8   27.60    5.00
   9  13  -8   23.20    3.90
   9  13  -8   24.90    5.00
   8 -13  -8   13.20    4.10
   8 -13  -8   13.80    3.40
   8  13  -8   13.40    3.50
   8  13  -8   12.40    3.20
   7 -13  -8   26.50    4.10
   7  13  -8   31.20    4.20
   7  13  -8   23.80    4.20
   6 -13  -8    3.70    2.50
   6  13  -8    5.00    2.80
   6  13  -8    4.80    2.30
  -6  13   8    6.30    3.20
   5 -13  -8  136.19    7.90
  -5  13   8  136.59    8.20
   5  13  -8  143.99    7.00
   5  13  -8  133.19    8.00
   4 -13  -8    7.40    2.70
  -4 -13   8    1.80    2.00
   4  13  -8    0.40    1.60
   4  13  -8    0.20    2.40
  -4  13   8    7.70    2.80
   3 -13  -8  110.29    6.90
  -3 -13   8   88.99    5.10
   3  13  -8  109.19    6.90
  -3  13   8   95.69    6.50
   3  13  -8  105.99    5.10
  -2 -13   8    4.20    1.50
   2 -13  -8    1.40    2.60
   2  13  -8    6.80    1.60
   2  13  -8    8.80    2.90
  -2  13   8    7.20    2.90
   1 -13  -8   57.19    5.30
  -1 -13   8   48.40    3.10
  -1  13   8   54.69    4.80
   1  13  -8   54.49    5.10
   1  13  -8   51.49    3.20
   0 -13  -8  103.39    6.70
   0 -13   8   90.89    4.10
   0  13   8   90.99    5.90
   0  13  -8   89.39    4.10
   0  13  -8   90.59    6.40
   1 -13   8   49.99    2.90
  -1 -13  -8   58.69    5.40
   1  13   8   57.39    4.90
  -1  13  -8   61.49    5.20
   2 -13   8  168.98    6.30
   2 -13   8  153.58    6.00
  -2 -13  -8  158.38    8.60
   2  13   8  167.68    8.50
  -2  13  -8  144.29    8.30
   3 -13   8   30.90    2.70
  -3 -13  -8   33.90    4.80
   3 -13   8   30.50    2.40
  -3  13  -8   29.00    4.20
   3  13   8   32.40    4.40
  -4 -13  -8   98.49    6.80
   4 -13   8   90.89    4.50
   4 -13   8   97.19    4.80
   4  13   8   94.09    6.70
  -4  13  -8   94.49    6.40
   5 -13   8   12.30    2.30
  -5 -13  -8   17.40    3.80
   5 -13   8    6.40    1.70
  -5  13  -8   13.90    3.20
   5  13   8   16.20    3.90
   6 -13   8   11.90    2.50
  -6 -13  -8    8.30    3.40
  -6  13  -8    9.60    2.80
   6  13   8    6.90    3.30
   7 -13   8    3.10    2.00
  -7 -13  -8   -0.10    2.60
  -7  13  -8   -0.60    2.20
   7  13   8    1.70    2.70
   8 -13   8   23.90    3.80
  -8 -13  -8   30.50    4.80
   8  13   8   26.50    4.90
  -8  13  -8   26.20    4.10
   8 -14  -8    7.50    3.30
   8 -14  -8    4.50    3.10
   8  14  -8   12.10    3.40
   8  14  -8    6.40    3.00
   7 -14  -8   -0.80    2.30
   7 -14  -8    1.40    2.60
   7  14  -8    1.80    2.40
   7  14  -8   -1.00    2.60
   6 -14  -8   24.00    4.10
  -6  14   8   20.60    4.50
   6  14  -8   26.20    4.60
   6  14  -8   24.50    3.60
   5 -14  -8    3.80    2.80
   5  14  -8    3.80    2.20
  -5  14   8    2.30    2.60
   5  14  -8    1.40    2.80
   4 -14  -8   56.89    5.50
   4  14  -8   52.29    4.00
   4  14  -8   52.59    5.80
  -4  14   8   47.80    5.50
   3 -14  -8   10.70    3.30
  -3 -14   8    8.90    2.20
  -3  14   8    8.60    3.00
   3  14  -8   15.40    3.60
   3  14  -8    8.90    2.10
   2 -14  -8   39.10    5.00
  -2 -14   8   33.10    3.00
   2  14  -8   39.40    5.00
  -2  14   8   45.00    5.20
   2  14  -8   35.30    2.90
  -1 -14   8    7.00    1.70
   1 -14  -8    3.70    2.80
   1  14  -8    6.30    2.80
   1  14  -8    6.80    1.70
  -1  14   8    3.10    2.40
   0 -14   8   29.10    2.50
   0 -14  -8   37.80    4.80
   0  14  -8   38.80    2.70
   0  14  -8   32.90    4.50
   0  14   8   37.40    4.70
   1 -14   8   47.60    3.00
  -1 -14  -8   55.49    5.90
   1  14   8   55.79    5.10
  -1  14  -8   55.99    5.30
   2 -14   8   35.20    2.60
   2 -14   8   40.50    3.00
  -2 -14  -8   38.00    5.10
  -2  14  -8   35.80    4.60
   2  14   8   40.20    4.80
   3 -14   8   47.70    3.20
   3 -14   8   40.50    2.90
  -3 -14  -8   43.00    5.50
   3  14   8   42.30    5.00
  -3  14  -8   45.60    5.10
   4 -14   8   40.50    3.30
  -4 -14  -8   45.20    5.50
   4 -14   8   39.30    3.20
  -4  14  -8   49.30    5.40
   4  14   8   52.79    5.90
   5 -14   8   13.60    2.50
  -5 -14  -8   14.60    3.80
   5  14   8   10.00    3.40
  -5  14  -8   17.50    3.60
  -6 -14  -8    4.60    3.30
   6  14   8   -0.20    2.70
  -6  14  -8   -0.50    2.00
  -7 -14  -8    3.60    3.20
   7 -14   8   -0.40    1.70
   7  14   8   -3.30    2.50
  -7  14  -8    1.70    2.50
   7 -15  -8    3.80    3.10
   7 -15  -8    1.00    4.20
   7  15  -8   -2.50    2.20
   7  15  -8   -1.40    2.40
   6 -15  -8    3.50    3.40
   6  15  -8   -2.60    3.30
  -6  15   8    2.50    3.00
   6  15  -8    0.50    2.30
   5 -15  -8   65.39    6.00
  -5  15   8   48.90    6.90
   5  15  -8   59.29    4.60
   5  15  -8   54.99    8.90
   4 -15  -8   16.80    3.90
  -4  15   8   11.60    3.40
   4  15  -8   14.00    3.70
   3 -15  -8   22.80    4.30
  -3 -15   8   13.00    3.10
   3  15  -8   14.80    3.80
   3  15  -8   17.20    2.50
  -3  15   8   14.00    3.40
  -2 -15   8   -0.30    1.50
   2 -15  -8   -1.60    2.60
   2  15  -8   -2.00    2.30
   2  15  -8    1.00    1.50
  -2  15   8    4.50    2.90
   1 -15  -8   21.80    4.30
  -1 -15   8   16.80    2.40
   1  15  -8   22.40    4.40
   1  15  -8   23.30    2.60
  -1  15   8   24.70    4.10
   0 -15  -8   -2.50    2.50
   0 -15   8    1.00    1.40
   0  15  -8   -1.40    1.20
   0  15   8    0.90    2.50
   0  15  -8   -0.80    2.50
   1 -15   8   10.90    1.90
  -1 -15  -8   12.30    3.70
  -1  15  -8   13.20    3.60
   1  15   8    9.40    3.10
  -2 -15  -8   38.10    5.40
   2 -15   8   55.69    3.50
   2 -15   8   43.60    3.10
  -2  15  -8   61.49    5.70
   2  15   8   53.09    5.90
   3 -15   8   23.40    2.60
  -3 -15  -8   31.50    5.10
   3 -15   8   14.40    2.10
   3  15   8   18.10    4.50
  -3  15  -8   26.20    4.60
  -4 -15  -8    1.10    3.40
   4 -15   8    0.50    1.60
   4  15   8    1.80    2.90
  -4  15  -8   -2.30    2.10
  -5 -15  -8   22.90    6.10
   5 -15   8   23.60    2.90
   5  15   8   24.80    4.50
  -5  15  -8   22.00    4.70
   6 -15   8   -2.00    1.80
  -6 -15  -8    6.50    3.40
   6  15   8    1.00    2.70
   6 -16  -8    3.20    2.90
   6  16  -8    5.30    2.60
  -6  16   8    1.00    2.90
   6  16  -8    3.90    3.30
   5 -16  -8    9.80    3.70
   5  16  -8   10.40    4.10
   5  16  -8    9.40    2.70
  -5  16   8   15.10    4.10
   4 -16  -8    1.60    2.80
   4  16  -8    5.60    3.10
  -4  16   8   -0.50    3.30
   4  16  -8    5.60    2.20
   3 -16  -8   12.50    4.00
   3  16  -8   14.10    2.60
  -3  16   8   13.70    3.90
   3  16  -8   13.90    3.90
   2 -16  -8    9.70    4.00
  -2 -16   8    5.30    2.10
   2  16  -8    7.10    2.00
  -2  16   8   12.60    3.60
   2  16  -8    8.40    3.60
   1 -16  -8    2.00    2.90
  -1  16   8    1.60    2.70
   1  16  -8    1.50    1.60
   1  16  -8    1.80    3.10
   0 -16  -8    2.40    3.10
   0 -16   8    4.30    1.70
   0  16   8    4.70    2.80
   0  16  -8    3.60    2.90
   0  16  -8    5.20    1.80
   1 -16   8    1.60    1.50
  -1 -16  -8    3.40    3.40
  -1  16  -8    4.10    3.00
   1  16   8   -5.10    2.30
   2 -16   8    1.20    1.60
  -2 -16  -8    2.80    3.10
   2  16   8   -0.20    2.90
  -2  16  -8    2.20    2.80
  -3 -16  -8    1.90    3.30
   3 -16   8    1.50    1.60
   3  16   8    1.60    2.70
  -3  16  -8    4.40    3.10
  -4 -16  -8   14.70    4.30
   4 -16   8    5.30    2.00
  -4  16  -8    9.90    3.50
   4  16   8    7.60    3.50
  -5 -16  -8   -1.90    2.70
   5 -16   8   -0.40    1.60
   5  16   8   -1.60    2.90
  -5  16  -8   -0.70    2.60
   5 -17  -8    0.50    3.00
   5  17  -8   -0.20    3.10
  -5  17   8    3.20    3.40
   5  17  -8    1.60    2.20
   4 -17  -8    1.50    3.00
   4  17  -8   -0.60    1.90
   4  17  -8    1.40    2.90
  -4  17   8   -0.20    2.90
   3 -17  -8   13.50    3.90
   3  17  -8   15.70    4.40
   3  17  -8   19.20    4.40
  -3  17   8   23.10    4.50
   2 -17  -8    2.30    3.30
  -2  17   8    9.60    3.70
   2  17  -8   -0.50    2.90
   2  17  -8    2.50    1.90
   1 -17  -8   -1.30    3.20
   1  17  -8   -1.30    2.90
   1  17  -8    2.60    1.80
  -1  17   8    4.60    3.20
   0 -17  -8   21.10    5.00
   0  17  -8   15.70    2.40
   0  17   8   13.00    3.80
   0  17  -8   21.10    4.40
  -1 -17  -8    1.40    3.00
   1 -17   8    1.90    1.80
   1  17   8   -1.00    3.00
  -1  17  -8    3.90    3.00
   2 -17   8   29.50    3.00
  -2 -17  -8   31.20    5.40
   2  17   8   21.20    4.20
  -2  17  -8   31.50    5.00
  -3 -17  -8    0.20    3.30
   3 -17   8    1.50    1.70
   3  17   8   -2.70    2.60
  -3  17  -8   -4.00    2.50
   4 -17   8    7.20    2.10
  -4 -17  -8    8.40    4.10
  -4  17  -8    3.40    3.00
   4  17   8    6.90    3.50
   4 -18  -8    0.50    3.20
   4  18  -8   -1.80    2.10
  -4  18   8    3.50    3.30
   3 -18  -8    1.00    3.20
  -3  18   8   -1.60    3.00
   3  18  -8    0.00    1.80
   3  18  -8   -1.70    3.30
   2 -18  -8    0.90    3.50
   2  18  -8   -0.70    3.10
   2  18  -8    3.00    2.00
  -2  18   8    2.50    3.20
   1 -18  -8   18.10    4.80
   1  18  -8   15.10    4.70
  -1  18   8   14.00    4.40
   1  18  -8   15.30    2.60
   0 -18  -8    8.10    4.10
   0  18  -8    8.80    3.80
   0  18  -8    7.80    2.10
   0  18   8    9.30    3.50
  -1 -18  -8    3.60    3.40
   1 -18   8    6.60    2.10
   1  18   8    8.30    3.70
  -1  18  -8   12.20    4.00
   2 -18   8    1.80    1.80
  -2 -18  -8    0.50    3.60
   2  18   8    3.20    3.30
  -2  18  -8   -0.50    3.00
  12   0  -9   -3.10    2.60
  11   0  -9   -0.90    2.90
  10   0  -9    4.20    2.90
  -9   0   9   -1.90    1.00
   9   0  -9   -1.30    1.10
   9   0  -9    1.50    2.20
   8   0  -9    0.00    2.00
  -8   0   9   -1.30    0.90
   8   0  -9    0.40    1.20
  -7   0   9    1.10    1.10
   7   0  -9    1.70    1.70
   7   0  -9    2.20    1.30
  -6   0   9    0.90    1.10
   6   0  -9   -0.10    1.10
   6   0  -9    2.10    1.50
   5   0  -9    1.40    1.20
   5   0  -9    0.40    1.20
  -5   0   9   -0.90    0.90
   5   0  -9    0.80    1.30
   4   0  -9   -0.30    0.90
  -4   0   9    0.10    0.90
   4   0  -9   -0.40    1.00
   4   0  -9    1.30    1.00
   3   0  -9    0.20    1.00
   3   0  -9    0.50    0.80
  -3   0   9   -0.30    0.80
   3   0  -9    1.30    0.90
  -2   0   9    2.00    1.10
   2   0  -9    3.20    1.30
  -2   0   9    1.80    0.90
   2   0  -9    3.30    0.90
   1   0  -9    0.50    0.70
   1   0  -9    0.50    1.00
  -1   0   9   -0.10    0.90
  -1   0   9    0.00    0.70
   0   0  -9    2.20    1.10
   0   0   9    0.40    0.90
   0   0  -9    2.30    0.80
   0   0   9    2.10    0.80
  -1   0  -9    1.10    1.10
   1   0   9    1.30    0.70
  -1   0  -9   -0.50    0.70
   1   0   9   -0.40    0.80
   2   0   9   -0.30    0.60
  -2   0  -9   -0.50    1.00
  -2   0  -9    0.00    0.70
   2   0   9    0.80    0.90
   3   0   9    0.10    0.90
  -3   0  -9   -0.90    0.90
  -3   0  -9    0.40    0.80
   3   0   9   -0.40    0.70
  -4   0  -9    0.80    1.00
  -4   0  -9    0.90    1.20
   4   0   9    0.80    0.90
   4   0   9    0.30    1.00
  -5   0  -9   -0.10    0.90
  -5   0  -9    0.20    1.00
   5   0   9    1.10    0.90
   5   0   9   -1.10    1.00
  -6   0  -9   -1.60    1.00
   6   0   9   -0.80    0.80
   7   0   9    1.40    1.60
  -7   0  -9    0.20    1.00
   7   0   9    0.20    0.90
   8   0   9    0.90    0.80
  -8   0  -9   -0.70    0.90
   8   0   9    0.10    1.70
   9   0   9    0.00    2.10
  11   0   9   -0.20    2.40
  12  -1  -9    2.00    3.20
  12   1  -9    4.20    3.20
  11  -1  -9    1.70    2.70
  11   1  -9    5.00    3.20
 -10  -1   9   22.70    2.00
  10  -1  -9   34.90    5.10
  10   1  -9   26.40    4.60
  10   1  -9   20.10    2.00
   9  -1  -9    2.00    2.10
   9  -1  -9    0.80    1.10
  -9  -1   9    0.90    1.20
   9   1  -9    2.70    2.30
   9   1  -9    0.80    1.20
  -9   1   9   -1.70    1.20
   8  -1  -9   -2.10    1.10
  -8  -1   9    1.80    1.20
   8  -1  -9    0.60    2.00
   8   1  -9    0.20    1.20
  -8   1   9   -0.20    1.00
   8   1  -9   -1.80    1.70
  -7  -1   9   19.40    2.30
   7  -1  -9   17.30    2.20
   7  -1  -9   20.20    3.20
   7   1  -9   18.00    2.30
   7   1  -9   20.40    3.10
  -7   1   9   16.80    2.10
  -6  -1   9    1.00    1.10
   6  -1  -9    0.30    1.40
   6  -1  -9    2.50    1.30
  -6   1   9   -0.40    1.00
   6   1  -9   -1.10    1.10
   6   1  -9    2.20    1.30
   5  -1  -9   23.30    2.60
   5  -1  -9   26.30    3.00
   5  -1  -9   28.60    2.60
  -5  -1   9   27.90    2.40
  -5   1   9   26.00    2.30
   5   1  -9   27.80    2.60
   5   1  -9   30.90    2.80
   5   1  -9   29.80    2.60
   4  -1  -9    1.30    1.00
   4  -1  -9    1.10    1.10
   4  -1  -9    2.50    1.20
  -4  -1   9    1.70    1.00
   4   1  -9    0.90    1.20
   4   1  -9    1.20    1.10
  -4   1   9    2.00    1.10
   4   1  -9    1.10    1.00
   3  -1  -9   67.59    3.50
   3  -1  -9   69.29    3.90
  -3  -1   9   75.39    3.80
  -3   1   9   63.99    3.60
   3   1  -9   72.09    3.40
  -3   1   9   72.39    3.80
   3   1  -9   72.29    4.00
   3   1  -9   72.79    3.50
   2  -1  -9   52.09    2.80
   2  -1  -9   54.19    3.40
  -2  -1   9   53.19    2.70
  -2  -1   9   50.39    3.10
   2   1  -9   55.19    3.40
  -2   1   9   51.59    2.90
   2   1  -9   50.39    2.60
  -2   1   9   55.49    3.20
  -1  -1   9    6.40    1.10
   1  -1  -9    7.70    1.30
  -1  -1   9    7.20    1.40
   1  -1  -9    5.40    1.60
  -1   1   9    6.50    1.50
  -1   1   9    6.50    1.20
   1   1  -9    7.80    1.10
   1   1  -9    4.50    1.40
   0  -1  -9   32.00    2.60
   0  -1  -9   36.60    2.20
   0  -1   9   38.60    2.60
   0  -1   9   35.90    2.10
   0   1  -9   36.10    1.90
   0   1   9   32.20    2.10
   0   1  -9   36.80    2.80
   0   1   9   36.30    2.60
  -1  -1  -9    8.60    1.40
   1  -1   9   11.50    1.30
   1  -1   9    7.20    1.50
  -1  -1  -9    9.10    1.70
   1   1   9    8.70    1.60
  -1   1  -9    8.20    1.70
   1   1   9    6.60    1.30
  -1   1  -9   12.10    1.50
   2  -1   9   19.20    2.20
  -2  -1  -9   20.20    2.40
   2  -1   9   19.50    1.90
  -2  -1  -9   18.50    2.10
  -2   1  -9   19.60    1.90
   2   1   9   15.10    1.90
  -2   1  -9   14.10    2.10
   2   1   9   21.40    2.40
  -3  -1  -9  161.08    6.60
   3  -1   9  163.28    6.50
  -3  -1  -9  158.08    6.60
   3  -1   9  171.68    6.40
   3   1   9  160.48    6.60
   3   1   9  158.38    6.50
  -3   1  -9  157.48    6.60
  -3   1  -9  160.08    6.30
   4  -1   9    1.80    1.00
   4  -1   9    3.70    1.40
  -4  -1  -9    4.20    1.30
  -4  -1  -9    0.40    1.00
   4   1   9    4.40    1.40
   4   1   9    2.00    0.90
  -4   1  -9    2.90    1.20
  -4   1  -9    2.90    1.20
   5  -1   9  128.99    5.60
  -5  -1  -9  130.29    5.70
   5  -1   9  129.49    6.10
   5   1   9  131.39    6.30
  -5   1  -9  139.39    6.20
  -5   1  -9  136.49    5.80
   5   1   9  130.79    5.50
  -6  -1  -9   89.19    4.30
   6  -1   9   86.99    4.10
   6  -1   9   87.49    5.10
   6   1   9   85.59    4.10
   6   1   9   81.99    5.20
  -6   1  -9   85.79    4.30
   7  -1   9   98.19    4.40
   7  -1   9  102.59    5.90
  -7  -1  -9  102.49    4.70
  -7   1  -9  103.59    4.60
   7   1   9   99.69    6.00
   7   1   9   98.99    4.40
   8  -1   9    6.70    1.20
   8  -1   9   12.10    3.00
  -8  -1  -9    8.50    1.50
   8   1   9    5.90    2.20
  -8   1  -9    7.80    1.40
   9  -1   9    6.90    2.60
   9   1   9    9.50    2.70
  10  -1   9    0.40    2.20
  10   1   9    0.40    2.30
  11  -1   9    1.70    2.20
  11   1   9    1.90    2.70
  12  -2  -9    6.30    3.50
  12   2  -9    5.80    3.50
  11  -2  -9   32.00    5.10
  11   2  -9   34.10    5.10
  10  -2  -9   66.39    6.00
  10  -2  -9   61.49    3.20
  10  -2  -9   53.59    2.90
 -10  -2   9   60.39    3.10
  10   2  -9   60.69    3.10
  10   2  -9   65.89    6.10
   9  -2  -9  204.78    9.90
  -9  -2   9  185.98    7.30
   9  -2  -9  192.98    7.30
   9   2  -9  191.38    7.40
   9   2  -9  198.58    9.90
  -8  -2   9   36.10    2.80
   8  -2  -9   38.50    4.60
   8  -2  -9   39.30    3.00
  -8   2   9   38.60    2.70
   8   2  -9   45.70    5.00
   8   2  -9   35.30    2.80
   7  -2  -9   97.79    4.70
  -7  -2   9   81.59    4.30
   7  -2  -9   94.79    5.70
  -7   2   9   83.59    4.20
   7   2  -9   81.99    5.40
   7   2  -9   80.79    4.40
   6  -2  -9  154.48    7.10
  -6  -2   9  130.49    6.60
  -6  -2   9  150.28    6.20
   6  -2  -9  146.19    6.30
  -6   2   9  146.59    6.00
   6   2  -9  142.29    6.20
   6   2  -9  143.29    6.80
   5  -2  -9    5.60    1.60
  -5  -2   9    9.40    1.80
   5  -2  -9    8.50    1.90
   5  -2  -9    7.60    2.00
   5   2  -9   10.20    2.00
   5   2  -9    7.10    1.70
  -5   2   9    7.30    1.50
   5   2  -9   10.20    2.00
   4  -2  -9   53.39    3.40
   4  -2  -9   47.90    3.30
  -4  -2   9   48.70    3.20
  -4   2   9   53.89    3.10
   4   2  -9   55.49    3.40
   4   2  -9   51.19    3.20
   4   2  -9   50.09    3.00
   3  -2  -9   49.60    3.20
   3  -2  -9   45.60    2.80
  -3  -2   9   47.00    3.10
   3   2  -9   47.30    2.60
  -3   2   9   49.40    3.00
   3   2  -9   45.70    3.20
  -3   2   9   46.20    3.00
   3   2  -9   48.30    2.70
   2  -2  -9 1176.58   36.30
  -2  -2   9 1164.98   36.70
   2  -2  -9 1171.08   36.70
  -2   2   9 1171.78   36.30
   2   2  -9 1181.88   35.70
   2   2  -9 1171.08   36.80
   2   2  -9 1168.38   35.80
  -2   2   9 1171.68   36.60
   1  -2  -9    3.20    0.90
   1  -2  -9    0.60    1.00
  -1  -2   9    1.70    0.70
  -1  -2   9    2.90    1.20
  -1   2   9    3.00    1.00
   1   2  -9    2.50    1.30
  -1   2   9    2.50    1.00
   1   2  -9    3.30    0.80
   0  -2  -9  619.54   19.80
   0  -2   9  628.94   19.00
   0  -2   9  598.84   20.30
   0  -2  -9  620.04   20.30
   0   2   9  611.14   20.20
   0   2  -9  627.44   19.00
   0   2   9  616.94   19.70
   0   2  -9  625.44   20.40
  -1  -2  -9   14.60    2.00
   1  -2   9   12.70    1.90
   1  -2   9   10.90    1.10
  -1  -2  -9   11.80    1.70
  -1   2  -9   13.40    2.00
   1   2   9   15.20    1.80
   1   2   9   13.60    1.90
  -2  -2  -9   23.10    2.50
   2  -2   9   21.80    2.50
  -2  -2  -9   13.70    2.10
   2  -2   9   16.60    1.70
  -2   2  -9   16.40    2.20
   2   2   9   18.00    2.20
   2   2   9   15.10    2.00
  -2   2  -9   15.20    1.60
  -3  -2  -9   20.70    2.50
   3  -2   9   19.30    1.80
  -3  -2  -9   24.30    2.60
   3  -2   9   22.60    2.50
   3   2   9   23.70    2.50
   3   2   9   27.90    2.90
  -3   2  -9   20.30    1.80
  -3   2  -9   24.80    2.70
   4  -2   9  230.98    8.60
   4  -2   9  226.58    8.60
  -4  -2  -9  216.08    9.00
  -4  -2  -9  229.18    8.70
   4   2   9  226.68    8.50
  -4   2  -9  237.58    8.70
  -4   2  -9  219.18    8.50
   4   2   9  231.08    9.10
   5  -2   9  237.58    8.80
  -5  -2  -9  244.98    9.00
   5  -2   9  238.18    9.30
  -5   2  -9  220.88    9.00
   5   2   9  233.28    9.70
   5   2   9  245.18    8.80
  -5   2  -9  239.88    9.00
  -6  -2  -9  142.79    6.10
   6  -2   9  135.29    5.80
   6  -2   9  145.49    6.80
   6   2   9  139.19    5.80
  -6   2  -9  148.49    6.00
   6   2   9  135.09    6.90
   7  -2   9   78.19    5.20
   7  -2   9   79.09    3.80
  -7  -2  -9   81.59    4.20
   7   2   9   78.19    3.80
  -7   2  -9   81.39    4.00
   7   2   9   76.99    5.30
   8  -2   9    4.00    1.10
  -8  -2  -9    2.70    1.20
  -8  -2  -9    1.60    1.00
   8  -2   9    5.20    2.10
   8   2   9    2.40    2.10
  -8   2  -9    5.00    1.20
   9  -2   9   52.19    4.80
   9   2   9   55.79    5.20
  10  -2   9   23.00    4.00
  10   2   9   31.00    4.60
  11  -2   9   16.70    3.70
  11   2   9   11.40    3.60
  12  -3  -9   14.20    4.50
  12   3  -9   16.10    4.20
  11  -3  -9    4.60    3.00
  11   3  -9    6.40    3.40
  10  -3  -9   45.50    2.80
 -10  -3   9   47.60    3.00
  10  -3  -9   48.30    2.70
  10  -3  -9   57.09    6.30
  10   3  -9   58.99    5.70
  10   3  -9   49.80    3.00
   9  -3  -9   12.30    1.90
  -9  -3   9    8.50    2.00
   9  -3  -9   13.60    3.60
   9   3  -9   10.40    3.00
   9   3  -9    6.50    1.80
   8  -3  -9   50.19    3.50
   8  -3  -9   49.50    4.80
  -8  -3   9   52.39    3.40
  -8   3   9   52.89    3.30
   8   3  -9   60.79    3.60
   8   3  -9   60.99    5.00
   7  -3  -9   56.49    4.70
  -7  -3   9   61.79    3.70
   7  -3  -9   66.59    3.90
   7   3  -9   63.39    3.80
   7   3  -9   57.59    4.60
  -7   3   9   57.89    3.40
  -6  -3   9   47.60    3.30
  -6  -3   9   42.00    3.40
   6  -3  -9   49.10    3.40
   6   3  -9   47.10    3.40
  -6   3   9   51.09    3.20
   6   3  -9   56.99    4.00
   5  -3  -9  259.47    9.60
   5  -3  -9  250.97   10.00
  -5  -3   9  251.77    9.60
   5  -3  -9  258.17   10.60
  -5   3   9  256.07    9.40
   5   3  -9  255.17    9.60
   5   3  -9  246.08    9.70
   4  -3  -9  163.18    6.70
   4  -3  -9  150.68    6.60
  -4  -3   9  160.28    6.60
  -4  -3   9  156.58    6.20
  -4   3   9  154.68    6.80
   4   3  -9  154.58    6.70
  -4   3   9  151.78    6.40
   4   3  -9  155.58    6.30
  -3  -3   9   55.49    3.50
   3  -3  -9   59.89    3.30
   3  -3  -9   54.29    3.50
   3   3  -9   53.19    3.50
  -3   3   9   58.89    3.60
  -3   3   9   55.19    3.30
   3   3  -9   56.59    3.00
   3   3  -9   57.29    2.90
  -2  -3   9    0.40    1.10
   2  -3  -9    1.90    1.10
   2  -3  -9    2.20    1.30
   2   3  -9    2.70    1.40
  -2   3   9    3.20    1.20
  -2   3   9    3.20    1.20
   2   3  -9   -1.20    1.10
   2   3  -9    1.70    0.80
   1  -3  -9  318.97   11.60
  -1  -3   9  322.67   11.70
   1  -3  -9  333.47   11.20
   1   3  -9  334.87   10.20
   1   3  -9  320.57   10.20
  -1   3   9  320.27   11.20
  -1   3   9  317.77   11.50
   1   3  -9  335.17   11.80
   0  -3   9  201.08    6.30
   0  -3   9  195.78    7.90
   0  -3  -9  196.48    7.50
   0  -3  -9  184.48    7.70
   0   3  -9  207.38    6.30
   0   3   9  195.68    7.70
   0   3  -9  203.68    8.00
   0   3   9  201.88    7.40
  -1  -3  -9   21.20    2.30
  -1  -3  -9   27.60    2.80
   1  -3   9   17.80    1.10
   1  -3   9   15.80    2.20
  -1   3  -9   22.10    2.50
   1   3   9   19.30    2.20
  -1   3  -9   19.00    1.20
   1   3   9   24.80    2.50
  -2  -3  -9    5.70    1.50
   2  -3   9    3.20    1.30
  -2  -3  -9    4.30    1.40
  -2   3  -9    5.60    1.00
   2   3   9    2.80    1.10
  -2   3  -9    4.50    1.40
   2   3   9    4.90    1.30
   3  -3   9  200.68    7.30
  -3  -3  -9  200.68    8.00
   3  -3   9  191.48    7.80
  -3  -3  -9  200.68    8.10
  -3   3  -9  199.38    7.20
   3   3   9  202.08    8.00
  -3   3  -9  204.08    8.00
   3   3   9  202.38    7.80
  -4  -3  -9    1.70    1.10
   4  -3   9    4.00    1.30
   4  -3   9    3.50    1.20
  -4  -3  -9    3.80    1.40
  -4   3  -9    2.70    1.10
  -4   3  -9    4.00    1.50
   4   3   9    3.70    1.20
   4   3   9    4.30    1.60
   5  -3   9   28.40    2.40
   5  -3   9   34.40    2.80
  -5  -3  -9   28.80    2.70
   5   3   9   25.60    2.30
  -5   3  -9   34.60    3.70
  -5   3  -9   29.60    2.60
   6  -3   9   51.19    3.80
   6  -3   9   45.50    3.00
  -6  -3  -9   50.89    3.40
   6   3   9   50.19    3.10
   6   3   9   52.69    4.20
  -6   3  -9   49.40    3.20
  -7  -3  -9  277.97   10.30
   7  -3   9  281.37   11.40
   7  -3   9  273.97   10.00
   7   3   9  286.17   12.00
  -7   3  -9  281.87   10.00
  -8  -3  -9    9.00    1.80
   8  -3   9   10.80    2.80
  -8  -3  -9    7.20    1.40
   8  -3   9    6.40    1.20
   8   3   9    8.00    2.60
  -8   3  -9    6.20    1.30
   9  -3   9   19.10    3.60
  -9  -3  -9    9.60    1.30
   9   3   9   13.50    3.30
  10  -3   9   27.50    4.70
  10   3   9   26.20    4.50
  11  -3   9    4.70    2.80
  11   3   9    4.50    2.90
  12  -4  -9    6.50    3.70
  12   4  -9    2.90    3.20
  11  -4  -9   30.10    5.10
  11   4  -9   37.20    5.90
 -10  -4   9    2.40    1.40
  10  -4  -9   -0.10    1.10
  10  -4  -9    3.40    2.70
  10  -4  -9    1.50    1.30
  10   4  -9    3.00    2.70
  10   4  -9    1.50    1.40
  -9  -4   9  104.59    5.10
   9  -4  -9  110.39    7.20
   9  -4  -9   96.09    4.90
   9  -4  -9   98.59    4.80
   9   4  -9  116.59    7.20
   9   4  -9  106.99    5.00
   8  -4  -9   47.80    3.40
  -8  -4   9   39.60    3.20
   8  -4  -9   49.30    5.40
   8   4  -9   39.50    3.20
   8   4  -9   43.80    4.90
   7  -4  -9  362.56   12.80
   7  -4  -9  372.66   14.10
  -7  -4   9  345.57   13.20
   7   4  -9  368.96   13.90
   7   4  -9  352.06   12.70
  -7   4   9  333.97   12.40
  -6  -4   9   67.29    4.50
  -6  -4   9   56.59    3.90
   6  -4  -9   64.39    4.00
   6  -4  -9   71.39    4.70
   6   4  -9   63.49    4.30
  -6   4   9   65.39    3.70
   6   4  -9   67.59    4.10
   5  -4  -9  119.29    6.00
  -5  -4   9  128.89    7.60
   5  -4  -9  123.29    5.70
  -5  -4   9  117.29    5.70
  -5   4   9  125.19    5.40
   5   4  -9  119.29    5.70
   5   4  -9  110.89    5.60
   4  -4  -9  170.58    7.20
  -4  -4   9  169.18    6.70
   4  -4  -9  171.18    7.20
  -4  -4   9  176.88    7.40
   4   4  -9  173.88    6.90
   4   4  -9  170.88    7.30
  -4   4   9  175.28    7.50
  -4   4   9  177.78    7.10
   3  -4  -9  151.08    6.70
  -3  -4   9  155.48    6.80
   3  -4  -9  153.68    6.50
  -3   4   9  163.88    6.60
   3   4  -9  167.98    6.10
  -3   4   9  151.38    6.70
   3   4  -9  161.48    6.90
   2  -4  -9 1212.98   37.90
  -2  -4   9 1200.68   38.30
   2  -4  -9 1251.37   38.30
   2   4  -9 1190.98   36.90
   2   4  -9 1209.28   38.40
  -2   4   9 1225.58   38.00
   2   4  -9 1224.18   37.20
  -2   4   9 1219.98   38.10
  -1  -4   9  398.46   14.10
   1  -4  -9  414.46   14.10
   1  -4  -9  385.46   13.60
   1   4  -9  397.46   12.30
   1   4  -9  410.06   12.20
   1   4  -9  400.76   14.10
  -1   4   9  395.86   13.60
  -1   4   9  405.66   13.90
   0  -4   9  701.03   23.10
   0  -4  -9  710.53   23.10
   0  -4  -9  688.53   22.70
   0   4   9  696.23   22.90
   0   4  -9  708.83   23.20
   0   4   9  727.23   22.70
  -1  -4  -9  121.79    5.50
  -1  -4  -9  123.39    5.70
   1  -4   9  122.59    5.70
   1  -4   9  124.49    4.00
   1   4   9  132.19    5.60
  -1   4  -9  118.99    4.00
  -1   4  -9  134.29    5.90
   1   4   9  119.69    5.40
   2  -4   9   37.50    1.80
  -2  -4  -9   34.10    2.70
   2  -4   9   37.80    2.80
  -2  -4  -9   34.50    2.80
  -2   4  -9   31.00    2.80
  -2   4  -9   32.50    2.10
   2   4   9   29.80    2.50
   2   4   9   35.60    2.70
  -3  -4  -9    4.10    1.60
  -3  -4  -9    6.80    1.80
   3  -4   9    6.70    1.20
   3  -4   9    5.10    1.40
   3   4   9    5.30    1.60
   3   4   9    6.00    1.40
  -3   4  -9    6.30    1.10
  -3   4  -9    2.40    1.40
   4  -4   9  202.88    7.60
  -4  -4  -9  197.78    8.00
   4  -4   9  201.78    8.00
   4   4   9  192.08    8.30
   4   4   9  191.48    7.70
  -4   4  -9  193.98    7.40
  -4   4  -9  201.78    8.00
   5  -4   9  168.28    7.00
  -5  -4  -9  169.58    7.10
   5  -4   9  162.48    6.90
   5   4   9  165.58    7.70
   5   4   9  167.18    6.80
  -5   4  -9  156.68    7.30
  -5   4  -9  170.18    7.00
  -6  -4  -9    1.60    1.50
   6  -4   9    4.90    1.80
   6  -4   9    0.90    1.10
  -6   4  -9    4.30    1.50
   6   4   9    4.90    2.00
  -6   4  -9    2.70    1.40
   6   4   9    2.00    1.20
  -7  -4  -9  199.88    8.00
  -7  -4  -9  193.58    7.70
   7  -4   9  189.58    7.70
   7  -4   9  199.98    8.90
  -7   4  -9  203.78    7.70
   7   4   9  202.48    9.50
   8  -4   9   56.39    4.60
  -8  -4  -9   52.99    3.50
   8  -4   9   47.90    3.00
  -8  -4  -9   48.30    3.00
   8   4   9   53.19    4.80
  -8   4  -9   55.79    3.10
   9  -4   9   87.69    6.10
   9  -4   9   89.29    3.80
  -9  -4  -9   86.09    4.00
  -9  -4  -9   99.29    4.30
  -9   4  -9   90.69    4.20
   9   4   9  110.99    7.10
  10  -4   9   -0.90    1.70
  10   4   9    3.90    2.60
  11  -4   9   51.69    6.10
  11   4   9   43.80    5.80
  12  -5  -9   27.20    5.40
  12   5  -9   32.50    5.70
  11  -5  -9    1.90    3.20
 -11  -5   9    0.00    1.40
  11   5  -9    3.00    2.90
  11   5  -9   -0.70    1.10
  10  -5  -9  124.89    5.90
  10  -5  -9  142.99    6.10
  10  -5  -9  149.39    9.00
 -10  -5   9  142.79    6.30
  10   5  -9  158.68    6.30
  10   5  -9  165.18    9.10
   9  -5  -9   16.00    3.30
   9  -5  -9   20.20    2.50
   9  -5  -9   20.50    2.60
   9   5  -9   25.00    4.10
   9   5  -9   23.20    2.80
   8  -5  -9  160.38    8.60
   8  -5  -9  171.78    7.20
  -8  -5   9  166.08    7.30
   8   5  -9  172.58    8.60
   8   5  -9  160.38    7.10
   7  -5  -9   47.70    4.40
  -7  -5   9   39.60    3.50
   7  -5  -9   53.99    3.60
   7   5  -9   51.49    4.30
  -7   5   9   45.00    3.30
   7   5  -9   42.70    3.50
   6  -5  -9  415.46   15.60
   6  -5  -9  420.56   14.90
  -6  -5   9  433.06   15.70
  -6  -5   9  424.36   15.10
   6   5  -9  436.36   15.40
   6   5  -9  423.76   15.00
  -6   5   9  411.96   14.60
   5  -5  -9  202.58    8.30
  -5  -5   9  203.08    8.50
  -5   5   9  207.48    8.10
  -5   5   9  204.68    9.10
   5   5  -9  210.28    8.30
   5   5  -9  205.08    8.40
   4  -5  -9   17.20    3.00
   4  -5  -9   20.90    2.60
  -4  -5   9   19.40    2.60
  -4  -5   9   20.20    2.20
  -4   5   9   21.30    2.50
  -4   5   9   17.40    2.50
   4   5  -9   18.50    2.50
   4   5  -9   17.60    2.20
  -3  -5   9  774.32   23.90
  -3  -5   9  740.83   25.10
   3  -5  -9  741.23   24.80
   3  -5  -9  792.62   25.10
  -3   5   9  757.22   24.80
  -3   5   9  768.92   25.00
   3   5  -9  778.82   25.20
   3   5  -9  768.82   24.00
   2  -5  -9   56.09    3.80
  -2  -5   9   61.99    3.90
   2  -5  -9   64.19    3.60
   2   5  -9   61.89    2.70
  -2   5   9   61.49    3.70
   2   5  -9   68.69    4.10
  -2   5   9   60.89    3.60
   1  -5  -9  291.57   11.00
  -1  -5   9  286.87   11.10
   1  -5  -9  315.37   13.00
   1   5  -9  294.77   11.10
  -1   5   9  299.37   10.70
  -1   5   9  296.37   10.90
   0  -5  -9   97.29    5.10
   0  -5  -9   99.59    5.00
   0  -5   9   89.99    4.90
   0   5   9   96.09    4.60
   0   5  -9   91.19    4.90
   0   5   9   92.59    4.60
  -1  -5  -9  492.55   16.80
   1  -5   9  492.45   17.10
  -1  -5  -9  494.75   16.90
  -1   5  -9  490.95   17.00
   1   5   9  505.95   16.70
   1   5   9  485.25   16.70
  -2  -5  -9   19.40    2.40
   2  -5   9   21.10    1.30
  -2  -5  -9   21.60    2.70
   2  -5   9   23.30    2.80
  -2   5  -9   25.50    3.00
   2   5   9   20.10    2.40
   2   5   9   21.90    2.80
   3  -5   9  226.28    9.10
   3  -5   9  229.08    8.00
  -3  -5  -9  234.58    9.20
  -3   5  -9  241.08    9.20
   3   5   9  228.18    9.30
   3   5   9  230.88    8.90
  -3   5  -9  233.48    7.90
   4  -5   9  384.16   14.10
   4  -5   9  400.86   13.40
  -4  -5  -9  418.16   14.30
  -4   5  -9  390.76   13.20
  -4   5  -9  392.66   14.10
   4   5   9  396.76   13.90
   5  -5   9  135.69    6.40
   5  -5   9  145.99    6.40
  -5  -5  -9  141.69    6.50
  -5   5  -9  154.08    6.60
  -5   5  -9  142.89    6.10
   5   5   9  149.79    6.30
   5   5   9  149.39    7.30
  -6  -5  -9    8.50    2.10
  -6  -5  -9    7.80    1.80
   6  -5   9    7.70    2.00
  -6   5  -9    4.90    1.50
   6   5   9    6.00    2.30
  -6   5  -9    6.60    1.80
   7  -5   9   11.60    2.00
  -7  -5  -9   10.30    2.10
  -7  -5  -9   17.40    2.60
   7  -5   9   15.80    2.90
  -7   5  -9   13.40    2.10
   7   5   9   11.60    3.10
  -8  -5  -9  180.58    7.70
  -8  -5  -9  195.98    7.90
   8  -5   9  195.88    9.10
   8  -5   9  183.98    7.50
   8   5   9  218.48   10.20
  -8   5  -9  197.68    7.50
   9  -5   9    6.30    1.40
  -9  -5  -9    5.50    1.70
  -9  -5  -9    2.40    1.30
   9  -5   9   12.40    3.10
  -9   5  -9    4.50    1.20
  10  -5   9   72.99    5.90
  10   5   9   72.99    6.40
  12  -6  -9   -2.90    2.70
  12   6  -9    0.60    3.00
  11  -6  -9    4.70    3.00
  11  -6  -9    5.50    1.40
  11   6  -9   11.30    3.80
  11   6  -9    5.70    1.80
 -10  -6   9    4.80    2.10
  10  -6  -9    4.50    1.70
  10  -6  -9    8.60    5.50
  10  -6  -9    8.60    2.00
  10   6  -9   12.50    3.50
  10   6  -9    5.50    1.80
   9  -6  -9   27.00    3.00
   9  -6  -9   28.90    4.40
  -9  -6   9   31.00    3.50
   9  -6  -9   21.50    2.80
   9   6  -9   27.10    3.10
   9   6  -9   31.40    4.60
  -8  -6   9   -2.60    1.50
   8  -6  -9   -0.10    1.30
   8  -6  -9    0.20    1.40
   8  -6  -9   -1.20    2.10
   8   6  -9   -1.30    1.90
   8   6  -9    2.30    1.70
   7  -6  -9  129.99    6.30
   7  -6  -9  138.29    7.50
   7  -6  -9  141.09    6.60
  -7  -6   9  140.09    6.80
   7   6  -9  143.89    7.30
   7   6  -9  148.09    6.70
  -6  -6   9   28.90    3.30
   6  -6  -9   33.80    3.20
   6  -6  -9   40.20    3.80
   6   6  -9   32.90    3.70
  -6   6   9   24.40    2.80
   6   6  -9   36.10    3.70
  -5  -6   9    1.00    1.40
   5  -6  -9   -0.50    1.40
   5   6  -9    2.30    1.40
  -5   6   9   -0.20    1.40
   5   6  -9    1.20    1.50
  -5   6   9    2.70    1.30
  -4  -6   9  223.68    8.20
  -4  -6   9  209.98    8.90
   4  -6  -9  220.78    8.90
  -4   6   9  205.78    9.00
   4   6  -9  227.68    9.10
  -4   6   9  218.98    8.70
   4   6  -9  226.38    8.30
  -3  -6   9  223.48    7.70
   3  -6  -9  206.18    8.60
  -3  -6   9  217.28    8.90
   3  -6  -9  222.18    8.80
  -3   6   9  209.48    8.70
  -3   6   9  216.38    8.60
   3   6  -9  220.98    9.00
   3   6  -9  217.08    7.80
   2  -6  -9  148.99    6.60
  -2  -6   9  141.59    6.60
  -2  -6   9  143.89    5.50
   2  -6  -9  133.29    6.10
   2   6  -9  143.39    5.00
  -2   6   9  137.29    6.30
  -2   6   9  139.49    6.30
   2   6  -9  145.59    6.70
  -1  -6   9   69.19    4.20
   1  -6  -9   72.99    4.30
   1  -6  -9   68.89    3.90
  -1   6   9   62.19    3.90
   1   6  -9   75.69    4.40
  -1   6   9   72.89    4.10
   0  -6   9  306.57   11.60
   0  -6  -9  293.17   11.20
   0  -6  -9  315.37   11.60
   0   6   9  316.67   11.30
   0   6  -9  314.67   11.70
   0   6   9  304.67   11.40
  -1  -6  -9   62.79    3.90
   1  -6   9   68.09    4.10
  -1  -6  -9   69.79    4.20
   1   6   9   74.49    4.10
  -1   6  -9   65.69    4.20
   1   6   9   66.59    4.00
   2  -6   9   90.69    5.00
  -2  -6  -9   90.39    5.00
   2  -6   9   98.79    3.40
   2  -6   9   97.19    3.30
   2   6   9   94.09    4.80
  -2   6  -9   93.79    5.10
   2   6   9   97.69    5.00
   3  -6   9   85.79    3.60
   3  -6   9   82.89    3.60
   3  -6   9   75.59    4.60
  -3  -6  -9   88.89    4.90
   3   6   9   89.19    4.60
  -3   6  -9   93.59    4.90
   3   6   9   94.59    5.10
  -4  -6  -9   80.79    4.70
   4  -6   9   79.19    3.80
   4  -6   9   75.09    4.50
   4   6   9   82.49    5.00
   4   6   9   72.19    4.20
  -4   6  -9   81.09    4.60
   5  -6   9   77.49    4.20
   5  -6   9   68.19    4.30
  -5  -6  -9   78.69    4.70
  -5  -6  -9   76.89    4.40
   5   6   9   76.89    5.10
  -5   6  -9   86.29    4.70
   6  -6   9   61.09    4.00
  -6  -6  -9   64.39    4.00
   6  -6   9   69.39    4.30
  -6  -6  -9   69.59    4.40
  -6   6  -9   70.69    4.10
  -6   6  -9   62.79    3.80
   6   6   9   60.79    4.90
  -7  -6  -9    5.50    1.90
   7  -6   9    7.70    2.30
  -7  -6  -9    3.30    1.50
   7  -6   9    2.40    1.40
   7   6   9    4.80    2.50
  -7   6  -9    2.60    1.50
  -8  -6  -9   50.09    3.80
  -8  -6  -9   37.80    3.20
   8  -6   9   49.70    4.40
   8   6   9   41.90    5.10
  -8   6  -9   47.70    3.20
   9  -6   9   51.59    3.20
  -9  -6  -9   50.79    4.00
   9  -6   9   52.59    4.80
  -9  -6  -9   48.70    3.60
   9   6   9   63.79    5.80
  -9   6  -9   58.29    3.20
 -10  -6  -9   17.10    1.90
  10  -6   9   14.40    3.40
  10   6   9   23.80    4.60
  11  -7  -9    5.60    1.70
  11  -7  -9    9.80    3.90
  11   7  -9   10.10    3.90
  11   7  -9    2.60    1.70
  10  -7  -9   94.89    5.20
  10  -7  -9  112.79    7.70
  10  -7  -9   74.89    4.80
 -10  -7   9   82.59    5.40
  10   7  -9  101.39    5.30
  10   7  -9  118.49    7.60
   9  -7  -9    0.50    1.50
   9  -7  -9   -0.10    1.50
   9  -7  -9   -1.50    2.10
   9   7  -9   -0.70    1.60
   9   7  -9   -1.60    2.30
   8  -7  -9   28.50    3.70
   8  -7  -9   28.60    3.30
   8  -7  -9   40.50    5.20
   8   7  -9   36.00    3.70
   8   7  -9   40.20    4.80
   7  -7  -9   43.90    4.70
   7  -7  -9   34.00    3.40
   7   7  -9   35.60    4.10
   7   7  -9   38.10    3.70
   6  -7  -9  311.37   12.70
   6  -7  -9  317.87   12.10
   6   7  -9  330.07   12.30
   6   7  -9  310.27   12.10
  -5  -7   9   33.40    2.80
   5  -7  -9   37.50    3.40
   5   7  -9   32.10    3.00
  -5   7   9   38.70    3.80
   5   7  -9   36.60    3.50
  -4  -7   9    3.60    1.20
   4  -7  -9    2.10    1.40
   4   7  -9    1.90    1.60
   4   7  -9    3.90    1.30
  -4   7   9    1.60    1.90
  -3  -7   9  511.55   16.40
   3  -7  -9  525.35   17.80
  -3   7   9  509.35   17.70
  -3   7   9  498.35   18.20
   3   7  -9  512.75   16.50
   3   7  -9  502.85   17.90
  -2  -7   9    5.10    2.00
   2  -7  -9    2.60    1.50
  -2   7   9    5.00    1.50
   2   7  -9    2.70    1.70
  -2   7   9    2.80    1.60
   2   7  -9    3.70    0.80
   1  -7  -9  481.35   17.00
  -1  -7   9  501.95   17.80
   1  -7  -9  480.35   17.30
  -1   7   9  478.15   17.00
  -1   7   9  493.15   16.80
   1   7  -9  480.35   17.10
   0  -7   9   10.50    2.10
   0  -7  -9   13.00    2.50
   0  -7  -9   11.30    2.20
   0   7   9   13.80    2.30
   0   7  -9   11.60    2.10
   0   7   9   11.10    2.10
  -1  -7  -9  530.65   18.10
   1  -7   9  508.15   18.40
   1   7   9  518.55   17.90
   1   7   9  506.85   19.30
  -1   7  -9  545.05   18.40
  -2  -7  -9   60.59    4.30
   2  -7   9   67.49    4.70
   2  -7   9   64.19    2.40
   2  -7   9   65.19    2.40
   2   7   9   72.09    4.30
  -2   7  -9   64.19    4.20
  -3  -7  -9   87.99    5.10
   3  -7   9   92.89    5.80
   3  -7   9   96.29    3.90
   3  -7   9   95.19    3.70
  -3   7  -9   90.89    5.10
   3   7   9   91.99    5.30
   4  -7   9  374.46   12.70
   4  -7   9  395.96   12.80
  -4  -7  -9  377.06   14.00
  -4   7  -9  388.76   13.90
   4   7   9  353.06   14.20
   5  -7   9  283.97   10.70
  -5  -7  -9  309.57   11.70
   5  -7   9  297.27   10.90
  -5   7  -9  306.57   11.50
   5   7   9  300.17   12.30
  -6  -7  -9   49.30    4.00
   6  -7   9   40.90    4.40
   6  -7   9   44.90    3.30
   6  -7   9   47.60    3.60
   6   7   9   41.70    4.70
  -6   7  -9   47.30    3.60
   7  -7   9   26.40    3.20
   7  -7   9   40.30    4.30
  -7  -7  -9   43.10    4.20
   7   7   9   32.00    4.30
  -7   7  -9   31.80    3.10
   8  -7   9  103.59    5.60
   8  -7   9  124.99    6.80
  -8  -7  -9  118.59    6.20
   8   7   9  122.09    7.80
  -8   7  -9  129.49    5.70
  -9  -7  -9    0.90    1.70
   9  -7   9    3.00    2.30
  -9   7  -9    4.00    1.50
   9   7   9    3.20    2.40
  10  -7   9   55.79    5.30
 -10  -7  -9   51.29    3.60
  10   7   9   68.69    6.50
  11  -8  -9   42.00    3.50
  11  -8  -9   46.10    6.10
  11   8  -9   45.80    6.00
  11   8  -9   30.80    3.50
  10  -8  -9    2.40    3.00
  10  -8  -9    1.60    1.70
  10   8  -9    2.10    3.20
  10   8  -9    2.20    2.80
   9  -8  -9   10.40    2.40
   9  -8  -9    7.80    3.10
   9   8  -9   15.10    3.30
   9   8  -9   24.10    4.00
   8  -8  -9    3.00    2.00
   8  -8  -9    4.50    2.90
   8   8  -9    8.10    2.40
   8   8  -9    9.50    2.90
   7  -8  -9   31.60    4.20
   7  -8  -9   29.80    4.50
   7   8  -9   27.60    3.50
   7   8  -9   33.10    4.00
   6  -8  -9   95.69    5.90
   6  -8  -9   82.99    5.70
   6   8  -9   91.59    5.30
   6   8  -9   79.19    6.50
   5  -8  -9   91.69    5.30
  -5  -8   9   80.89    4.50
   5   8  -9   84.99    4.80
  -5   8   9   84.29    5.60
  -4  -8   9  160.18    6.50
   4  -8  -9  146.99    7.30
   4   8  -9  165.68    6.60
   4   8  -9  178.78    8.70
  -4   8   9  149.79    7.50
  -3  -8   9   33.70    2.30
   3  -8  -9   33.00    3.60
   3   8  -9   28.70    2.20
   3   8  -9   36.10    3.80
  -3   8   9   31.40    3.40
   2  -8  -9  223.38    9.40
  -2  -8   9  231.58    7.60
  -2   8   9  217.38    9.30
   2   8  -9  230.08    7.90
   2   8  -9  221.78    9.50
   1  -8  -9   12.00    2.30
   1   8  -9   18.00    2.80
  -1   8   9   13.60    2.40
   0  -8  -9  122.39    6.40
   0   8   9  122.09    6.00
   0   8  -9  135.39    6.60
  -1  -8  -9   84.49    5.10
  -1   8  -9   87.29    5.20
   2  -8   9   71.39    2.60
   2  -8   9   67.59    2.50
  -2  -8  -9   65.69    4.50
   2   8   9   68.69    4.50
  -2   8  -9   69.89    4.60
   3  -8   9    1.40    0.90
   3  -8   9    2.50    0.80
  -3  -8  -9    1.50    1.80
  -3   8  -9    3.60    1.80
   3   8   9    3.30    1.70
  -4  -8  -9   11.90    4.50
   4  -8   9   13.00    1.70
   4  -8   9   16.30    2.00
   4   8   9   14.50    2.80
  -4   8  -9   12.30    2.50
   5  -8   9  117.49    5.30
   5  -8   9  121.09    5.60
  -5   8  -9  127.89    6.30
   5   8   9  115.79    6.90
   6  -8   9   24.80    2.90
   6  -8   9   34.10    3.60
   6   8   9   23.50    3.90
  -6   8  -9   28.20    3.30
   7  -8   9    8.10    2.20
  -7   8  -9    7.30    2.10
   7   8   9    5.40    2.50
  -8  -8  -9    6.30    2.60
   8  -8   9    0.90    2.00
   8   8   9    5.20    3.40
  -8   8  -9    3.40    1.60
   9  -8   9   74.79    5.60
  -9  -8  -9   79.79    5.10
  -9   8  -9   74.09    4.30
   9   8   9   81.99    6.80
 -10  -8  -9   -1.60    1.70
  10  -8   9   -0.80    2.00
  10   8   9    5.50    3.30
  11  -9  -9   -0.20    3.00
  11  -9  -9   -1.50    1.60
  11   9  -9   -0.80    1.80
  11   9  -9    0.80    2.80
  10  -9  -9    8.60    3.50
  10  -9  -9    8.50    2.90
  10   9  -9   10.20    2.60
  10   9  -9    9.60    4.50
   9  -9  -9    0.40    1.80
   9   9  -9    0.50    1.90
   9   9  -9    3.60    2.70
   8  -9  -9   37.40    4.10
   8  -9  -9   33.30    5.10
   8   9  -9   33.20    3.90
   8   9  -9   33.80    4.50
   7  -9  -9   13.40    3.30
   7  -9  -9    6.60    2.30
   7   9  -9   12.20    2.90
   7   9  -9    8.40    2.70
   6  -9  -9  150.18    7.50
   6   9  -9  154.58    7.30
   6   9  -9  155.28    7.70
  -5  -9   9  178.18    7.80
   5  -9  -9  185.28    8.50
   5   9  -9  185.78    7.90
  -5   9   9  189.18    9.10
   5   9  -9  197.38    8.80
  -4  -9   9    2.70    1.40
   4  -9  -9    2.60    1.80
   4   9  -9    3.10    2.00
  -4   9   9    0.40    1.80
   4   9  -9    3.20    1.50
  -3  -9   9   24.30    2.10
   3  -9  -9   30.70    3.60
  -2  -9   9   99.19    3.90
   2  -9  -9   93.09    5.60
   2   9  -9   99.79    3.90
   2   9  -9   93.89    5.80
  -2   9   9   91.49    5.40
   1  -9  -9   51.09    4.10
  -1  -9   9   53.79    2.20
  -1   9   9   44.50    3.70
   1   9  -9   50.59    2.10
   1   9  -9   48.80    4.10
   0  -9  -9    6.80    2.20
   0   9  -9    7.90    2.30
   0   9   9    9.60    2.10
  -1  -9  -9  105.79    5.90
   1   9   9   95.29    5.50
  -1   9  -9   99.49    5.80
  -2  -9  -9    1.60    2.00
   2  -9   9    6.00    0.80
   2  -9   9    5.90    0.80
  -2   9  -9    5.90    2.10
   2   9   9    6.50    2.00
  -3  -9  -9    7.30    2.40
   3  -9   9    6.70    1.10
   3  -9   9    7.60    1.30
  -3   9  -9    5.90    2.10
   3   9   9    2.80    1.80
   4  -9   9   56.19    2.90
   4  -9   9   59.59    3.20
  -4  -9  -9   57.39    4.60
   4   9   9   50.29    4.50
  -4   9  -9   54.89    4.40
   5  -9   9  144.89    6.30
  -5  -9  -9  177.78    8.20
   5  -9   9  160.48    6.70
   5   9   9  156.18    8.20
  -5   9  -9  165.48    7.70
   6  -9   9   24.60    3.10
  -6  -9  -9   25.60    3.70
   6  -9   9   24.20    2.70
   6   9   9   17.40    3.70
  -6   9  -9   25.00    3.30
  -7  -9  -9   59.19    4.80
   7  -9   9   53.89    4.30
   7   9   9   45.50    5.20
  -7   9  -9   55.09    4.20
  -8  -9  -9   23.50    3.40
   8  -9   9   30.30    3.90
   8   9   9   26.30    4.40
  -8   9  -9   25.70    3.50
   9  -9   9    3.30    2.20
  -9  -9  -9    1.30    2.00
  -9   9  -9    0.30    1.60
   9   9   9    2.90    2.80
  10 -10  -9   48.40    6.60
  10 -10  -9   48.10    4.40
  10  10  -9   37.80    4.30
  10  10  -9   51.49    6.20
   9 -10  -9   53.29    6.50
   9 -10  -9   44.20    4.60
   9  10  -9   45.70    5.40
   9  10  -9   49.90    4.60
   8 -10  -9   24.30    4.80
   8 -10  -9   24.70    3.70
   8  10  -9   26.40    3.70
   8  10  -9   31.60    4.40
   7 -10  -9   29.60    3.90
   7 -10  -9   30.50    4.50
   7  10  -9   37.90    4.30
   7  10  -9   24.10    3.70
   6 -10  -9   33.30    4.10
  -6  10   9   39.80    4.80
   6  10  -9   30.40    4.00
   5 -10  -9    1.90    2.10
  -5 -10   9    3.00    1.60
  -5  10   9    3.90    2.40
   5  10  -9    2.50    1.80
   5  10  -9    4.40    2.30
   4 -10  -9   48.60    4.60
  -4 -10   9   47.70    3.40
   4  10  -9   63.49    4.90
  -4  10   9   46.70    4.50
   4  10  -9   53.39    3.60
   3 -10  -9   -1.90    1.80
  -3 -10   9    0.20    1.10
  -3  10   9    2.20    2.00
   3  10  -9   -1.10    1.10
   3  10  -9    0.90    2.00
   2 -10  -9   66.29    4.90
  -2 -10   9   65.79    3.10
  -2  10   9   64.59    4.60
   2  10  -9   70.19    5.00
   2  10  -9   63.59    3.10
  -1 -10   9    0.50    0.70
   1 -10  -9   -1.40    1.50
  -1  10   9   -0.30    1.50
   1  10  -9   -1.40    1.80
   1  10  -9    1.40    0.70
   0 -10  -9    6.50    2.50
   0  10  -9    5.80    2.40
   0  10   9    8.60    2.30
  -1 -10  -9   97.19    5.90
   1  10   9   91.99    5.50
  -1  10  -9   95.09    5.80
   2 -10   9    9.20    1.10
   2 -10   9    8.40    0.90
  -2 -10  -9   10.30    2.70
   2  10   9    8.00    2.40
  -2  10  -9   10.90    2.60
  -3 -10  -9   73.99    5.40
   3 -10   9   70.79    3.10
   3 -10   9   77.09    3.40
  -3  10  -9   68.99    5.10
   3  10   9   72.99    5.20
   4 -10   9   -0.20    0.90
   4 -10   9    0.30    1.10
  -4 -10  -9   -0.10    1.90
  -4  10  -9    3.10    1.90
   4  10   9    1.40    2.00
   5 -10   9   61.59    3.60
  -5 -10  -9   72.49    5.40
   5 -10   9   68.89    4.00
  -5  10  -9   65.39    4.90
   5  10   9   71.69    5.60
  -6 -10  -9    6.60    2.70
   6 -10   9    7.10    1.90
   6 -10   9    8.00    2.00
   6  10   9    5.70    2.60
  -6  10  -9   10.50    2.60
  -7 -10  -9   28.30    4.00
   7 -10   9   24.80    3.40
  -7  10  -9   26.80    3.50
   7  10   9   25.30    7.00
  -8 -10  -9    9.40    3.00
   8 -10   9    9.00    2.60
  -8  10  -9   11.30    2.50
   8  10   9   10.30    3.30
   9 -10   9   21.80    3.60
  -9 -10  -9   20.60    3.40
  -9  10  -9   18.30    2.80
   9  10   9   24.90    4.70
  10 -11  -9    5.50    2.40
  10 -11  -9    2.80    3.00
  10  11  -9    5.70    2.70
  10  11  -9    4.90    3.50
   9 -11  -9    9.60    2.90
   9 -11  -9   11.40    4.10
   9  11  -9   16.10    3.80
   9  11  -9   15.70    3.30
   8 -11  -9    2.70    2.40
   8  11  -9    7.80    2.90
   8  11  -9    9.80    3.10
   7 -11  -9   15.60    3.70
   7 -11  -9   16.60    3.20
   7  11  -9   17.40    3.40
   7  11  -9   11.60    3.10
   6 -11  -9   35.30    4.30
  -6  11   9   35.80    4.70
   6  11  -9   27.00    3.90
   6  11  -9   41.40    4.00
   5 -11  -9   24.90    3.70
   5  11  -9   24.60    3.80
   5  11  -9   28.30    3.20
  -5  11   9   19.30    3.60
   4 -11  -9    8.00    2.60
  -4  11   9   13.20    2.80
   4  11  -9    8.10    2.80
   4  11  -9    6.90    1.70
  -3 -11   9   38.70    2.80
   3 -11  -9   41.50    4.60
  -3  11   9   43.70    4.20
   3  11  -9   50.69    4.70
   3  11  -9   43.50    2.90
  -2 -11   9    3.70    1.20
   2 -11  -9    2.30    2.10
  -2  11   9    1.50    2.10
   2  11  -9    1.20    1.10
   2  11  -9    1.40    2.10
  -1 -11   9    2.40    0.90
   1 -11  -9    2.70    2.20
   1  11  -9    7.90    2.50
  -1  11   9    0.30    1.60
   1  11  -9    3.90    1.20
   0 -11  -9  275.87   11.80
   0 -11   9  283.17    9.00
   0  11  -9  287.07   12.00
   0  11   9  284.17   11.60
  -1 -11  -9   83.49    5.90
   1 -11   9   93.69    3.30
   1 -11   9   89.89    3.30
   1  11   9   98.39    5.90
  -1  11  -9   96.09    6.10
   2 -11   9    2.30    0.90
  -2 -11  -9   -1.20    1.90
   2 -11   9    0.10    0.80
   2  11   9    3.40    2.10
  -2  11  -9    0.30    1.70
  -3 -11  -9   10.70    2.80
   3 -11   9    9.40    1.30
   3 -11   9    7.40    1.40
  -3  11  -9   10.50    2.70
   3  11   9    7.50    2.50
  -4 -11  -9    1.20    2.40
   4 -11   9    0.60    0.90
   4 -11   9    0.50    1.20
  -4  11  -9    0.80    1.90
   4  11   9   -0.60    2.10
   5 -11   9    1.30    1.30
   5 -11   9    4.00    1.60
  -5 -11  -9    1.70    2.50
  -5  11  -9    3.80    2.40
   5  11   9    2.00    2.20
  -6 -11  -9   20.20    3.60
   6 -11   9   15.20    2.40
   6 -11   9   23.50    3.00
  -6  11  -9   23.30    3.40
   6  11   9   27.30    4.30
  -7 -11  -9   25.00    4.10
   7 -11   9   18.80    3.00
  -7  11  -9   22.90    3.30
   7  11   9   15.10    3.70
   8 -11   9   10.40    2.70
  -8 -11  -9   11.70    3.40
   8  11   9   11.80    3.70
  -8  11  -9    7.00    2.40
   9 -12  -9   -2.00    2.00
   9 -12  -9    1.60    2.80
   9  12  -9    0.80    2.40
   9  12  -9    4.40    2.90
   8 -12  -9    1.00    2.60
   8 -12  -9   -1.80    2.10
   8  12  -9    1.50    2.50
   8  12  -9   -1.80    2.30
   7 -12  -9    6.00    2.80
   7 -12  -9    3.60    3.00
   7  12  -9    5.60    2.50
   7  12  -9    4.50    3.00
   6 -12  -9    1.80    2.20
  -6  12   9    0.30    2.50
   6  12  -9    3.40    2.10
   6  12  -9    6.10    2.70
   5 -12  -9   16.80    3.40
  -5  12   9   14.50    3.40
   5  12  -9   15.10    2.50
   5  12  -9   11.80    3.20
   4 -12  -9   -1.80    2.00
  -4 -12   9    0.20    1.40
   4  12  -9    0.90    2.40
  -4  12   9    1.90    2.20
   4  12  -9    1.60    1.50
  -3 -12   9    5.40    1.60
   3 -12  -9    6.20    2.60
   3  12  -9    2.40    2.40
   3  12  -9    5.50    1.60
  -3  12   9    7.10    2.60
   2 -12  -9   13.70    3.30
  -2 -12   9    8.50    1.60
   2  12  -9   13.00    1.70
   2  12  -9   13.70    3.40
  -2  12   9   14.10    3.30
   1 -12  -9    2.20    2.30
  -1 -12   9    1.60    1.00
   1  12  -9    4.20    2.30
  -1  12   9    0.00    1.80
   1  12  -9   -0.40    0.90
   0 -12  -9   -2.90    1.90
   0  12  -9    0.80    2.10
   0  12   9    0.60    1.90
   1 -12   9   35.80    1.90
  -1 -12  -9   36.20    4.60
   1 -12   9   32.20    2.00
  -1  12  -9   29.40    4.00
   1  12   9   36.80    4.60
  -2 -12  -9    8.00    2.90
   2 -12   9    5.20    1.70
  -2  12  -9    8.40    2.70
   2  12   9   10.00    2.80
  -3 -12  -9    6.60    2.90
   3 -12   9    5.50    1.40
   3 -12   9    5.00    1.20
  -3  12  -9    9.10    2.80
   3  12   9    3.40    2.70
   4 -12   9    0.20    1.30
   4 -12   9    0.40    1.00
  -4 -12  -9    6.00    2.90
   4  12   9    4.00    2.50
  -4  12  -9    1.30    2.00
   5 -12   9    0.00    1.20
   5 -12   9    2.20    1.50
  -5 -12  -9    1.60    2.40
  -5  12  -9    1.20    2.10
   5  12   9    4.60    2.60
  -6 -12  -9   18.70    3.70
   6 -12   9   21.30    2.80
   6 -12   9   17.00    2.50
   6  12   9   25.90    4.30
  -6  12  -9   24.90    3.70
   7 -12   9    0.10    1.80
  -7 -12  -9    4.90    2.90
  -7  12  -9    1.00    2.00
   7  12   9    3.50    3.00
  -8 -12  -9   -3.30    2.50
   8 -12   9   -0.30    1.80
   8  12   9   -0.20    2.70
  -8  12  -9    0.70    2.10
   9 -13  -9    2.20    3.00
   9 -13  -9    3.00    2.60
   9  13  -9    6.30    3.00
   8 -13  -9   -0.60    3.10
   8 -13  -9    0.80    2.40
   8  13  -9    0.50    2.50
   8  13  -9   -2.10    2.40
   7 -13  -9    4.90    3.00
   7 -13  -9   -0.10    2.20
   7  13  -9    0.20    2.60
   7  13  -9   -2.50    2.00
   6 -13  -9   29.10    4.50
   6  13  -9   30.70    3.70
  -6  13   9   33.60    5.10
   6  13  -9   34.00    4.80
   5 -13  -9    3.90    2.60
   5  13  -9    1.40    2.00
  -5  13   9   -1.40    2.20
   5  13  -9    1.30    2.60
  -4 -13   9    1.50    1.60
   4 -13  -9    7.60    2.90
   4  13  -9    4.80    1.80
  -4  13   9    4.50    2.70
   4  13  -9    6.40    2.90
  -3 -13   9    8.20    1.90
   3 -13  -9    8.70    3.10
   3  13  -9   13.20    2.10
  -3  13   9    6.60    2.80
   3  13  -9   12.20    3.50
  -2 -13   9   65.19    3.60
   2 -13  -9   66.19    5.80
  -2  13   9   72.79    5.50
   2  13  -9   69.19    3.60
   2  13  -9   72.49    5.90
  -1 -13   9    1.00    1.10
   1 -13  -9   -2.70    2.30
   1  13  -9    0.60    1.10
  -1  13   9    2.00    2.10
   1  13  -9    1.90    2.40
   0 -13   9    5.00    1.10
   0 -13  -9    2.70    2.70
   0  13   9    3.70    2.30
   0  13  -9    7.10    2.80
  -1 -13  -9   -0.10    2.50
   1 -13   9    1.20    1.10
   1  13   9   -2.90    1.70
  -1  13  -9   -0.10    2.20
   2 -13   9    4.30    1.30
  -2 -13  -9   -0.10    2.70
   2 -13   9    3.40    1.10
   2  13   9    3.70    2.70
  -2  13  -9    5.00    2.70
   3 -13   9   53.89    2.90
  -3 -13  -9   49.50    5.60
   3 -13   9   46.60    2.70
  -3  13  -9   46.50    5.20
   3  13   9   58.29    5.30
   4 -13   9    7.10    1.70
   4 -13   9    7.00    1.50
  -4 -13  -9   11.30    3.40
   4  13   9    8.20    3.10
  -4  13  -9    7.60    2.70
  -5 -13  -9   14.70    3.70
   5 -13   9   18.70    2.50
   5 -13   9    8.50    2.90
   5  13   9   20.70    5.40
  -5  13  -9    9.90    2.90
   6 -13   9    0.50    1.70
  -6 -13  -9    2.40    2.90
   6  13   9    4.80    2.70
  -6  13  -9    0.60    2.10
  -7 -13  -9   12.20    3.60
   7 -13   9   16.10    2.70
  -7  13  -9    9.20    2.80
   7  13   9   14.60    4.00
   8 -14  -9    7.30    3.10
   8 -14  -9   13.40    4.00
   8  14  -9   13.00    3.50
   7 -14  -9   28.20    4.50
   7 -14  -9   29.90    4.90
   7  14  -9   22.10    3.60
   7  14  -9   21.70    4.20
   6 -14  -9   23.50    4.20
   6  14  -9   36.10    5.00
   6  14  -9   30.70    4.00
  -6  14   9   28.10    5.60
   5 -14  -9    1.30    2.70
  -5  14   9   -2.00    2.60
   5  14  -9   -2.10    1.80
   5  14  -9    0.40    2.80
   4 -14  -9  122.59    7.80
   4  14  -9  116.89    7.70
   4  14  -9  109.29    5.70
  -4  14   9  118.19    7.60
  -3 -14   9    1.10    1.90
   3 -14  -9   -1.10    2.50
   3  14  -9    1.70    2.40
  -3  14   9    0.20    2.70
   3  14  -9    1.40    1.50
   2 -14  -9   94.19    6.80
  -2 -14   9   73.99    4.20
   2  14  -9   87.79    6.60
   2  14  -9   83.09    4.20
  -2  14   9   93.89    6.40
  -1 -14   9    0.10    1.10
   1 -14  -9   -0.60    2.40
   1  14  -9    1.90    1.30
  -1  14   9   -0.30    2.10
   1  14  -9   -0.80    2.30
   0 -14   9   37.70    2.50
   0 -14  -9   44.70    5.30
   0  14  -9   36.40    4.80
   0  14   9   43.50    4.90
   1 -14   9   13.40    1.70
   1 -14   9    8.40    1.40
  -1 -14  -9   14.00    3.60
  -1  14  -9   14.20    3.50
   1  14   9   13.60    3.50
   2 -14   9   27.50    2.20
  -2 -14  -9   36.30    5.20
   2 -14   9   27.30    2.10
  -2  14  -9   36.20    4.90
   2  14   9   28.40    4.60
   3 -14   9   10.30    1.60
  -3 -14  -9   13.50    3.70
   3 -14   9   16.20    1.90
   3  14   9   19.90    4.00
  -3  14  -9   20.90    3.80
   4 -14   9    5.60    1.50
  -4 -14  -9    9.10    3.50
   4 -14   9    9.30    1.80
   4  14   9    7.30    4.40
  -4  14  -9   11.00    3.40
   5 -14   9   71.79    4.40
  -5 -14  -9   76.69    6.70
   5  14   9   92.59    7.00
  -5  14  -9   79.89    6.10
   6 -14   9    3.50    1.80
  -6 -14  -9    1.90    3.00
   6  14   9   -1.20    2.70
  -6  14  -9    3.30    2.50
   7 -14   9   16.90    2.90
  -7 -14  -9   17.20    6.50
   7  14   9   18.00    4.20
  -7  14  -9   16.70    3.60
   7 -15  -9    3.40    3.30
   7 -15  -9    1.10    2.50
   7  15  -9    2.50    2.90
   7  15  -9   -2.10    2.10
   6 -15  -9    4.70    3.10
  -6  15   9    8.00    3.60
   6  15  -9    6.90    3.60
   6  15  -9    6.40    2.50
  -5  15   9    3.00    3.10
   5  15  -9    5.60    3.60
   5  15  -9    5.20    2.30
   4 -15  -9    5.30    3.30
   4  15  -9    3.10    1.90
  -4  15   9    8.20    3.20
  -3 -15   9    1.10    1.70
   3 -15  -9   -0.50    2.40
   3  15  -9    0.20    1.50
  -3  15   9   -1.90    2.40
   3  15  -9   -0.50    2.60
   2 -15  -9   17.00    4.30
  -2 -15   9   16.10    2.30
   2  15  -9   14.20    3.70
  -2  15   9   16.10    3.60
   2  15  -9   17.40    2.30
   1 -15  -9   34.50    5.10
  -1 -15   9   28.70    2.70
   1  15  -9   33.60    5.10
   1  15  -9   32.70    2.70
  -1  15   9   39.50    4.90
   0 -15   9    5.20    1.50
   0 -15  -9    5.90    3.10
   0  15  -9    8.30    3.10
   0  15   9    6.10    3.00
   1 -15   9  134.69    5.20
   1 -15   9  116.89    5.10
  -1 -15  -9  141.29    8.70
  -1  15  -9  134.39    8.20
   1  15   9  134.89    8.00
   2 -15   9   39.70    2.60
   2 -15   9   30.60    2.40
  -2 -15  -9   44.20    6.00
  -2  15  -9   32.20    4.70
   2  15   9   35.80    5.00
   3 -15   9   47.80    3.00
   3 -15   9   45.60    2.90
  -3  15  -9   50.19    6.40
   3  15   9   61.39    5.70
  -4 -15  -9    4.70    3.60
   4 -15   9    1.00    1.40
   4  15   9    3.80    3.00
   5 -15   9   33.90    3.10
  -5 -15  -9   35.10    5.40
  -5  15  -9   27.40    4.80
   5  15   9   38.50    5.30
   6 -15   9   13.20    2.50
  -6 -15  -9   11.20    3.80
  -6  15  -9   12.60    3.60
   6  15   9   13.70    4.00
   6 -16  -9   13.70    4.00
   6  16  -9   15.00    3.10
   6  16  -9    8.20    3.70
  -6  16   9   19.60    4.70
   5 -16  -9    9.50    3.70
   5  16  -9   23.70    4.80
   5  16  -9   13.30    2.80
  -5  16   9   13.30    4.00
   4 -16  -9   19.00    4.00
   4  16  -9   20.20    4.20
  -4  16   9   21.70    4.70
   3 -16  -9    0.60    2.80
  -3  16   9   -3.90    2.50
   3  16  -9    0.60    3.10
   3  16  -9   -1.20    1.50
   2 -16  -9   98.09    7.60
   2  16  -9   86.49    7.40
   2  16  -9   92.49    4.80
  -1 -16   9    0.60    1.50
   1 -16  -9    1.60    2.90
  -1  16   9   -0.50    4.30
   1  16  -9   -0.90    2.80
   1  16  -9   -0.90    1.30
   0 -16   9  103.69    4.90
   0 -16  -9  123.59    8.30
   0  16  -9  119.29    8.10
   1 -16   9    1.10    1.30
   1 -16   9    0.20    1.30
  -1 -16  -9    2.30    3.00
  -1  16  -9    0.30    2.80
   1  16   9   -1.80    2.50
  -2 -16  -9   47.10    6.50
   2 -16   9   36.50    2.60
   2  16   9   45.70    5.60
  -2  16  -9   38.20    5.20
   3 -16   9   21.00    2.20
  -3 -16  -9   19.90    4.60
  -3  16  -9   19.20    4.20
   3  16   9   25.00    4.40
  -4 -16  -9   89.89    7.60
   4 -16   9   63.39    4.00
  -4  16  -9   70.99    6.40
   4  16   9   87.29    7.00
  -5 -16  -9   18.50    4.50
   5 -16   9    9.60    2.10
   5  16   9    9.30    3.60
  -5  16  -9    9.70    3.40
   5 -17  -9   24.80    4.90
   5  17  -9   19.30    3.30
  -5  17   9   24.00    4.70
   5  17  -9   21.80    4.80
   4 -17  -9   14.50    4.30
  -4  17   9    2.70    3.10
   4  17  -9   10.40    3.90
   4  17  -9    6.80    2.20
   3 -17  -9   20.20    4.40
  -3  17   9   23.20    4.60
   3  17  -9   17.90    4.20
   3  17  -9   16.70    2.60
   2 -17  -9    4.20    3.40
   2  17  -9    1.40    1.60
   2  17  -9    3.10    3.40
  -2  17   9    5.30    3.40
   1 -17  -9   73.29    7.10
   1  17  -9   64.69    3.90
  -1  17   9   77.69    6.90
   1  17  -9   80.39    7.30
   0 -17  -9   13.20    4.40
   0  17  -9    7.00    3.90
   0  17   9   10.30    3.50
  -1 -17  -9   45.00    6.10
   1 -17   9   50.49    3.20
  -1  17  -9   43.50    5.80
   1  17   9   52.89    5.90
   2 -17   9    3.00    1.50
  -2 -17  -9   -0.60    3.20
  -2  17  -9   -2.40    2.50
   2  17   9   -1.30    2.80
  -3 -17  -9   42.20    6.10
   3 -17   9   38.50    3.20
   3  17   9   31.30    5.10
  -3  17  -9   39.50    5.40
  -4 -17  -9   14.40    4.40
  -4  17  -9    7.90    3.50
   4  17   9   16.00    4.30
   3 -18  -9    7.90    3.80
   3  18  -9    5.20    3.60
  -3  18   9    7.90    3.60
   2 -18  -9   16.10    4.60
  -2  18   9    7.70    3.60
   2  18  -9    8.20    2.10
   2  18  -9   15.30    4.50
   1 -18  -9   12.80    4.40
   1  18  -9    8.00    2.00
   1  18  -9   12.20    4.40
  -1  18   9    9.00    3.90
   0 -18  -9    1.80    3.40
   0  18  -9    6.00    3.70
   0  18   9    8.70    3.50
  -1 -18  -9    0.60    3.60
   1  18   9   -1.20    2.60
  -1  18  -9   -0.40    3.10
  -2 -18  -9    4.90    3.60
  -2  18  -9    0.80    3.20
   2  18   9    4.10    3.30
  12   0 -10   59.49    7.20
  11   0 -10    1.60    2.90
  10   0 -10  202.38   10.10
  10   0 -10  169.88    6.50
 -10   0  10  155.28    6.50
   9   0 -10    6.10    1.70
   9   0 -10    8.10    2.90
  -9   0  10    3.60    1.60
   8   0 -10    1.50    2.00
   8   0 -10    0.60    1.30
  -8   0  10    1.10    1.20
  -7   0  10   31.00    2.70
   7   0 -10   30.20    2.90
   7   0 -10   32.50    3.90
   6   0 -10   44.70    3.60
   6   0 -10   37.30    3.10
  -6   0  10   39.90    2.90
   5   0 -10   51.39    3.50
   5   0 -10   52.49    3.60
   5   0 -10   50.39    3.40
  -5   0  10   53.69    3.30
   4   0 -10   40.80    3.10
   4   0 -10   42.50    3.00
  -4   0  10   39.60    2.90
   4   0 -10   40.50    2.80
   3   0 -10    3.10    1.40
   3   0 -10    4.70    1.30
   3   0 -10    4.70    1.30
  -3   0  10    1.70    1.10
  -2   0  10  672.33   22.40
  -2   0  10  700.73   21.80
   2   0 -10  685.63   22.60
   2   0 -10  693.23   21.70
   1   0 -10   58.69    2.80
  -1   0  10   53.49    2.80
   1   0 -10   58.59    3.60
  -1   0  10   57.19    3.40
   0   0  10  881.41   26.70
   0   0  10  843.52   27.60
   0   0 -10  872.31   26.80
   0   0 -10  855.81   27.80
  -1   0 -10   20.50    2.10
   1   0  10   19.90    1.90
  -1   0 -10   19.20    2.40
   1   0  10   21.40    2.60
  -2   0 -10  102.29    5.00
   2   0  10  108.89    4.50
  -2   0 -10  101.69    4.50
   2   0  10  101.69    4.80
   3   0  10  180.48    7.20
  -3   0 -10  178.28    7.40
  -3   0 -10  175.58    7.10
   3   0  10  176.18    7.00
   4   0  10  651.23   21.20
   4   0  10  616.64   20.90
  -4   0 -10  662.63   21.20
  -4   0 -10  628.64   21.60
   5   0  10  322.97   11.30
  -5   0 -10  305.97   11.90
  -5   0 -10  319.67   11.50
   5   0  10  304.77   11.80
   6   0  10    9.70    1.70
   6   0  10   11.50    2.50
  -6   0 -10    5.80    1.70
  -7   0 -10  142.99    6.00
   7   0  10  135.49    5.70
   7   0  10  125.49    7.10
   8   0  10  138.89    5.60
   8   0  10  154.78    7.90
  -8   0 -10  138.99    5.70
   9   0  10   16.10    3.30
  -9   0 -10   15.30    2.10
  10   0  10  187.28   10.30
  11   0  10   -0.40    2.10
  12  -1 -10   13.70    4.00
  12   1 -10   14.30    4.10
  11  -1 -10   17.60    4.20
  11   1 -10    7.70    3.20
 -10  -1  10  104.39    4.90
  10  -1 -10  122.79    7.90
  10  -1 -10  119.09    4.90
  10   1 -10  119.49    5.00
  10   1 -10  124.99    8.00
  -9  -1  10    1.30    1.40
   9  -1 -10    1.60    1.40
   9  -1 -10    4.20    2.80
   9   1 -10   -0.10    2.20
  -9   1  10   -1.60    1.30
   9   1 -10    1.80    1.50
   8  -1 -10   43.20    3.20
   8  -1 -10   44.90    5.00
  -8  -1  10   43.60    3.00
   8   1 -10   34.70    3.00
  -8   1  10   42.80    3.00
   8   1 -10   42.40    4.70
   7  -1 -10   -1.10    1.30
  -7  -1  10   -0.50    1.10
   7  -1 -10    2.00    1.90
   7   1 -10   -0.70    1.30
   7   1 -10   -1.20    1.60
  -7   1  10   -0.60    1.10
   6  -1 -10  164.18    7.60
   6  -1 -10  162.88    7.10
  -6  -1  10  165.38    6.90
  -6   1  10  168.28    6.80
   6   1 -10  170.88    7.60
   6   1 -10  166.38    7.10
   5  -1 -10  217.18    8.80
   5  -1 -10  221.68    9.00
  -5  -1  10  228.98    8.70
   5  -1 -10  227.88    8.80
   5   1 -10  236.48    9.00
   5   1 -10  214.08    8.70
   5   1 -10  228.58    8.90
  -5   1  10  224.38    8.60
   4  -1 -10  145.79    6.30
  -4  -1  10  147.19    6.20
   4  -1 -10  137.99    6.10
   4  -1 -10  142.79    6.70
  -4   1  10  138.79    6.10
   4   1 -10  137.49    5.90
   4   1 -10  142.39    6.00
   4   1 -10  148.19    6.40
   3  -1 -10    1.90    1.20
   3  -1 -10    1.10    1.00
  -3  -1  10    3.20    1.30
   3   1 -10    1.00    1.20
   3   1 -10    0.90    0.80
   3   1 -10    0.00    0.80
  -3   1  10    1.40    1.20
  -3   1  10    0.50    1.00
   2  -1 -10  253.47    9.60
  -2  -1  10  255.47    8.80
  -2  -1  10  246.68    9.50
   2  -1 -10  248.38    8.90
   2   1 -10  264.47    9.70
  -2   1  10  252.57    9.00
  -2   1  10  252.27    9.50
   2   1 -10  247.38    8.60
  -1  -1  10  357.86   12.90
   1  -1 -10  366.86   13.00
  -1  -1  10  372.16   11.90
   1  -1 -10  364.06   12.20
   1   1 -10  374.56   13.10
  -1   1  10  361.06   12.80
  -1   1  10  369.06   12.20
   1   1 -10  370.66   11.90
   0  -1  10  448.26   15.40
   0  -1 -10  442.26   14.70
   0  -1 -10  459.25   15.50
   0  -1  10  452.05   14.20
   0   1 -10  451.45   15.50
   0   1  10  449.16   14.60
   0   1  10  449.16   15.30
   0   1 -10  445.46   14.30
   1  -1  10 1271.47   40.70
  -1  -1 -10 1291.87   40.10
  -1  -1 -10 1325.87   40.80
   1  -1  10 1315.37   39.60
  -1   1 -10 1316.77   40.90
   1   1  10 1281.37   40.60
  -1   1 -10 1321.67   39.80
   1   1  10 1292.87   40.00
  -2  -1 -10  156.88    6.70
  -2  -1 -10  155.58    6.30
   2  -1  10  158.58    5.90
   2  -1  10  158.48    6.60
  -2   1 -10  148.99    5.90
   2   1  10  158.98    6.20
  -2   1 -10  154.08    6.70
   2   1  10  152.88    6.50
  -3  -1 -10  946.81   30.30
   3  -1  10  987.00   30.00
   3  -1  10  920.31   30.30
  -3  -1 -10  968.20   30.50
   3   1  10  932.81   30.20
   3   1  10  960.40   30.20
  -3   1 -10  971.90   30.50
  -3   1 -10  931.31   29.90
   4  -1  10   26.40    2.70
   4  -1  10   24.10    2.40
  -4  -1 -10   29.10    3.10
  -4  -1 -10   24.10    2.90
   4   1  10   26.70    3.00
  -4   1 -10   27.10    2.90
  -4   1 -10   22.90    2.30
   4   1  10   23.20    2.20
   5  -1  10  666.33   21.70
  -5  -1 -10  657.43   21.30
   5  -1  10  624.24   21.10
  -5   1 -10  617.34   21.60
   5   1  10  641.94   21.10
   5   1  10  647.04   21.90
  -5   1 -10  667.33   21.40
   6  -1  10    2.40    1.10
  -6  -1 -10    4.10    1.60
   6  -1  10    2.40    1.90
  -6   1 -10    1.80    1.30
   6   1  10    2.70    1.70
   6   1  10    3.00    1.20
   7  -1  10  512.15   17.70
   7  -1  10  553.34   19.50
  -7  -1 -10  547.45   18.00
  -7   1 -10  558.44   18.00
   7   1  10  535.75   17.70
   7   1  10  537.45   19.60
   8  -1  10   31.90    2.30
   8  -1  10   45.90    5.10
  -8  -1 -10   34.40    2.60
   8   1  10   48.50    5.30
   8   1  10   34.20    2.40
  -8   1 -10   34.20    2.50
   9  -1  10   33.70    4.40
  -9  -1 -10   33.70    2.30
   9   1  10   36.00    4.70
  10   1  10   73.39    6.20
  11  -1  10    0.30    2.20
  11   1  10   -2.30    2.10
  12  -2 -10   49.20    6.70
  12   2 -10   40.10    6.20
  11  -2 -10    2.30    2.80
  11   2 -10    2.80    2.70
  10  -2 -10    1.30    1.20
 -10  -2  10   -1.50    1.20
  10  -2 -10    1.70    2.30
  10   2 -10    0.20    2.50
  10   2 -10   -2.00    1.10
  -9  -2  10  102.19    4.80
   9  -2 -10   95.29    4.80
   9  -2 -10   99.69    6.80
   9   2 -10   93.39    4.70
  -9   2  10   87.89    4.60
   9   2 -10  112.19    7.00
  -8  -2  10    2.10    1.40
   8  -2 -10    3.90    1.60
   8  -2 -10    6.00    2.50
  -8   2  10    2.20    1.30
   8   2 -10    3.50    2.50
   8   2 -10    4.20    1.60
   7  -2 -10  168.18    8.20
   7  -2 -10  165.38    7.10
  -7  -2  10  170.28    7.00
   7   2 -10  167.48    8.00
  -7   2  10  162.28    6.80
   7   2 -10  164.98    7.00
  -6  -2  10    3.50    1.50
   6  -2 -10    7.80    3.60
   6  -2 -10    3.40    1.60
   6   2 -10    4.50    1.70
   6   2 -10    3.40    1.60
  -6   2  10    3.00    1.40
   5  -2 -10  264.57    9.80
   5  -2 -10  236.28    9.70
  -5  -2  10  250.57    9.50
   5  -2 -10  248.28    9.60
  -5   2  10  236.58    9.20
   5   2 -10  237.08    9.40
   5   2 -10  252.87    9.60
   5   2 -10  248.28    9.60
   4  -2 -10    1.10    1.20
  -4  -2  10    0.80    1.10
   4  -2 -10    0.30    1.10
   4  -2 -10    1.00    1.20
   4   2 -10    2.00    1.30
   4   2 -10    1.40    1.10
  -4   2  10    0.20    1.00
   4   2 -10    1.40    1.00
  -3  -2  10  104.29    5.10
   3  -2 -10   99.29    5.00
   3  -2 -10  102.79    4.70
   3   2 -10  101.49    4.30
  -3   2  10  101.69    4.80
   3   2 -10  101.69    5.10
  -3   2  10   95.89    4.80
   3   2 -10  104.99    4.50
   2  -2 -10  355.56   12.70
  -2  -2  10  366.06   12.80
   2  -2 -10  342.67   12.10
   2   2 -10  362.26   12.80
  -2   2  10  352.36   12.60
   2   2 -10  361.16   11.60
   2   2 -10  360.76   11.70
  -2   2  10  350.96   12.20
  -1  -2  10  211.08    8.50
   1  -2 -10  218.08    8.60
   1  -2 -10  216.38    7.90
  -1  -2  10  215.68    7.40
   1   2 -10  222.58    7.30
  -1   2  10  222.68    8.00
   1   2 -10  218.68    8.60
  -1   2  10  216.78    8.40
   0  -2 -10   53.29    3.00
   0  -2  10   57.29    2.40
   0  -2  10   55.29    3.50
   0  -2 -10   57.19    3.60
   0   2  10   51.79    3.30
   0   2  10   58.89    3.10
   0   2 -10   55.79    3.60
  -1  -2 -10   45.00    3.30
   1  -2  10   47.20    3.20
  -1  -2 -10   48.60    2.90
  -1   2 -10   48.10    2.30
   1   2  10   46.80    2.80
   1   2  10   51.79    3.20
  -1   2 -10   51.79    3.40
   2  -2  10  238.28    9.30
   2  -2  10  260.47    8.50
  -2  -2 -10  238.18    9.20
  -2  -2 -10  247.38    9.50
  -2   2 -10  259.47    9.60
   2   2  10  251.57    9.20
   2   2  10  241.78    9.30
  -2   2 -10  247.98    8.60
   3  -2  10  125.89    5.70
  -3  -2 -10  132.29    5.90
   3  -2  10  132.09    5.30
  -3  -2 -10  122.19    5.80
  -3   2 -10  123.39    5.20
   3   2  10  127.09    5.70
  -3   2 -10  126.49    5.90
   3   2  10  130.49    5.70
   4  -2  10  471.15   16.30
  -4  -2 -10  480.65   16.40
   4  -2  10  489.05   16.10
  -4  -2 -10  465.95   16.70
   4   2  10  487.65   16.20
   4   2  10  489.95   16.70
  -4   2 -10  484.25   16.40
  -4   2 -10  460.85   16.00
   5  -2  10   41.30    3.00
   5  -2  10   48.20    3.40
  -5  -2 -10   41.80    3.30
   5   2  10   45.10    3.60
   5   2  10   41.00    2.90
  -5   2 -10   44.80    3.30
  -5   2 -10   39.40    3.00
   6  -2  10  312.27   11.40
   6  -2  10  320.47   12.30
  -6  -2 -10  325.97   11.70
  -6   2 -10  332.17   11.70
   6   2  10  315.67   12.70
   6   2  10  323.97   11.40
   7  -2  10   32.10    3.70
   7  -2  10   25.20    2.30
  -7  -2 -10   31.50    2.80
   7   2  10   25.40    2.40
   7   2  10   34.30    4.10
  -7   2 -10   26.30    2.60
   8  -2  10  130.09    5.30
  -8  -2 -10  126.89    5.50
   8  -2  10  130.49    7.20
  -8   2 -10  121.39    5.30
   8   2  10  131.39    7.50
   9  -2  10   26.60    1.90
  -9  -2 -10   22.00    1.80
  -9  -2 -10   28.30    2.20
   9  -2  10   32.90    4.40
   9   2  10   38.60    4.90
  10  -2  10   63.29    5.90
  10   2  10   82.19    6.40
  11  -2  10    3.70    2.60
  11   2  10    5.10    3.00
  12  -3 -10    2.40    3.30
  12   3 -10    7.00    3.70
 -11  -3  10   10.60    1.60
  11  -3 -10   12.00    3.90
  11   3 -10    9.80    1.60
  11   3 -10   18.10    4.20
  10  -3 -10    4.70    1.50
 -10  -3  10    6.10    1.70
  10  -3 -10    6.70    1.50
  10  -3 -10   10.00    3.20
  10   3 -10    4.40    1.50
  10   3 -10   12.80    3.50
   9  -3 -10    2.70    2.40
   9  -3 -10    4.70    1.70
  -9  -3  10    7.50    1.90
   9   3 -10    4.10    2.80
   9   3 -10    5.60    1.80
   8  -3 -10    1.30    1.50
   8  -3 -10   -0.20    2.00
  -8  -3  10    1.10    1.50
   8   3 -10   -0.30    1.30
  -8   3  10    1.30    1.20
   8   3 -10    0.20    1.70
   7  -3 -10    9.90    2.20
   7  -3 -10   12.60    2.90
   7   3 -10   14.00    3.00
  -7   3  10    8.30    2.00
   7   3 -10   12.50    2.20
  -6  -3  10  182.88    8.20
   6  -3 -10  175.48    7.50
   6  -3 -10  181.18    8.20
  -6   3  10  169.08    7.80
   6   3 -10  177.68    7.90
   6   3 -10  179.38    7.50
   5  -3 -10   61.79    3.90
   5  -3 -10   65.29    4.20
   5   3 -10   58.79    4.10
   5   3 -10   64.99    4.00
   5   3 -10   64.69    4.00
  -5   3  10   63.09    4.20
   4  -3 -10   51.69    3.50
   4  -3 -10   50.99    3.30
  -4   3  10   50.19    3.60
  -4   3  10   49.50    3.60
   4   3 -10   53.09    3.60
   4   3 -10   54.69    3.20
   4   3 -10   50.59    3.00
  -3  -3  10    0.10    1.10
   3  -3 -10    1.50    1.20
   3   3 -10    0.80    0.90
   3   3 -10    1.80    1.30
   3   3 -10    1.50    0.90
  -3   3  10    0.10    1.10
  -3   3  10    0.20    1.00
   2  -3 -10  212.08    8.40
  -2  -3  10  222.88    8.50
   2  -3 -10  199.88    7.80
   2   3 -10  213.28    8.50
   2   3 -10  209.98    7.50
  -2   3  10  209.78    8.20
   2   3 -10  207.68    7.10
  -2   3  10  195.48    7.90
   1  -3 -10   45.10    2.80
  -1  -3  10   46.10    3.20
   1  -3 -10   46.90    3.30
  -1   3  10   49.60    2.90
   1   3 -10   46.50    2.10
   1   3 -10   46.80    3.40
  -1   3  10   46.40    3.10
   1   3 -10   46.40    2.00
   0  -3  10  135.99    4.50
   0  -3 -10  130.09    5.60
   0  -3  10  132.09    6.00
   0  -3 -10  128.89    6.00
   0   3  10  126.39    5.80
   0   3  10  129.99    5.50
   0   3 -10  144.89    6.30
   0   3 -10  139.89    4.50
   1  -3  10    2.20    0.60
   1  -3  10    0.80    1.00
  -1  -3 -10    1.00    0.90
  -1  -3 -10    1.40    1.20
  -1   3 -10    2.00    0.60
  -1   3 -10    2.60    1.40
   1   3  10    3.50    1.20
   1   3  10    1.00    1.10
  -2  -3 -10  114.39    5.60
   2  -3  10  114.69    5.50
   2  -3  10  121.19    4.50
   2   3  10  120.19    5.90
  -2   3 -10  126.19    5.80
   2   3  10  122.99    5.40
  -2   3 -10  118.99    4.50
  -3  -3 -10   60.99    3.80
   3  -3  10   60.39    3.10
   3  -3  10   61.29    3.70
  -3  -3 -10   61.29    3.80
   3   3  10   65.19    3.80
  -3   3 -10   56.09    3.00
   3   3  10   60.99    4.00
  -3   3 -10   65.19    3.90
   4  -3  10   24.60    2.70
  -4  -3 -10   26.80    2.90
   4  -3  10   23.40    2.20
  -4   3 -10   21.20    2.00
  -4   3 -10   26.80    3.00
   4   3  10   26.00    3.00
   5  -3  10  146.09    6.40
  -5  -3 -10  151.28    6.60
   5  -3  10  144.79    6.30
  -5   3 -10  149.19    6.50
  -5   3 -10  136.49    6.20
   5   3  10  139.79    7.00
   6  -3  10    8.70    2.20
   6  -3  10   11.20    2.00
  -6  -3 -10    6.10    1.80
   6   3  10    8.80    1.90
  -6   3 -10   13.20    2.20
   6   3  10    6.80    2.20
  -7  -3 -10  161.28    7.00
   7  -3  10  156.78    6.70
   7  -3  10  168.68    7.90
   7   3  10  175.48    8.50
  -7   3 -10  173.28    6.90
   7   3  10  162.48    6.70
  -8  -3 -10    2.60    1.20
   8  -3  10    3.30    1.20
   8  -3  10    6.20    2.30
  -8  -3 -10    3.20    1.50
  -8   3 -10    4.70    1.30
   8   3  10    4.00    2.30
  -9  -3 -10   28.70    2.30
   9  -3  10   28.50    4.20
  -9  -3 -10   23.20    2.00
   9  -3  10   23.10    1.90
  -9   3 -10   26.60    1.90
   9   3  10   28.00    4.30
  10  -3  10    2.00    2.40
  10   3  10    5.00    2.70
  12  -4 -10    2.50    2.90
  12   4 -10   -4.30    2.50
 -11  -4  10   34.80    2.70
  11  -4 -10   30.20    2.40
  11  -4 -10   29.80    4.80
  11   4 -10   45.20    6.20
  11   4 -10   34.20    2.60
  10  -4 -10    2.00    2.70
 -10  -4  10   -0.60    1.40
  10  -4 -10   -0.50    1.30
  10  -4 -10    0.10    1.30
  10   4 -10    0.00    1.40
  10   4 -10    1.50    2.60
   9  -4 -10   75.89    4.30
   9  -4 -10   59.79    3.90
   9  -4 -10   72.39    5.90
   9   4 -10   77.39    5.90
   9   4 -10   70.69    4.20
   8  -4 -10   -0.30    2.00
   8  -4 -10    0.10    1.60
  -8  -4  10    1.90    1.50
   8   4 -10    2.00    2.30
  -8   4  10   -0.40    1.30
   8   4 -10   -0.80    1.40
   7  -4 -10  122.79    5.90
  -7  -4  10  124.99    6.00
   7  -4 -10  120.19    6.80
   7   4 -10  123.89    6.00
  -7   4  10  107.79    5.50
   7   4 -10  125.79    6.70
   6  -4 -10    9.10    2.20
  -6  -4  10    5.80    1.90
  -6  -4  10    5.00    1.80
   6  -4 -10    5.20    2.00
   6   4 -10    7.30    2.00
   6   4 -10    3.10    1.60
  -6   4  10    6.60    1.70
   5  -4 -10   18.70    2.60
  -5  -4  10   24.20    2.90
   5  -4 -10   16.90    2.60
   5   4 -10   26.50    2.80
   5   4 -10   23.00    2.90
  -5   4  10   20.60    2.50
   4  -4 -10  120.29    5.90
  -4  -4  10  117.69    5.90
   4  -4 -10  124.49    5.80
   4   4 -10  130.59    6.10
   4   4 -10  127.59    5.40
  -4   4  10  123.49    5.70
  -4   4  10  125.69    6.10
   3  -4 -10   76.09    4.50
  -3  -4  10   78.79    4.50
   3  -4 -10   79.09    4.20
   3   4 -10   79.59    4.60
   3   4 -10   77.99    3.60
  -3   4  10   82.99    4.50
   3   4 -10   86.79    3.80
  -3   4  10   75.39    4.30
   2  -4 -10  223.28    8.90
  -2  -4  10  224.38    8.90
   2  -4 -10  224.38    9.00
   2   4 -10  221.08    9.00
   2   4 -10  224.78    7.40
  -2   4  10  220.28    8.70
   2   4 -10  228.18    7.50
  -2   4  10  207.98    8.50
  -1  -4  10   80.59    4.50
   1  -4 -10   74.89    4.00
   1  -4 -10   75.29    4.30
   1   4 -10   72.79    4.40
  -1   4  10   73.09    4.10
   1   4 -10   82.99    2.80
   1   4 -10   82.59    2.80
  -1   4  10   77.79    4.00
   0  -4  10  119.69    5.70
   0  -4 -10  120.59    5.70
   0  -4 -10  118.89    5.30
   0   4  10  128.29    5.60
   0   4  10  111.39    5.20
   0   4 -10  113.79    5.70
  -1  -4 -10   13.40    2.20
   1  -4  10   12.00    2.10
   1  -4  10   10.90    0.80
  -1  -4 -10   10.50    2.00
  -1   4 -10   12.70    2.20
   1   4  10   13.50    2.00
  -1   4 -10   11.90    0.80
   1   4  10   14.70    2.20
  -2  -4 -10  201.28    8.10
   2  -4  10  190.38    8.10
  -2  -4 -10  196.98    8.00
   2  -4  10  204.08    6.60
   2   4  10  196.78    7.90
   2   4  10  191.08    7.80
  -2   4 -10  197.58    8.20
  -3  -4 -10    6.60    1.80
   3  -4  10    7.80    1.30
  -3  -4 -10    5.50    1.70
   3  -4  10    4.00    1.40
   3   4  10    6.30    1.60
  -3   4 -10    5.90    1.80
  -3   4 -10    5.70    1.10
   3   4  10    6.20    1.80
   4  -4  10  229.88    8.10
  -4  -4 -10  205.68    8.60
   4  -4  10  209.98    8.60
  -4   4 -10  206.88    7.90
   4   4  10  216.88    9.00
  -4   4 -10  218.68    8.70
   4   4  10  209.58    8.40
   5  -4  10  117.49    5.60
  -5  -4 -10  125.59    5.90
   5  -4  10  120.29    5.70
   5   4  10  114.79    5.50
  -5   4 -10  122.29    5.80
   5   4  10  115.49    6.30
   6  -4  10   88.59    5.10
   6  -4  10   96.69    5.30
  -6  -4 -10   98.29    5.10
  -6   4 -10   87.79    5.40
   6   4  10  105.89    6.10
  -6   4 -10   96.89    4.90
   6   4  10   95.39    4.70
  -7  -4 -10   29.20    3.20
   7  -4  10   30.10    3.80
   7  -4  10   21.70    2.80
  -7   4 -10   33.50    3.20
   7   4  10   29.30    3.80
  -8  -4 -10   22.00    2.70
   8  -4  10   28.50    3.90
   8  -4  10   26.00    2.60
  -8  -4 -10   25.60    2.60
  -8   4 -10   29.20    2.80
   8   4  10   33.10    4.60
   9  -4  10   28.20    4.10
  -9  -4 -10   22.80    2.40
   9  -4  10   19.40    1.90
  -9  -4 -10   19.30    2.10
  -9   4 -10   22.20    1.90
  10  -4  10    7.40    2.80
  10   4  10    6.40    2.90
  12  -5 -10   -0.20    2.90
  12   5 -10    4.30    3.60
  11  -5 -10    4.60    1.40
  11  -5 -10    3.10    2.90
  11   5 -10    3.00    1.60
  11   5 -10    5.20    3.30
  10  -5 -10    0.90    1.50
  10  -5 -10    1.20    1.50
  10   5 -10    5.60    2.80
  10   5 -10   -0.30    1.60
   9  -5 -10   -1.30    2.30
   9  -5 -10    0.00    1.30
  -9  -5  10    3.30    1.80
   9  -5 -10    1.80    1.60
   9   5 -10    1.50    2.40
   9   5 -10    1.40    1.60
  -8  -5  10   25.70    3.20
   8  -5 -10   36.00    3.30
   8  -5 -10   35.60    4.50
   8   5 -10   32.20    3.40
   8   5 -10   34.80    4.30
  -7  -5  10   26.20    3.30
   7  -5 -10   37.10    4.50
   7  -5 -10   34.50    3.30
   7   5 -10   33.70    3.90
   7   5 -10   28.80    3.30
  -7   5  10   29.20    2.80
  -6  -5  10    5.80    2.00
   6  -5 -10    3.20    1.70
  -6  -5  10    8.70    2.20
   6  -5 -10    9.80    2.50
   6   5 -10    7.90    2.10
   6   5 -10    7.00    2.00
  -6   5  10    7.20    1.80
   5  -5 -10   -1.40    1.10
  -5  -5  10   -0.10    1.30
   5   5 -10    1.40    1.50
   5   5 -10    1.00    1.30
  -5   5  10   -0.40    1.50
  -5   5  10    2.10    1.30
   4  -5 -10    5.30    1.80
  -4  -5  10    5.80    1.30
  -4  -5  10    5.00    1.70
   4   5 -10    8.80    1.70
  -4   5  10    8.60    2.10
   4   5 -10    4.20    1.70
  -4   5  10    3.90    1.40
   3  -5 -10   54.09    3.80
   3  -5 -10   54.69    3.50
  -3  -5  10   52.19    3.80
  -3   5  10   57.69    3.80
  -3   5  10   57.29    3.60
   3   5 -10   58.79    3.00
   3   5 -10   61.19    4.00
   3   5 -10   52.19    2.80
   2  -5 -10   19.50    2.70
   2  -5 -10   16.30    2.10
  -2  -5  10   25.30    3.10
   2   5 -10   23.60    1.60
   2   5 -10   24.80    2.90
   2   5 -10   24.70    1.80
  -2   5  10   20.20    2.60
  -2   5  10   17.10    2.40
   1  -5 -10    0.90    0.90
   1  -5 -10    0.00    1.10
  -1  -5  10    0.00    1.00
   1   5 -10    0.30    1.20
  -1   5  10    4.10    1.30
  -1   5  10   -0.20    0.90
   0  -5  10    7.10    1.80
   0  -5 -10    8.90    2.00
   0  -5 -10    7.30    1.60
   0   5  10    7.10    1.50
   0   5 -10    6.00    1.80
   0   5  10    4.70    1.50
   1  -5  10   48.40    3.50
  -1  -5 -10   49.10    3.60
  -1  -5 -10   47.00    3.30
   1   5  10   49.30    3.30
   1   5  10   52.59    3.40
  -1   5 -10   58.99    3.80
  -2  -5 -10   51.19    3.50
   2  -5  10   54.19    2.20
   2  -5  10   54.39    3.60
  -2  -5 -10   54.99    3.80
  -2   5 -10   52.79    3.70
   2   5  10   48.30    3.30
   2   5  10   49.50    3.50
   3  -5  10   41.10    3.20
   3  -5  10   46.30    2.40
  -3  -5 -10   38.80    3.30
   3   5  10   38.50    3.00
   3   5  10   46.60    3.50
  -3   5 -10   47.40    3.50
  -3   5 -10   38.30    2.20
  -4  -5 -10   16.70    2.60
   4  -5  10   15.20    2.40
   4  -5  10   23.90    2.40
   4   5  10   15.60    2.30
   4   5  10   20.00    3.10
  -4   5 -10   17.60    2.70
  -4   5 -10   21.00    2.10
   5  -5  10   15.20    2.20
   5  -5  10   16.50    2.40
  -5  -5 -10   17.40    2.70
  -5   5 -10   15.90    2.10
  -5   5 -10   18.40    2.60
   5   5  10   15.40    2.30
   5   5  10   16.10    2.80
   6  -5  10   13.60    2.30
  -6  -5 -10   15.90    2.70
   6  -5  10   18.90    2.80
   6   5  10   18.90    3.30
  -6   5 -10   18.50    2.60
  -6   5 -10   13.20    2.20
   7  -5  10   32.00    2.80
  -7  -5 -10   34.30    3.30
  -7  -5 -10   32.00    2.90
   7  -5  10   42.90    4.40
   7   5  10   34.00    4.30
  -7   5 -10   36.40    3.00
  -8  -5 -10   28.30    3.20
  -8  -5 -10   22.60    2.60
   8  -5  10   28.90    4.10
   8   5  10   23.60    4.00
  -8   5 -10   26.50    2.50
  -9  -5 -10   -0.20    1.20
  -9  -5 -10   -0.20    1.40
   9  -5  10    0.40    2.00
   9  -5  10    1.00    1.20
   9   5  10   -0.10    2.20
  -9   5 -10    1.20    1.10
  10  -5  10   19.40    3.70
  10   5  10   19.00    4.20
  11  -6 -10    1.30    1.30
  11  -6 -10   -2.30    2.50
  11   6 -10   -2.00    1.50
  11   6 -10   -0.80    2.80
  10  -6 -10    1.90    1.60
  10  -6 -10    9.80    3.80
  10  -6 -10    3.90    1.90
 -10  -6  10    6.30    2.10
  10   6 -10    5.80    2.00
  10   6 -10    9.60    3.20
   9  -6 -10    2.70    1.70
   9  -6 -10    5.20    1.90
   9  -6 -10   10.60    3.50
   9   6 -10    1.10    1.90
   9   6 -10    6.80    2.80
   8  -6 -10    2.90    2.40
   8  -6 -10    0.00    1.30
   8  -6 -10    3.90    1.80
   8   6 -10    3.10    1.90
   8   6 -10    1.40    2.00
   7  -6 -10   28.20    3.30
   7  -6 -10   28.40    3.90
   7   6 -10   29.20    3.50
   7   6 -10   20.30    3.30
   6  -6 -10    0.00    1.40
   6  -6 -10    0.70    1.80
   6   6 -10    0.30    1.60
   6   6 -10   -0.70    1.40
  -6   6  10    1.30    1.30
   5  -6 -10  103.69    5.50
   5   6 -10   97.79    5.10
   5   6 -10   96.19    5.50
  -5   6  10   96.59    5.80
  -5   6  10  106.89    5.30
  -4  -6  10    1.10    1.50
   4  -6 -10    2.00    1.50
  -4  -6  10    0.90    1.10
   4   6 -10    1.80    1.20
  -4   6  10    1.90    1.70
   4   6 -10   -1.10    1.30
  -4   6  10    2.80    1.50
  -3  -6  10   97.19    4.10
  -3  -6  10   94.39    5.30
   3  -6 -10  101.49    5.40
  -3   6  10   94.59    5.10
   3   6 -10  102.29    5.50
   3   6 -10  101.09    4.30
  -3   6  10  100.39    5.30
  -2  -6  10    2.50    1.40
   2  -6 -10    5.00    1.40
   2  -6 -10    4.60    1.70
  -2   6  10    2.70    1.20
   2   6 -10    4.20    1.70
  -2   6  10    4.20    1.70
   2   6 -10    5.90    0.90
   2   6 -10    5.30    0.90
   1  -6 -10   19.00    2.30
  -1  -6  10   21.50    2.80
   1  -6 -10   21.20    2.80
  -1   6  10   14.70    2.40
  -1   6  10   21.90    2.60
   1   6 -10   21.50    2.90
   0  -6 -10    2.60    1.60
   0  -6  10    1.60    1.20
   0  -6 -10    0.90    1.00
   0   6  10    0.70    1.10
   0   6 -10    0.50    1.40
   0   6  10    0.00    1.00
  -1  -6 -10   14.40    2.50
   1  -6  10   10.60    2.10
  -1  -6 -10   16.70    2.70
  -1   6 -10   14.60    2.60
   1   6  10   14.00    2.20
   1   6  10   12.60    2.20
   2  -6  10    0.70    0.40
  -2  -6 -10   -0.10    1.40
   2  -6  10    1.10    1.10
   2  -6  10    1.20    0.50
  -2   6 -10    0.60    1.30
   2   6  10    0.20    1.20
   2   6  10    0.30    1.00
  -3  -6 -10   42.60    3.60
   3  -6  10   43.90    2.30
   3  -6  10   37.60    3.30
   3  -6  10   43.70    2.20
   3   6  10   41.50    3.60
   3   6  10   43.50    4.10
  -3   6 -10   40.40    3.50
   4  -6  10    1.40    1.30
   4  -6  10   -0.30    0.90
  -4  -6 -10    0.50    1.60
  -4   6 -10    1.80    1.50
   4   6  10    2.80    1.70
   5  -6  10   18.10    2.50
   5  -6  10   11.50    2.30
  -5  -6 -10   14.70    2.80
  -5   6 -10   17.80    2.60
  -5   6 -10   15.50    2.00
   5   6  10   17.50    2.90
   6  -6  10   22.00    2.90
  -6  -6 -10   21.80    3.10
   6  -6  10   16.40    2.60
   6   6  10   16.00    3.10
  -6   6 -10   25.10    2.90
  -6   6 -10   17.60    2.40
  -7  -6 -10   77.09    4.90
   7  -6  10   81.99    5.10
   7  -6  10   65.59    4.30
  -7   6 -10   83.49    4.60
   7   6  10   93.49    6.20
  -8  -6 -10   14.00    2.60
   8  -6  10   15.30    3.00
   8  -6  10   12.10    2.10
  -8  -6 -10   10.80    2.10
  -8   6 -10   19.00    2.50
   8   6  10    7.50    2.70
   9  -6  10    5.40    2.40
  -9  -6 -10   10.50    2.20
  -9   6 -10    6.30    1.50
   9   6  10   11.90    3.20
 -10  -6 -10   13.40    1.90
  10  -6  10   18.30    3.60
  10   6  10   14.00    3.80
  11  -7 -10    4.10    3.30
  11  -7 -10    1.80    1.70
  11   7 -10    3.70    1.90
  11   7 -10    5.20    3.50
  10  -7 -10    8.60    3.50
  10  -7 -10    4.20    2.00
  10   7 -10    4.20    2.10
  10   7 -10    5.80    3.00
   9  -7 -10    5.20    2.90
   9  -7 -10   -0.40    1.60
   9   7 -10    2.20    2.70
   9   7 -10    4.00    2.30
   8  -7 -10    1.80    2.40
   8  -7 -10    3.00    1.80
   8   7 -10   -0.20    2.00
   7  -7 -10   74.69    4.80
   7  -7 -10   79.99    5.70
   7   7 -10   69.99    5.50
   7   7 -10   74.19    5.20
   6  -7 -10    3.80    2.00
   6  -7 -10    4.40    2.20
   6   7 -10    2.00    1.70
   6   7 -10    6.80    2.30
   5  -7 -10   34.90    3.40
  -5  -7  10   33.50    3.50
   5   7 -10   29.40    3.50
   5   7 -10   31.50    3.00
  -5   7  10   34.00    4.10
  -4  -7  10   -0.10    1.00
   4  -7 -10    1.20    1.50
   4   7 -10    2.30    1.70
   4   7 -10    1.60    1.20
  -4   7  10    0.50    1.50
  -3  -7  10  126.89    5.00
   3  -7 -10  127.39    6.50
   3   7 -10  129.09    5.10
   3   7 -10  130.69    6.60
  -3   7  10  130.69    7.60
   2  -7 -10    7.00    2.00
   2   7 -10    2.60    1.70
  -2   7  10    8.50    2.00
   2   7 -10    6.60    1.00
   1  -7 -10  133.09    6.40
  -1   7  10  125.19    6.10
   1   7 -10  132.49    6.60
   0  -7 -10   28.30    3.30
   0   7  10   28.70    3.20
   0   7 -10   33.10    3.70
  -1  -7 -10    1.10    1.60
   1   7  10    2.10    1.50
  -1   7 -10    4.20    1.80
  -2  -7 -10   18.50    2.80
  -2   7 -10   20.30    3.00
   2   7  10   17.20    2.80
   3  -7  10   44.00    2.10
  -3  -7 -10   37.10    3.60
   3   7  10   39.60    3.60
  -3   7 -10   42.60    3.60
   4  -7  10    1.30    1.00
   4  -7  10    1.90    1.10
  -4  -7 -10    5.30    2.20
   4   7  10   -0.10    1.50
  -4   7 -10    2.30    1.70
   5  -7  10   63.29    3.70
   5  -7  10   61.59    3.50
  -5  -7 -10   62.29    4.60
  -5   7 -10   63.79    4.40
   5   7  10   61.29    4.90
   6  -7  10    4.40    1.50
  -6  -7 -10    3.80    1.90
   6  -7  10    2.10    1.60
   6   7  10    5.90    2.40
  -6   7 -10    5.20    1.80
   7  -7  10   79.99    5.50
  -7  -7 -10   93.79    5.50
   7   7  10   88.09    6.30
  -7   7 -10   87.09    4.90
   8  -7  10   -0.10    1.80
  -8  -7 -10    0.10    1.60
  -8   7 -10    2.10    1.50
   9  -7  10   11.30    2.80
  -9  -7 -10    7.10    2.30
   9   7  10    1.70    2.30
  -9   7 -10    4.80    1.50
 -10  -7 -10    3.20    1.80
  10  -7  10    3.50    2.40
  10   7  10   -0.30    2.50
  11  -8 -10   12.00    2.60
  11  -8 -10   24.20    5.20
  11   8 -10   16.70    4.20
  10  -8 -10   26.50    4.70
  10  -8 -10   18.30    3.70
  10   8 -10   18.70    3.00
  10   8 -10   16.80    3.90
   9  -8 -10   46.50    4.10
   9  -8 -10   42.30    6.00
   9   8 -10   49.80    5.60
   9   8 -10   45.10    4.20
   8  -8 -10    0.90    1.70
   8  -8 -10    1.90    2.50
   8   8 -10    1.40    2.10
   8   8 -10    1.90    1.90
   7  -8 -10  138.79    6.90
   7  -8 -10  127.39    7.50
   7   8 -10  130.49    6.80
   7   8 -10  119.49    6.90
   6  -8 -10   53.69    4.40
   6  -8 -10   53.99    4.70
   6   8 -10   54.99    4.20
   6   8 -10   53.69    4.50
   5  -8 -10  529.45   18.90
  -5  -8  10  514.75   17.90
  -5   8  10  554.84   19.40
   5   8 -10  527.35   18.10
   5   8 -10  530.65   18.90
   4  -8 -10    1.50    1.60
  -4  -8  10    0.00    1.00
  -4   8  10   -0.40    1.40
   4   8 -10   -1.10    0.90
   4   8 -10    0.40    1.60
   3  -8 -10  121.59    7.20
  -3  -8  10  119.69    4.90
   3   8 -10  121.39    6.50
   3   8 -10  117.39    4.80
  -3   8  10  127.09    6.30
  -2  -8  10   78.89    3.20
   2   8 -10   78.49    3.10
  -2   8  10   84.59    4.90
   2   8 -10   69.69    5.50
  -1   8  10   74.69    5.70
   1   8 -10   83.19    7.70
   0  -8 -10  195.68   10.30
   0   8  10  219.08    9.60
  -1  -8 -10    4.20    2.10
   1   8  10    7.50    2.00
  -2  -8 -10  184.88    8.40
   2   8  10  180.18    8.10
  -2   8 -10  172.88    9.50
   3  -8  10   42.80    2.50
  -3  -8 -10   43.00    4.30
   3   8  10   41.20    4.50
  -3   8 -10   36.40    4.50
   4  -8  10   78.79    3.60
   4  -8  10   83.99    3.80
  -4  -8 -10   82.29    5.40
  -4   8 -10   86.59    5.30
   4   8  10   75.49    5.30
   5  -8  10  130.79    5.80
   5  -8  10  129.09    5.60
  -5  -8 -10  129.79    6.90
  -5   8 -10  135.59    6.80
   6  -8  10   64.99    4.10
   6  -8  10   58.89    3.80
  -6  -8 -10   61.19    4.80
   6   8  10   71.89    5.50
  -6   8 -10   69.99    4.60
  -7  -8 -10   41.70    4.50
   7  -8  10   38.50    4.60
   7   8  10   40.20    5.10
  -8  -8 -10   45.10    4.20
   8  -8  10   42.30    4.60
   8   8  10   42.10    5.70
  -8   8 -10   41.00    3.60
  -9  -8 -10   43.90    6.60
   9  -8  10   47.20    5.10
   9   8  10   40.20    5.40
  -9   8 -10   38.60    3.20
  11  -9 -10    6.80    3.70
  11   9 -10    1.50    3.00
  11   9 -10    1.70    2.30
  10  -9 -10   -0.80    2.70
  10  -9 -10    2.70    2.00
  10   9 -10    2.80    3.30
  10   9 -10   -1.40    2.00
   9  -9 -10   -0.60    3.00
   9  -9 -10    3.10    2.00
   9   9 -10    1.80    2.70
   9   9 -10    2.10    2.20
   8  -9 -10    7.30    3.50
   8  -9 -10    2.90    2.10
   8   9 -10    2.80    2.30
   8   9 -10    5.60    2.50
   7  -9 -10   20.20    3.60
   7  -9 -10   24.10    3.40
   7   9 -10   21.30    3.30
   7   9 -10   20.80    3.40
   6  -9 -10   84.49    5.60
   6   9 -10   84.19    5.60
   6   9 -10   78.79    5.00
  -6   9  10   81.49    6.10
  -5  -9  10  285.47   10.80
   5  -9 -10  281.97   11.70
   5   9 -10  287.17   11.80
  -5   9  10  296.37   12.30
   5   9 -10  291.67   10.90
  -4  -9  10   57.09    3.40
   4  -9 -10   54.39    4.60
   4   9 -10   67.59    4.90
   4   9 -10   58.59    3.50
  -4   9  10   53.09    4.50
  -3  -9  10   35.20    2.30
   3  -9 -10   33.80    4.00
  -3   9  10   34.40    4.10
   3   9 -10   34.00    3.90
   3   9 -10   32.10    2.30
   2  -9 -10   72.09    5.10
   2   9 -10   73.49    5.20
   2   9 -10   74.99    3.10
  -2   9  10   81.59    5.00
   1  -9 -10   12.50    2.60
  -1   9  10   11.00    2.30
   1   9 -10    9.00    2.40
   0  -9 -10  185.58    8.60
   0   9 -10  177.78    8.60
   0   9  10  194.78    8.40
  -1  -9 -10   69.09    4.90
  -1   9 -10   63.29    4.80
   1   9  10   63.09    4.50
  -2  -9 -10  137.09    7.30
  -2   9 -10  156.48    7.60
   2   9  10  146.99    7.30
   3  -9  10  106.79    4.10
  -3  -9 -10   98.79    6.10
   3   9  10  104.89    6.10
  -3   9 -10  117.49    6.30
   4  -9  10    0.10    0.80
   4  -9  10   -0.20    0.90
  -4  -9 -10   -1.70    1.60
   4   9  10    0.20    1.90
  -4   9 -10    1.50    1.80
   5  -9  10  243.18    9.00
  -5  -9 -10  239.28   10.50
   5  -9  10  224.28    8.70
   5   9  10  238.28   10.90
  -5   9 -10  252.17   10.30
  -6  -9 -10   14.10    3.10
   6  -9  10   19.10    2.70
   6  -9  10   12.90    2.10
   6   9  10   13.80    3.00
  -6   9 -10   13.70    2.70
   7  -9  10  120.69    8.80
  -7  -9 -10  114.29    6.70
  -7   9 -10  118.39    6.30
   7   9  10  106.49    8.10
   8  -9  10    5.40    2.20
  -8  -9 -10    0.90    2.00
  -8   9 -10    4.30    1.90
   8   9  10    6.60    3.00
   9  -9  10   23.30    3.60
  -9  -9 -10   16.90    3.10
   9   9  10   22.40    4.50
  10 -10 -10   37.60    4.30
  10 -10 -10   41.80    6.10
  10  10 -10   45.80    4.40
  10  10 -10   36.10    5.60
   9 -10 -10   11.50    3.80
   9 -10 -10   17.20    3.30
   9  10 -10   15.00    3.20
   9  10 -10   11.90    3.30
   8 -10 -10    8.90    3.40
   8 -10 -10    4.30    2.40
   8  10 -10    2.60    2.20
   8  10 -10    5.00    2.50
   7 -10 -10  122.09    6.90
   7 -10 -10  125.09    7.70
   7  10 -10  109.09    6.80
   7  10 -10  112.39    6.60
   6 -10 -10   35.00    4.30
   6  10 -10   28.90    4.00
  -6  10  10   35.00    5.10
   6  10 -10   35.20    3.80
  -5 -10  10   56.29    3.90
   5 -10 -10   69.49    5.20
   5  10 -10   64.59    5.10
   5  10 -10   65.29    4.10
  -5  10  10   61.39    5.20
   4 -10 -10   -1.60    1.80
  -4 -10  10    1.20    1.30
  -4  10  10    4.00    2.40
   4  10 -10    0.50    1.80
   4  10 -10    1.20    1.30
  -3 -10  10  178.68    6.80
   3 -10 -10  189.08    8.80
   3  10 -10  180.08    8.80
  -3  10  10  178.18    8.60
   3  10 -10  184.18    6.80
  -2 -10  10    6.50    1.10
   2 -10 -10    6.80    2.60
   2  10 -10    6.10    2.40
  -2  10  10    7.80    2.50
   1 -10 -10   68.99    5.20
  -1  10  10   71.99    4.90
   1  10 -10   74.39    5.30
   0 -10 -10  305.07   12.50
   0  10 -10  304.77   12.60
   0  10  10  312.57   12.30
  -1 -10 -10  239.78   10.40
   1  10  10  228.78   10.00
  -1  10 -10  233.78   10.30
  -2 -10 -10   31.80    4.00
   2  10  10   34.00    4.10
  -2  10 -10   38.20    4.30
  -3 -10 -10  118.59    7.10
   3 -10  10  137.89    4.80
   3  10  10  124.59    7.10
  -3  10 -10  132.39    7.10
  -4 -10 -10   11.80    3.00
   4 -10  10   13.90    1.60
   4 -10  10   15.50    1.80
  -4  10 -10   13.00    2.80
   4  10  10   15.60    3.00
   5 -10  10   36.10    2.80
  -5 -10 -10   29.40    4.10
   5 -10  10   32.40    2.40
  -5  10 -10   32.60    4.00
   5  10  10   26.40    3.90
   6 -10  10   39.20    3.10
   6 -10  10   50.49    3.50
  -6 -10 -10   45.20    4.90
  -6  10 -10   56.99    4.50
   6  10  10   39.40    4.80
   7 -10  10    1.90    3.00
  -7 -10 -10    5.30    2.60
  -7  10 -10    6.20    2.10
   7  10  10    1.00    2.30
   8 -10  10   76.59    5.20
  -8 -10 -10   66.99    5.60
  -8  10 -10   73.69    5.00
   8  10  10   77.59    6.70
   9 -10  10   16.70    3.20
  -9 -10 -10   10.70    3.00
  -9  10 -10   18.50    3.00
   9  10  10   17.00    4.70
  10 -11 -10   55.79    4.90
  10 -11 -10   51.59    7.20
  10  11 -10   49.30    4.80
  10  11 -10   50.59    6.10
   9 -11 -10   22.80    4.90
   9 -11 -10   23.70    3.70
   9  11 -10   29.50    4.20
   9  11 -10   25.70    4.20
   8 -11 -10   41.20    5.50
   8 -11 -10   42.70    4.80
   8  11 -10   44.00    5.00
   8  11 -10   41.70    5.00
   7 -11 -10   12.00    3.50
   7 -11 -10   28.30    4.10
   7  11 -10   17.60    3.20
   7  11 -10   16.80    3.50
   6 -11 -10  178.98    9.00
   6  11 -10  187.08    8.90
  -6  11  10  166.78    9.40
   6  11 -10  190.98    9.30
   5 -11 -10   35.90    4.40
  -5 -11  10   28.00    3.20
   5  11 -10   34.00    3.30
  -5  11  10   33.70    4.60
   5  11 -10   35.30    4.30
   4 -11 -10   56.59    5.00
  -4 -11  10   49.60    3.40
  -4  11  10   53.09    4.90
   4  11 -10   56.89    3.60
   4  11 -10   52.59    5.00
   3 -11 -10    5.60    2.40
  -3 -11  10    3.70    1.30
   3  11 -10    3.30    1.20
   3  11 -10    5.90    2.40
  -3  11  10   -0.20    1.90
   2 -11 -10  114.19    6.90
  -2 -11  10  113.29    4.50
   2  11 -10  115.29    6.90
  -2  11  10  120.79    6.70
   2  11 -10  117.79    4.60
   1 -11 -10   47.70    4.60
  -1 -11  10   50.59    2.10
  -1  11  10   51.69    4.40
   1  11 -10   51.99    4.70
   0 -11 -10   45.40    4.90
   0  11  10   32.70    3.90
   0  11 -10   33.50    4.10
  -1 -11 -10  259.67   11.30
  -1  11 -10  260.27   11.30
   1  11  10  256.57   11.00
  -2 -11 -10   38.10    4.60
   2  11  10   29.60    3.90
  -2  11 -10   34.00    4.20
   3 -11  10  142.39    5.40
  -3 -11 -10  154.08    8.10
   3  11  10  148.79    7.90
  -3  11 -10  141.99    7.70
   4 -11  10    3.00    1.20
  -4 -11 -10    2.30    2.40
   4 -11  10    2.30    1.00
   4  11  10    0.70    2.10
  -4  11 -10    3.20    2.20
   5 -11  10  126.79    5.60
  -5 -11 -10  136.49    7.60
   5 -11  10  116.19    5.20
  -5  11 -10  127.09    7.10
   5  11  10  122.59    7.60
   6 -11  10   18.60    2.40
   6 -11  10   27.80    3.10
  -6 -11 -10   24.10    4.10
  -6  11 -10   19.50    3.30
   7 -11  10   81.59    7.60
  -7 -11 -10   83.59    6.40
  -7  11 -10   87.09    5.80
   7  11  10  105.59    7.50
   8 -11  10   39.40    4.30
  -8 -11 -10   32.90    4.70
   8  11  10   28.30    5.00
  -8  11 -10   41.40    4.40
   9 -12 -10    0.80    2.40
   9 -12 -10    4.80    3.40
   9  12 -10   -1.10    2.30
   9  12 -10    1.30    2.90
   8 -12 -10    1.80    2.70
   8 -12 -10    1.80    2.20
   8  12 -10    6.00    3.00
   8  12 -10    4.00    2.60
   7 -12 -10   18.80    3.60
   7  12 -10   23.40    4.10
   7  12 -10   18.30    3.30
   6 -12 -10    2.30    2.50
   6  12 -10   -0.20    1.90
   6  12 -10   -1.90    2.20
  -6  12  10   -0.30    2.20
   5 -12 -10   64.09    5.60
   5  12 -10   68.29    4.40
   5  12 -10   59.19    5.60
  -5  12  10   72.89    5.90
   4 -12 -10   22.40    3.90
   4  12 -10   24.90    2.70
   4  12 -10   22.60    4.00
  -4  12  10   15.60    3.40
  -3 -12  10   19.30    2.30
   3 -12 -10   19.60    3.70
   3  12 -10   22.50    2.30
  -3  12  10   20.30    3.40
   3  12 -10   19.40    3.70
   2 -12 -10    5.70    2.80
  -2 -12  10    5.20    1.20
   2  12 -10    4.80    1.20
   2  12 -10    2.20    2.50
  -2  12  10    7.70    2.70
   1 -12 -10   70.29    5.70
  -1 -12  10   75.19    3.20
   1  12 -10   72.79    2.90
   1  12 -10   74.29    5.80
  -1  12  10   79.89    5.50
   0 -12 -10   23.50    3.80
   0  12 -10   20.20    3.70
   0  12  10   17.60    3.30
  -1 -12 -10    2.80    2.50
   1  12  10    1.80    2.00
  -1  12 -10    4.50    2.30
  -2 -12 -10    6.20    2.80
  -2  12 -10    2.70    2.30
   2  12  10    1.40    2.10
  -3 -12 -10   66.39    5.60
   3 -12  10   63.99    3.30
   3  12  10   61.49    5.40
  -3  12 -10   83.39    5.80
  -4 -12 -10   -1.20    2.20
   4 -12  10    1.20    1.10
   4 -12  10    0.70    1.00
  -4  12 -10    1.20    2.20
   4  12  10   -0.80    2.30
   5 -12  10   -0.40    1.00
  -5 -12 -10   -0.10    2.60
   5 -12  10    4.70    1.60
  -5  12 -10    0.70    2.00
   5  12  10    0.10    2.40
   6 -12  10    6.20    1.90
  -6 -12 -10    5.40    2.80
  -6  12 -10    4.50    2.30
   6  12  10   10.20    3.60
   7 -12  10    7.20    2.70
  -7 -12 -10    5.90    2.90
   7  12  10    7.10    3.20
  -7  12 -10    7.50    2.70
  -8 -12 -10   38.30    5.10
   8 -12  10   41.10    4.10
  -8  12 -10   47.40    4.60
   8  12  10   47.50    6.40
   9 -13 -10   22.30    4.10
   9 -13 -10   25.10    4.90
   9  13 -10   20.70    4.70
   9  13 -10   21.50    3.90
   8 -13 -10   29.00    5.50
   8 -13 -10   25.30    4.20
   8  13 -10   30.50    4.70
   8  13 -10   28.60    4.30
   7 -13 -10    4.00    3.30
   7 -13 -10    4.60    2.70
   7  13 -10    8.80    2.60
   7  13 -10    6.50    3.10
   6 -13 -10  173.98    9.40
   6  13 -10  175.78    9.50
  -6  13  10  176.68   10.10
   6  13 -10  177.38    8.20
   5 -13 -10    1.40    2.50
  -5  13  10   -2.10    2.30
   5  13 -10    0.40    2.40
   5  13 -10   -0.60    1.60
  -4 -13  10  132.79    6.50
   4 -13 -10  151.18    8.60
   4  13 -10  163.58    8.80
  -4  13  10  141.39    8.30
   4  13 -10  153.18    6.40
  -3 -13  10    0.30    1.20
   3 -13 -10   -0.80    2.30
   3  13 -10   -0.20    1.20
   3  13 -10   -0.40    2.30
  -3  13  10   -2.40    2.00
  -2 -13  10   26.00    2.20
   2 -13 -10   32.10    4.60
   2  13 -10   23.50    2.10
  -2  13  10   21.50    3.70
   2  13 -10   26.00    4.30
   1 -13 -10   30.20    4.40
   1  13 -10   28.60    2.00
  -1  13  10   36.00    4.70
   1  13 -10   30.40    4.30
   0 -13 -10    0.40    2.70
   0  13 -10    1.10    2.20
   0  13  10    1.80    2.30
  -1 -13 -10   95.79    6.90
  -1  13 -10  112.59    7.20
   1  13  10  104.19    6.70
  -2 -13 -10    2.50    2.80
   2  13  10   10.50    3.00
  -2  13 -10    9.10    2.90
  -3 -13 -10   80.69    6.60
   3 -13  10   91.59    4.60
  -3  13 -10   99.89    6.60
   3  13  10   87.79    6.50
   4 -13  10    1.20    1.00
  -4 -13 -10   -1.90    2.40
   4 -13  10   -0.10    1.10
  -4  13 -10    1.20    2.30
   4  13  10   -1.90    2.20
   5 -13  10   53.79    3.40
   5 -13  10   47.00    3.10
  -5 -13 -10   65.59    5.90
   5  13  10   65.19    5.90
  -5  13 -10   60.49    5.30
   6 -13  10   12.90    2.40
  -6 -13 -10    9.50    3.40
   6  13  10   16.90    4.00
  -6  13 -10   10.40    2.90
  -7 -13 -10   65.39    6.20
   7 -13  10   58.99    5.30
  -7  13 -10   62.79    5.40
   7  13  10   68.39    6.70
   8 -14 -10   -1.80    2.80
   8  14 -10    0.80    2.60
   8  14 -10   -0.70    2.70
   7 -14 -10    3.20    2.80
   7 -14 -10    4.90    3.30
   7  14 -10    7.20    2.70
   6 -14 -10   -0.40    2.50
   6  14 -10   -2.90    1.80
   6  14 -10    2.70    3.00
  -6  14  10   -1.90    2.50
   5 -14 -10   17.60    4.10
  -5  14  10   13.10    4.60
   5  14 -10   12.90    4.20
   5  14 -10   11.10    3.50
   4 -14 -10    1.10    2.70
  -4 -14  10    3.70    1.80
   4  14 -10    1.30    2.50
   4  14 -10    7.70    2.00
  -4  14  10    5.40    2.90
   3 -14 -10    2.40    3.00
  -3 -14  10    1.50    1.40
   3  14 -10    0.00    1.30
  -3  14  10   -3.00    2.20
   3  14 -10    0.40    2.60
  -2 -14  10   15.50    2.00
   2 -14 -10   24.60    4.30
  -2  14  10   26.10    4.40
   2  14 -10   20.20    4.10
   2  14 -10   16.20    2.00
   1 -14 -10   12.10    3.70
  -1 -14  10   14.20    1.60
   1  14 -10   13.60    3.50
  -1  14  10   17.20    3.50
   0 -14 -10    2.40    3.00
   0  14 -10    8.40    3.10
   0  14  10    5.30    2.90
  -1 -14 -10   43.20    5.80
   1  14  10   37.90    4.90
  -1  14 -10   39.10    5.20
  -2 -14 -10    2.10    3.00
  -2  14 -10    5.30    2.80
   2  14  10    1.30    2.50
  -3 -14 -10   18.40    4.20
   3  14  10   21.80    4.50
  -3  14 -10   16.00    3.50
   4 -14  10    3.00    1.20
  -4 -14 -10    7.30    3.30
   4 -14  10    7.00    1.50
  -4  14 -10    7.30    2.90
   4  14  10   10.60    3.50
  -5 -14 -10   -1.10    2.90
   5 -14  10    0.40    1.40
   5  14  10   -1.90    2.80
  -5  14 -10    0.40    2.40
   6 -14  10   23.50    2.90
  -6  14 -10   22.80    4.10
   6  14  10   24.00    4.40
   7 -15 -10    8.00    3.30
   7 -15 -10    3.30    3.30
   7  15 -10    3.40    2.50
   7  15 -10    2.60    3.10
   6 -15 -10    7.00    3.30
   6  15 -10    8.60    3.80
  -6  15  10   11.80    4.00
   6  15 -10   11.00    2.80
   5 -15 -10    3.80    3.30
   5  15 -10    3.30    3.30
   5  15 -10    1.70    2.00
  -5  15  10    5.00    3.30
   4 -15 -10   13.40    6.00
   4  15 -10   14.60    3.90
   4  15 -10   11.20    2.40
  -4  15  10    6.90    3.50
   3  15 -10    2.10    1.50
  -3  15  10   -1.70    2.70
   3  15 -10   -5.10    4.50
  -2 -15  10    5.70    1.60
   2  15 -10    6.50    1.60
  -2  15  10   10.90    3.50
   1 -15 -10   20.10    6.70
  -1 -15  10   10.50    1.60
   1  15 -10   12.70    1.80
   1  15 -10   17.90    6.20
  -1  15  10   11.50    3.40
   0 -15  10    9.30    1.40
   0  15 -10   20.60    5.10
   0  15  10   14.20    3.80
  -1  15 -10   11.80    5.70
   1  15  10    4.40    2.80
  -2 -15 -10   -1.40    3.20
   2  15  10    6.80    3.10
  -3 -15 -10   -1.50    3.00
   3  15  10   -2.30    2.30
  -3  15 -10    2.70    4.70
  -4 -15 -10    8.60    3.60
   4 -15  10   14.70    1.80
   4  15  10   15.50    4.10
  -4  15 -10   13.20    3.60
   5 -15  10    1.50    1.40
  -5 -15 -10    0.70    3.20
  -5  15 -10   -0.20    2.50
   5  15  10    2.80    2.90
  -6 -15 -10    2.00    3.10
   6 -16 -10    7.90    3.50
  -6  16  10    4.70    3.50
   6  16 -10   -1.90    3.00
   6  16 -10    4.40    2.60
   5 -16 -10    9.70    3.70
  -5  16  10    8.50    3.80
   5  16 -10    6.50    2.20
   5  16 -10   10.10    3.80
   4 -16 -10    2.60    3.20
  -4  16  10   -1.50    2.90
   4  16 -10    3.40    3.10
   4  16 -10    1.00    1.70
   3 -16 -10    3.40    3.30
   3  16 -10    0.90    1.50
  -3  16  10   -0.10    2.90
   3  16 -10    2.00    3.20
   2 -16 -10   11.00    3.70
  -2  16  10    9.00    3.40
   2  16 -10   10.50    1.80
   2  16 -10    7.70    3.60
  -1 -16  10    3.30    1.60
   1 -16 -10    4.30    3.50
   1  16 -10    3.10    3.10
   1  16 -10    2.60    1.20
  -1  16  10    3.60    3.20
   0 -16 -10    4.10    3.30
   0  16 -10    7.50    3.40
   0  16  10    7.40    3.20
  -1 -16 -10    0.00    2.80
  -1  16 -10    3.00    3.00
   1  16  10   -0.10    2.60
  -2 -16 -10   10.40    3.90
   2  16  10   15.30    3.80
  -2  16 -10   12.10    3.60
  -3 -16 -10    0.80    3.00
  -3  16 -10    1.20    2.70
   3  16  10    1.80    3.00
  -4 -16 -10    4.00    3.40
  -4  16 -10    5.90    3.20
   4  16  10    4.70    3.10
   5 -17 -10    0.10    2.90
   5  17 -10   -0.70    3.50
   5  17 -10   -1.00    1.90
  -5  17  10   -0.90    2.90
   4 -17 -10   12.10    4.00
  -4  17  10    5.20    3.50
   4  17 -10   18.60    4.60
   3 -17 -10   -2.70    2.90
   3  17 -10   -0.50    1.70
  -3  17  10   -1.40    2.60
   3  17 -10   -4.10    2.80
   2 -17 -10    4.80    3.40
   2  17 -10    4.10    3.50
   2  17 -10    5.10    1.60
  -2  17  10    7.00    3.60
   1 -17 -10    9.50    4.00
   1  17 -10    8.30    3.70
  -1  17  10    8.00    3.50
   0 -17 -10   11.00    4.00
   0  17 -10    5.00    3.40
   0  17  10   15.10    3.90
  -1 -17 -10   -0.40    3.30
   1  17  10    0.20    3.00
  -1  17 -10   -1.70    2.50
  -2 -17 -10    0.50    3.20
  -2  17 -10    1.50    3.10
   2  17  10    0.90    3.00
  -3 -17 -10   32.30    5.60
  -3  17 -10   31.90    5.20
   3  17  10   29.10    4.90
   2 -18 -10    0.30    3.50
   2  18 -10    2.80    1.60
  -2  18  10    4.60    3.40
   2  18 -10    2.70    3.70
   1 -18 -10    6.30    3.70
   1  18 -10    4.70    3.60
  -1  18  10    7.70    3.60
   0 -18 -10    4.20    3.50
   0  18 -10    1.80    3.20
   0  18  10    1.90    3.30
  -1 -18 -10    4.70    3.80
  -1  18 -10    5.50    3.80
   1  18  10    1.00    2.90
  12   0 -11    3.40    3.00
  11   0 -11   -0.50    1.00
  11   0 -11   -0.90    2.60
 -10   0  11    1.00    1.40
  10   0 -11   -0.20    2.30
  10   0 -11    4.60    1.50
  -9   0  11    1.40    1.40
   9   0 -11   -4.10    1.90
   9   0 -11   -1.00    1.40
   8   0 -11   -0.40    1.30
  -8   0  11   -1.10    1.50
   8   0 -11   -0.70    1.80
   7   0 -11   -2.50    1.30
   7   0 -11   -1.00    1.70
   6   0 -11    0.50    1.60
   6   0 -11    0.60    1.30
   5   0 -11    0.40    1.40
   5   0 -11    1.00    1.30
   5   0 -11   -0.30    0.90
   4   0 -11   -1.40    0.80
   4   0 -11   -0.40    1.20
   4   0 -11   -1.60    0.90
   3   0 -11    0.80    0.90
  -3   0  11   -0.30    1.00
   3   0 -11    0.80    1.30
  -2   0  11    0.00    0.80
   2   0 -11    1.40    1.40
   2   0 -11    0.30    0.80
  -2   0  11   -1.20    0.90
  -1   0  11    0.00    0.70
  -1   0  11   -0.50    1.10
   1   0 -11    0.00    0.70
   1   0 -11   -0.60    1.00
   0   0  11    1.80    1.30
   0   0  11    5.90    1.10
   0   0 -11    4.60    1.10
   0   0 -11    6.80    1.60
   1   0  11    1.90    1.20
  -1   0 -11    0.10    1.10
   1   0  11    1.10    0.80
  -1   0 -11    1.30    0.80
  -2   0 -11    0.20    0.80
  -2   0 -11   -0.70    1.00
   2   0  11    0.90    0.90
  -3   0 -11    0.40    0.90
   3   0  11    0.50    0.90
  -3   0 -11    0.30    1.10
  -4   0 -11    3.20    1.50
  -4   0 -11    0.20    0.90
   4   0  11    0.80    1.20
  -5   0 -11    3.40    1.50
   5   0  11    1.40    1.40
  -6   0 -11   -0.40    1.20
   6   0  11    0.70    1.10
   6   0  11    1.20    1.50
  -7   0 -11   -0.10    1.10
   7   0  11    1.20    1.10
   7   0  11   -0.80    1.40
   8   0  11    0.50    1.00
   8   0  11   -0.10    1.70
  -8   0 -11   -0.50    1.10
  -9   0 -11   -1.10    0.90
   9   0  11   -1.00    1.90
  10   0  11   -0.20    2.10
  12  -1 -11   10.10    4.00
  12   1 -11    2.20    3.10
  11  -1 -11   -4.50    2.40
 -11  -1  11    1.20    1.20
  11  -1 -11    2.30    1.10
  11   1 -11    0.60    1.10
  11   1 -11    3.80    2.90
 -10  -1  11   32.90    2.90
  10  -1 -11   49.20    5.80
  10  -1 -11   41.70    3.00
  10   1 -11   52.19    5.80
  10   1 -11   42.20    3.10
 -10   1  11   34.30    3.00
   9  -1 -11    6.20    2.70
   9  -1 -11    2.50    1.60
  -9  -1  11    4.00    1.60
   9   1 -11    5.20    2.60
  -9   1  11    4.10    1.60
   9   1 -11    5.50    1.70
   8  -1 -11   25.30    2.90
   8  -1 -11   32.90    4.30
   8   1 -11   33.40    3.00
   8   1 -11   33.80    4.40
  -7  -1  11    5.90    1.90
   7  -1 -11    2.30    1.80
   7  -1 -11    7.40    2.20
   7   1 -11    4.20    2.20
   7   1 -11    1.90    1.70
   6  -1 -11   39.60    3.30
   6  -1 -11   40.70    4.00
  -6  -1  11   34.50    3.20
  -6   1  11   35.70    3.20
   6   1 -11   33.20    3.70
   6   1 -11   38.30    3.20
   5  -1 -11   14.60    2.30
   5  -1 -11    8.30    1.70
  -5  -1  11   11.80    2.30
   5  -1 -11   10.90    2.10
   5   1 -11    7.90    1.80
  -5   1  11   19.00    3.30
   5   1 -11   10.00    2.10
   5   1 -11   14.10    2.20
   4  -1 -11    7.30    1.90
   4  -1 -11    7.00    1.70
   4  -1 -11    7.00    1.50
   4   1 -11   10.60    1.90
   4   1 -11    7.20    1.50
   4   1 -11    4.40    1.60
   3  -1 -11    7.00    1.80
   3  -1 -11    6.40    1.40
   3   1 -11    7.30    1.50
  -3   1  11    4.70    1.50
   3   1 -11    6.40    1.80
   3   1 -11    7.90    1.40
  -2  -1  11    3.70    1.10
   2  -1 -11    3.30    1.00
   2  -1 -11    3.50    1.40
  -2   1  11    3.80    1.20
   2   1 -11    6.00    1.20
   2   1 -11    3.40    1.50
   1  -1 -11   82.59    4.60
  -1  -1  11   88.49    3.70
   1  -1 -11   84.59    3.90
  -1   1  11   80.69    3.90
   1   1 -11   91.79    3.60
   1   1 -11   84.29    4.70
   0  -1  11  336.97   11.20
   0  -1 -11  343.67   11.60
   0  -1 -11  357.56   12.60
   0   1 -11  328.67   12.40
   0   1 -11  339.77   11.20
   0   1  11  344.87   11.60
   1  -1  11    2.00    0.80
  -1  -1 -11    2.10    1.40
  -1  -1 -11    1.40    1.00
  -1   1 -11    0.50    1.20
  -1   1 -11    1.20    0.80
   1   1  11    1.60    1.00
  -2  -1 -11   24.50    2.90
  -2  -1 -11   25.10    2.60
   2  -1  11   20.40    1.80
   2   1  11   24.10    2.10
  -2   1 -11   21.20    1.90
  -2   1 -11   26.10    3.10
   3  -1  11   22.90    2.10
  -3  -1 -11   31.70    3.30
   3   1  11   29.20    2.90
  -3   1 -11   22.30    2.10
  -3   1 -11   28.40    3.10
  -4  -1 -11   21.10    2.70
  -4  -1 -11   22.80    2.90
   4  -1  11   27.70    2.90
  -4   1 -11   24.30    2.90
   4   1  11   31.50    3.50
   5  -1  11   39.10    3.30
  -5  -1 -11   40.60    3.30
  -5   1 -11   45.40    3.40
  -5   1 -11   35.10    3.10
   5   1  11   41.30    3.40
   6  -1  11    7.60    1.90
  -6  -1 -11   14.20    2.30
   6  -1  11   10.70    2.80
   6   1  11   10.70    2.40
  -6   1 -11   11.70    2.20
  -7  -1 -11    3.60    1.50
   7  -1  11    0.90    1.70
   7  -1  11    2.90    1.20
   7   1  11    2.60    1.80
   7   1  11    1.10    1.10
  -7   1 -11    2.90    1.40
   8  -1  11    2.10    1.10
  -8  -1 -11    2.10    1.30
   8  -1  11    0.00    1.80
   8   1  11    1.80    2.00
  -8   1 -11    3.90    1.40
   8   1  11    0.40    1.10
   9  -1  11    0.40    1.80
   9  -1  11    0.80    1.00
  -9  -1 -11    1.50    1.00
  -9  -1 -11   -0.10    1.00
   9   1  11    0.80    2.00
  -9   1 -11    1.10    1.00
  10  -1  11   56.99    6.50
  10   1  11   50.29    6.00
  12  -2 -11   35.90    6.00
  12   2 -11   33.40    5.40
  11  -2 -11   25.80    2.20
  11  -2 -11   19.80    2.70
 -11  -2  11   21.70    2.20
  11  -2 -11   28.10    4.90
  11   2 -11   22.20    2.20
  11   2 -11   31.00    5.10
  10  -2 -11   28.60    4.80
 -10  -2  11   19.30    2.50
  10  -2 -11   22.30    2.50
  10   2 -11   22.70    4.20
  10   2 -11   20.30    2.50
   9  -2 -11    6.50    2.90
   9  -2 -11    3.90    1.70
   9   2 -11    4.30    1.80
   9   2 -11    4.70    2.80
  -9   2  11    4.00    1.60
  -8  -2  11   40.70    3.30
   8  -2 -11   49.60    3.60
   8  -2 -11   48.70    4.70
  -8   2  11   43.40    5.10
   8   2 -11   38.50    3.40
   8   2 -11   39.50    4.60
   7  -2 -11   19.00    3.20
  -7  -2  11   16.00    2.40
   7  -2 -11   15.20    2.60
  -7   2  11   15.00    2.30
   7   2 -11   17.20    2.60
   7   2 -11   16.30    3.10
  -6  -2  11    5.40    1.60
   6  -2 -11   10.90    2.60
   6  -2 -11    8.70    2.10
  -6   2  11   10.50    2.00
   6   2 -11    8.60    2.00
   6   2 -11   13.50    2.50
   5  -2 -11  336.67   12.50
   5  -2 -11  340.97   12.40
  -5  -2  11  337.47   12.30
   5   2 -11  320.87   12.00
   5   2 -11  332.37   12.20
  -5   2  11  337.57   12.10
   5   2 -11  338.07   12.40
   4  -2 -11   61.79    3.60
   4  -2 -11   51.79    3.70
  -4  -2  11   53.09    3.60
   4   2 -11   58.39    3.30
  -4   2  11   66.89    4.00
   4   2 -11   55.79    3.90
  -4   2  11   58.39    3.60
   4   2 -11   61.79    3.50
   3  -2 -11  187.78    7.40
  -3  -2  11  175.38    7.70
   3  -2 -11  195.48    7.90
  -3   2  11  190.78    7.50
   3   2 -11  182.38    7.90
   3   2 -11  185.18    7.00
  -3   2  11  185.68    7.60
   3   2 -11  186.88    6.90
   2  -2 -11  115.59    5.70
  -2  -2  11  107.49    5.70
   2  -2 -11  107.19    4.90
  -2   2  11  114.59    5.80
   2   2 -11  116.79    4.50
   2   2 -11  115.29    5.70
  -2   2  11  115.19    5.10
   2   2 -11  120.69    4.60
  -1  -2  11 1362.66   41.00
  -1  -2  11 1356.46   43.20
   1  -2 -11 1309.27   41.60
   1  -2 -11 1394.66   42.60
   1   2 -11 1338.27   42.60
  -1   2  11 1342.87   42.90
   1   2 -11 1368.96   40.90
  -1   2  11 1331.27   41.70
   0  -2  11    5.80    1.70
   0  -2 -11    5.50    1.60
   0  -2 -11    7.40    1.50
   0   2  11    5.40    1.60
   0   2  11    8.90    1.60
   0   2 -11    7.90    1.10
   0   2 -11    4.50    1.80
   1  -2  11  360.86   13.70
  -1  -2 -11  364.36   12.70
  -1  -2 -11  360.76   13.20
   1  -2  11  369.56   11.80
  -1   2 -11  366.26   11.90
   1   2  11  366.56   12.50
   1   2  11  371.76   13.20
  -1   2 -11  363.36   13.30
   2  -2  11   90.79    4.70
  -2  -2 -11   90.49    4.80
   2  -2  11   94.09    3.90
  -2  -2 -11   90.19    4.50
  -2   2 -11   89.79    3.90
  -2   2 -11   94.29    4.90
   2   2  11   92.09    4.50
   2   2  11   95.89    4.70
  -3  -2 -11  208.88    8.60
   3  -2  11  204.78    8.50
   3  -2  11  218.88    8.00
  -3  -2 -11  221.38    8.80
  -3   2 -11  220.58    8.00
   3   2  11  214.18    8.50
  -3   2 -11  216.48    8.70
   3   2  11  221.68    8.60
   4  -2  11  158.98    6.50
  -4  -2 -11  165.38    7.10
   4  -2  11  149.69    6.70
  -4   2 -11  155.58    6.90
   4   2  11  150.18    6.60
  -4   2 -11  149.09    6.40
   4   2  11  158.08    7.00
   5  -2  11   49.20    3.50
  -5  -2 -11   49.90    3.60
   5  -2  11   42.70    3.20
   5   2  11   41.30    3.10
  -5   2 -11   54.99    3.50
  -5   2 -11   53.39    3.60
   5   2  11   46.20    4.20
   6  -2  11   64.09    4.30
  -6  -2 -11   64.99    4.00
  -6   2 -11   67.79    4.00
   6   2  11   56.39    3.60
   6   2  11   62.89    4.60
   7  -2  11    2.10    1.70
   7  -2  11    2.30    1.10
  -7  -2 -11    1.30    1.40
  -7   2 -11    3.30    1.50
   7   2  11    5.10    2.10
   8  -2  11   48.30    3.00
   8  -2  11   44.10    4.20
  -8  -2 -11   37.70    3.10
   8   2  11   37.00    2.80
  -8   2 -11   44.90    3.00
   8   2  11   45.50    4.40
   9  -2  11   31.00    2.20
  -9  -2 -11   33.30    2.30
   9  -2  11   33.00    4.40
  -9  -2 -11   39.00    2.60
  -9   2 -11   38.90    2.40
   9   2  11   43.10    5.30
  10   2  11  106.89    7.50
  12  -3 -11   25.70    5.20
  12   3 -11   19.90    5.10
 -11  -3  11    4.70    1.80
  11  -3 -11    3.80    2.80
  11  -3 -11    2.90    1.20
  11   3 -11    1.80    1.40
  11   3 -11   10.10    3.40
  10  -3 -11    2.70    1.60
  10  -3 -11   -1.90    2.10
 -10  -3  11    2.00    1.70
  10   3 -11    3.60    2.90
  10   3 -11    1.10    1.50
   9  -3 -11   17.60    2.60
   9  -3 -11   20.20    3.90
  -9  -3  11   16.30    2.60
   9   3 -11   21.00    2.70
   9   3 -11   18.60    3.70
   8  -3 -11   13.90    3.30
   8  -3 -11   22.20    2.90
  -8  -3  11   18.40    2.70
   8   3 -11   21.10    2.80
  -8   3  11   13.30    2.20
   8   3 -11   20.90    3.80
   7  -3 -11  110.39    5.60
   7  -3 -11  107.19    6.30
  -7  -3  11   97.79    5.30
   7   3 -11  107.99    5.50
  -7   3  11   96.29    5.00
   7   3 -11  100.19    6.10
   6  -3 -11   14.20    2.60
   6  -3 -11   19.60    3.10
  -6  -3  11   12.60    2.30
   6   3 -11   15.60    2.50
   6   3 -11   14.50    2.50
  -6   3  11   17.70    2.50
  -5  -3  11   39.10    3.40
   5  -3 -11   49.30    3.70
   5  -3 -11   50.99    3.60
   5   3 -11   46.80    3.40
   5   3 -11   40.70    3.50
  -5   3  11   44.10    3.20
   5   3 -11   44.70    3.20
   4  -3 -11    9.90    2.00
   4  -3 -11    4.70    1.40
  -4  -3  11    7.20    1.90
  -4   3  11   10.00    1.90
  -4   3  11    7.00    2.00
   4   3 -11    6.50    1.50
   4   3 -11    6.70    1.80
   4   3 -11    5.30    1.40
   3  -3 -11  260.07    9.80
   3  -3 -11  273.97   10.40
  -3  -3  11  259.37   10.30
  -3   3  11  278.47   10.20
   3   3 -11  256.67    9.20
   3   3 -11  266.37   10.40
   3   3 -11  269.57    9.30
  -3   3  11  267.47   10.10
  -2  -3  11   38.90    3.10
   2  -3 -11   38.30    3.20
   2  -3 -11   42.20    3.00
  -2   3  11   41.50    3.00
   2   3 -11   42.70    3.40
  -2   3  11   40.30    2.90
   2   3 -11   40.20    2.20
   2   3 -11   38.20    2.10
  -1  -3  11   32.90    3.40
   1  -3 -11   34.60    2.50
   1  -3 -11   36.40    3.10
   1   3 -11   34.60    3.10
   1   3 -11   31.90    1.70
  -1   3  11   35.40    2.80
   1   3 -11   32.60    1.70
  -1   3  11   35.00    2.60
   0  -3  11   30.40    3.20
   0  -3 -11   33.90    2.50
   0  -3 -11   28.60    2.80
   0  -3  11   34.30    1.60
   0   3 -11   33.00    1.60
   0   3 -11   31.80    3.00
   0   3  11   36.20    2.80
   0   3  11   34.80    2.50
   1  -3  11  227.58    9.20
   1  -3  11  236.08    7.60
  -1  -3 -11  230.18    8.90
  -1  -3 -11  227.18    9.20
   1   3  11  234.28    9.00
   1   3  11  231.88    8.70
  -1   3 -11  223.48    7.80
  -1   3 -11  244.08    9.40
   2  -3  11   76.29    4.40
   2  -3  11   80.69    3.40
  -2  -3 -11   75.99    4.30
  -2  -3 -11   85.59    4.70
   2   3  11   86.19    4.40
  -2   3 -11   80.79    4.60
   2   3  11   78.69    4.20
  -2   3 -11   84.59    3.50
   3  -3  11    9.60    1.90
  -3  -3 -11    5.30    1.60
   3  -3  11   10.10    1.50
  -3  -3 -11    8.60    2.00
   3   3  11    9.70    2.10
   3   3  11    8.80    1.80
  -3   3 -11    7.60    1.30
  -3   3 -11    9.00    2.10
  -4  -3 -11  115.49    5.70
   4  -3  11  121.79    5.20
   4  -3  11  114.29    5.50
  -4   3 -11  111.99    5.70
   4   3  11  106.29    5.60
  -4   3 -11  108.69    5.00
   4   3  11  108.89    5.30
   5  -3  11    7.30    1.70
  -5  -3 -11    7.10    2.00
   5  -3  11    8.30    1.90
   5   3  11   11.00    2.40
  -5   3 -11    8.30    2.10
  -5   3 -11    6.50    1.70
   5   3  11    8.10    1.70
  -6  -3 -11    0.10    1.40
   6  -3  11    0.10    1.00
   6  -3  11    0.80    1.50
   6   3  11    0.90    1.10
  -6   3 -11   -2.10    1.00
   6   3  11   -0.10    1.70
  -7  -3 -11   11.00    2.20
   7  -3  11   14.70    2.80
   7   3  11    8.90    1.90
   7   3  11   16.10    3.20
  -7   3 -11   16.30    2.40
  -8  -3 -11   24.00    2.80
   8  -3  11   24.50    2.30
  -8  -3 -11   22.20    3.00
   8  -3  11   25.40    3.80
   8   3  11   27.10    4.20
  -8   3 -11   32.60    3.00
  -9  -3 -11   12.80    1.90
  -9  -3 -11   11.20    1.70
   9  -3  11   16.40    3.50
   9  -3  11   11.10    1.70
   9   3  11   15.70    4.30
  -9   3 -11   15.20    1.80
  10  -3  11   17.80    4.20
  10   3  11   17.60    3.80
  12  -4 -11    8.80    3.50
  12   4 -11    9.20    4.10
  11  -4 -11    4.70    3.10
  11  -4 -11    1.80    1.30
  11   4 -11    5.60    3.30
  11   4 -11    1.90    1.50
  10  -4 -11   45.20    6.70
 -10  -4  11   39.70    3.50
  10  -4 -11   43.10    3.30
  10   4 -11   32.70    3.20
  10   4 -11   43.00    5.30
   9  -4 -11   11.50    2.30
   9  -4 -11   13.30    3.60
  -9  -4  11   11.00    2.40
   9   4 -11   14.20    3.40
   9   4 -11   10.50    2.20
   8  -4 -11   41.20    5.10
   8  -4 -11   35.80    3.40
  -8  -4  11   29.10    3.20
  -8   4  11   30.90    3.20
   8   4 -11   29.90    4.20
   8   4 -11   28.90    3.30
   7  -4 -11    1.40    2.30
  -7  -4  11    1.20    1.60
   7  -4 -11    3.40    1.80
   7   4 -11    4.40    2.30
   7   4 -11    2.90    1.90
  -7   4  11    1.40    1.40
  -6  -4  11   38.50    3.70
   6  -4 -11   48.10    3.80
   6  -4 -11   47.50    4.10
  -6  -4  11   42.50    3.60
  -6   4  11   43.00    3.20
   6   4 -11   48.10    3.80
   6   4 -11   44.10    3.80
  -5  -4  11   89.69    5.20
   5  -4 -11  100.89    5.30
   5   4 -11   98.99    5.40
   5   4 -11   88.79    5.50
  -5   4  11   97.79    5.00
   5   4 -11  106.59    5.10
  -4  -4  11   24.10    3.00
   4  -4 -11   21.80    2.80
   4   4 -11   19.90    2.80
  -4   4  11   25.70    2.90
   4   4 -11   24.60    2.20
  -4   4  11   23.50    3.10
   4   4 -11   26.50    2.30
  -3  -4  11  255.77   10.40
   3  -4 -11  267.57   10.10
   3  -4 -11  278.37   10.50
   3   4 -11  269.77    9.20
  -3   4  11  270.97   10.20
   3   4 -11  265.27   10.60
  -3   4  11  273.37   10.30
   3   4 -11  265.37    9.30
   2  -4 -11   55.39    3.90
  -2  -4  11   51.69    3.70
   2  -4 -11   62.09    3.50
   2   4 -11   61.09    2.60
  -2   4  11   57.09    3.60
   2   4 -11   59.29    4.00
   2   4 -11   58.59    2.70
  -2   4  11   63.59    3.80
  -1  -4  11  314.07   12.20
   1  -4 -11  326.47   11.70
   1  -4 -11  333.87   12.20
   1   4 -11  328.77   10.30
  -1   4  11  320.27   12.00
   1   4 -11  341.47   10.20
   1   4 -11  313.97   12.20
  -1   4  11  348.47   11.90
   0  -4  11  113.09    5.70
   0  -4 -11  114.89    5.70
   0  -4 -11  116.89    5.30
   0   4  11  115.49    5.50
   0   4  11  117.69    5.30
   0   4 -11  114.69    5.80
  -1  -4 -11   67.69    3.80
  -1  -4 -11   65.39    4.10
   1  -4  11   63.69    2.30
   1  -4  11   65.79    4.10
  -1   4 -11   64.19    2.40
   1   4  11   60.59    3.80
  -1   4 -11   62.09    4.10
   1   4  11   63.89    3.70
   2  -4  11    2.80    1.40
  -2  -4 -11    1.70    1.40
   2  -4  11    3.20    0.80
  -2  -4 -11    2.10    1.30
   2   4  11    5.00    1.50
   2   4  11    1.30    1.30
  -2   4 -11    3.60    1.70
  -2   4 -11    3.00    0.90
  -3  -4 -11  388.96   13.80
   3  -4  11  380.66   12.40
   3  -4  11  366.16   13.60
  -3   4 -11  363.56   12.30
   3   4  11  369.66   13.60
   3   4  11  361.06   13.40
  -3   4 -11  393.16   13.80
  -4  -4 -11   93.39    5.10
   4  -4  11   96.19    4.40
   4  -4  11   81.29    4.80
   4   4  11   96.29    4.80
   4   4  11  103.19    5.90
  -4   4 -11   87.59    4.20
  -4   4 -11   99.69    5.20
   5  -4  11   27.10    2.60
   5  -4  11   34.00    2.80
  -5  -4 -11   28.50    3.30
   5   4  11   29.70    2.70
  -5   4 -11   32.20    3.10
   5   4  11   24.80    3.30
  -6  -4 -11   16.70    2.70
   6  -4  11    8.10    1.90
   6  -4  11   19.50    2.90
  -6   4 -11    9.80    2.10
   6   4  11    8.70    2.40
   6   4  11    8.60    1.90
  -7  -4 -11    7.60    2.10
   7  -4  11    6.20    1.60
   7  -4  11    6.60    2.10
   7   4  11    8.90    2.50
  -7   4 -11    6.10    1.80
   7   4  11    5.60    1.60
  -8  -4 -11  118.89    5.70
   8  -4  11  143.49    7.40
  -8  -4 -11  127.79    6.20
  -8   4 -11  133.79    5.90
   8   4  11  139.49    7.90
  -9  -4 -11   11.60    1.90
   9  -4  11   17.00    3.30
  -9  -4 -11   16.20    2.20
  -9   4 -11   19.90    2.10
   9   4  11   15.80    3.60
  10  -4  11   78.99    6.20
  10   4  11   89.89    7.00
  12  -5 -11   -0.10    3.10
  12   5 -11    0.60    3.10
  11  -5 -11  105.29    7.90
  11  -5 -11   93.29    4.80
  11   5 -11   98.89    5.10
  11   5 -11  113.19    8.10
  10  -5 -11   -1.00    1.40
  10  -5 -11   -0.90    1.60
 -10  -5  11    2.60    1.80
  10  -5 -11   -0.20    2.90
  10   5 -11   -0.90    1.50
  10   5 -11   -1.10    2.50
  -9  -5  11   79.89    5.80
   9  -5 -11   94.29    6.70
   9  -5 -11   83.19    5.00
   9  -5 -11   67.59    4.50
   9   5 -11   87.89    5.00
   9   5 -11   86.99    6.40
   8  -5 -11    0.30    2.20
   8  -5 -11   -0.30    1.50
   8   5 -11    0.10    2.00
   8   5 -11   -0.20    1.70
  -8   5  11   -0.10    1.50
   7  -5 -11  303.57   11.70
   7  -5 -11  288.17   12.50
   7   5 -11  309.77   12.20
   7   5 -11  317.67   11.80
  -7   5  11  289.47   11.40
  -6  -5  11   93.09    5.50
   6  -5 -11  103.79    5.40
   6  -5 -11   87.79    5.70
   6   5 -11   86.49    5.30
   6   5 -11   85.49    5.20
  -6   5  11   91.79    5.00
   5  -5 -11  177.78    7.80
  -5  -5  11  168.18    9.20
   5   5 -11  169.58    7.30
   5   5 -11  172.98    7.90
  -5   5  11  168.78    7.40
  -5   5  11  174.68    8.10
  -4  -5  11  292.37   11.20
   4  -5 -11  289.67   11.10
   4   5 -11  279.07   10.20
   4   5 -11  278.27   11.10
   4   5 -11  277.47   10.00
  -4   5  11  283.57   11.10
  -4   5  11  277.17   10.70
  -3  -5  11  173.38    7.90
   3  -5 -11  176.18    7.90
  -3   5  11  175.68    7.60
   3   5 -11  184.98    6.70
   3   5 -11  180.98    6.50
   3   5 -11  176.18    8.00
  -3   5  11  190.38    7.80
  -2  -5  11  424.46   15.50
   2  -5 -11  415.16   14.90
   2  -5 -11  443.26   15.50
  -2   5  11  436.56   15.20
  -2   5  11  439.96   15.10
   2   5 -11  420.26   15.50
   2   5 -11  436.26   13.90
   2   5 -11  428.16   13.60
   1  -5 -11    1.10    1.40
  -1  -5  11    0.80    1.30
   1  -5 -11    1.40    1.00
  -1   5  11    2.10    1.20
  -1   5  11    0.50    1.10
   1   5 -11    4.00    1.70
   0  -5 -11  318.17   11.90
   0  -5 -11  307.47   11.40
   0  -5  11  304.07   11.80
   0   5  11  317.87   11.70
   0   5 -11  305.77   11.90
   0   5  11  316.37   11.40
   1  -5  11  216.28    9.00
  -1  -5 -11  216.08    8.70
  -1  -5 -11  217.78    9.00
   1   5  11  213.18    8.70
   1   5  11  212.98    8.60
  -1   5 -11  223.28    9.10
   2  -5  11  204.78    6.40
  -2  -5 -11  186.08    8.30
   2  -5  11  188.28    8.30
   2   5  11  204.78    8.20
  -2   5 -11  194.98    8.40
   2   5  11  184.68    8.00
   3  -5  11  123.69    4.80
  -3  -5 -11  129.99    6.30
   3  -5  11  116.99    6.00
   3   5  11  124.69    6.80
  -3   5 -11  117.19    4.70
  -3   5 -11  129.79    6.30
   3   5  11  126.99    6.40
   4  -5  11  219.78    8.00
   4  -5  11  206.78    8.80
  -4  -5 -11  221.98    9.10
  -4   5 -11  203.78    7.70
  -4   5 -11  219.98    9.00
   4   5  11  210.58    9.20
   5  -5  11   96.99    5.40
  -5  -5 -11  107.79    5.70
   5  -5  11  104.59    5.00
  -5   5 -11  101.89    4.90
  -5   5 -11  112.29    5.60
   5   5  11  101.79    6.00
   6  -5  11   16.30    2.70
   6  -5  11    9.80    2.00
  -6  -5 -11   15.10    2.50
  -6   5 -11   13.10    2.20
   6   5  11   16.90    3.10
  -6   5 -11   16.20    2.50
  -7  -5 -11  213.48    8.80
   7  -5  11  186.48    8.30
   7  -5  11  214.58    9.10
  -7  -5 -11  201.48    9.20
  -7   5 -11  207.18    8.40
   7   5  11  205.58    9.90
  -8  -5 -11    2.80    1.60
   8  -5  11    3.00    1.30
   8  -5  11    6.40    2.30
  -8  -5 -11    5.90    2.00
  -8   5 -11    0.30    1.30
   8   5  11    7.00    2.70
   9  -5  11  126.09    7.30
  -9  -5 -11  119.59    5.90
  -9   5 -11  125.39    5.40
   9   5  11  129.59    8.10
  10  -5  11    5.10    2.70
 -10  -5 -11    2.10    1.30
  10   5  11    3.10    2.70
  11  -6 -11   -0.50    1.40
  11  -6 -11   -1.60    2.50
  11   6 -11   -0.10    3.00
  11   6 -11   -2.10    1.60
  10  -6 -11   22.00    4.40
  10  -6 -11   15.90    2.70
  10  -6 -11   24.20    3.20
  10   6 -11   24.80    3.10
  10   6 -11   24.00    4.50
   9  -6 -11    0.50    1.80
   9  -6 -11   -6.60    1.90
   9   6 -11   -1.20    2.30
   9   6 -11   -1.00    1.60
   8  -6 -11    2.20    1.80
   8  -6 -11   -0.40    2.10
   8   6 -11   -0.30    2.00
   8   6 -11    0.20    1.90
   7  -6 -11    4.90    2.40
   7  -6 -11    2.70    1.80
   7   6 -11    1.60    2.00
   7   6 -11    4.90    2.40
   6  -6 -11    1.40    1.80
   6  -6 -11    4.00    2.40
   6   6 -11    7.40    2.20
   6   6 -11    7.40    2.30
   5  -6 -11   43.80    3.70
   5   6 -11   38.30    3.70
   5   6 -11   44.30    3.30
  -5   6  11   35.30    4.10
  -4  -6  11   29.70    2.30
   4  -6 -11   35.00    3.80
   4   6 -11   29.40    2.50
  -4   6  11   26.90    3.30
   4   6 -11   29.40    3.50
   3  -6 -11  119.69    6.20
   3   6 -11  125.09    6.40
   3   6 -11  122.29    4.80
   3   6 -11  118.19    4.70
  -3   6  11  114.49    5.90
   2  -6 -11   90.69    5.30
  -2   6  11   93.79    5.10
   2   6 -11   93.59    3.40
   2   6 -11   93.19    3.40
   2   6 -11   93.39    5.40
   1  -6 -11   33.60    3.70
   1   6 -11   25.80    3.20
  -1   6  11   29.80    2.80
   0  -6 -11    7.70    2.10
   0   6 -11    8.00    2.10
   0   6  11    8.30    1.80
  -1  -6 -11  137.99    6.70
   1   6  11  132.19    6.30
  -1   6 -11  133.69    6.70
  -2  -6 -11   42.90    3.60
  -2   6 -11   39.00    3.50
   2   6  11   36.10    4.00
   3  -6  11  384.16   12.70
  -3  -6 -11  381.36   14.10
   3  -6  11  370.86   12.20
   3   6  11  364.26   14.00
  -3   6 -11  392.86   14.20
  -4  -6 -11   13.30    2.70
   4  -6  11   15.80    1.90
   4   6  11   15.10    3.00
  -4   6 -11   14.40    2.60
   5  -6  11   29.00    3.00
  -5  -6 -11   32.40    3.80
  -5   6 -11   23.70    3.10
  -5   6 -11   18.80    2.20
   5   6  11   24.00    3.70
   6  -6  11    0.20    1.40
  -6  -6 -11   -1.60    1.50
   6   6  11    2.30    2.10
  -6   6 -11    0.20    1.10
  -6   6 -11    1.90    1.60
   7  -6  11   63.39    4.40
  -7  -6 -11   58.29    4.40
   7   6  11   53.09    5.00
  -7   6 -11   53.79    3.90
  -8  -6 -11   38.90    3.70
   8  -6  11   41.70    4.50
   8  -6  11   29.70    3.00
  -8   6 -11   38.70    3.20
   8   6  11   40.90    5.10
   9  -6  11    2.20    2.20
  -9  -6 -11    0.70    1.80
   9   6  11    3.20    2.40
  -9   6 -11    3.10    1.30
 -10  -6 -11    7.20    1.70
  10  -6  11    8.00    2.80
  10   6  11    4.40    3.00
  11  -7 -11   58.99    4.40
  11  -7 -11   75.69    7.00
  11   7 -11   85.29    7.20
  11   7 -11   68.49    4.80
  10  -7 -11   -1.10    2.50
  10  -7 -11    0.40    1.80
  10   7 -11    2.90    2.30
  10   7 -11    7.40    3.30
   9  -7 -11   91.79    7.00
   9   7 -11  101.39    6.90
   9   7 -11   90.29    5.60
   8  -7 -11    1.20    2.30
   8  -7 -11    3.10    2.20
   8   7 -11   -2.10    1.80
   8   7 -11   -2.70    1.90
   7  -7 -11   80.19    6.00
   7  -7 -11   83.19    5.90
   7   7 -11   85.19    5.40
   7   7 -11   86.09    5.50
   6  -7 -11  116.29    7.10
   6  -7 -11  125.39    7.00
   6   7 -11  122.19    6.30
   6   7 -11  122.79    6.60
   5   7 -11   81.89    5.50
  -5   7  11   87.79    5.70
   5   7 -11   92.19    4.80
  -4  -7  11  107.29    4.90
   4   7 -11  119.69    5.10
  -4   7  11  113.99    6.20
   4   7 -11  126.39    9.30
   3  -7 -11   49.10    5.70
  -3   7  11   55.59    4.10
   3   7 -11   56.59    2.80
   2  -7 -11  365.36   14.60
   2   7 -11  362.06   11.30
   2   7 -11  361.66   11.30
   2   7 -11  366.16   15.60
   1  -7 -11    1.20    1.50
   1   7 -11    4.90    2.20
  -1   7  11    2.10    1.50
   0  -7 -11  601.64   21.90
   0   7  11  610.44   21.30
   0   7 -11  609.14   21.50
  -1  -7 -11   54.09    5.90
   1   7  11   59.59    4.50
  -1   7 -11   52.29    4.50
  -2   7 -11  137.79    7.60
   2   7  11  130.79    6.60
   3  -7  11  299.37    9.80
  -3  -7 -11  306.77   15.30
   3   7  11  305.17   12.00
   4  -7  11  423.36   14.00
  -4  -7 -11  439.06   16.20
   4  -7  11  436.66   14.10
   4   7  11  409.76   15.90
  -5  -7 -11  154.08    7.60
   5  -7  11  156.68    6.40
   5  -7  11  159.58    6.50
   5   7  11  152.18    8.00
   6  -7  11   57.59    3.80
   6  -7  11   49.80    3.50
  -6  -7 -11   57.99    4.50
   6   7  11   60.49    5.10
  -7  -7 -11   64.59    4.80
   7  -7  11   72.49    5.20
  -7   7 -11   60.89    4.80
   7   7  11   68.69    5.70
   8  -7  11    1.00    1.80
  -8   7 -11    1.00    1.50
   8   7  11    0.60    2.20
  -9  -7 -11   50.19    4.30
   9  -7  11   53.59    4.80
  -9   7 -11   56.29    3.60
   9   7  11   64.59    6.10
  11  -8 -11   -1.60    2.90
  11  -8 -11    1.70    2.60
  11   8 -11   -0.30    2.00
  11   8 -11    3.80    3.30
  10  -8 -11   23.20    3.30
  10  -8 -11   28.70    4.90
  10   8 -11   23.70    3.50
  10   8 -11   31.80    4.90
   9  -8 -11   -0.80    1.80
   9  -8 -11   -3.40    4.10
   9   8 -11    0.30    2.00
   9   8 -11   -0.30    2.20
   8  -8 -11    0.70    2.40
   8  -8 -11    0.90    2.00
   8   8 -11    1.10    2.00
   8   8 -11    3.70    2.30
   7  -8 -11    4.50    2.10
   7  -8 -11    7.60    2.70
   7   8 -11    4.20    2.30
   7   8 -11    5.00    2.20
   6  -8 -11   26.90    3.70
   6   8 -11   27.40    3.40
   6   8 -11   23.20    3.50
  -6   8  11   29.60    4.10
   5  -8 -11  159.18    7.80
  -5  -8  11  145.69    6.80
   5   8 -11  159.78    7.80
   5   8 -11  162.98    6.90
  -5   8  11  138.99    7.70
  -4  -8  11   19.70    2.20
   4  -8 -11   21.90    3.20
  -4   8  11   16.30    2.90
   4   8 -11   20.10    3.20
   4   8 -11   22.10    2.30
  -3  -8  11   23.70    2.00
   3  -8 -11   25.40    3.30
   3   8 -11   27.50    2.00
   3   8 -11   25.80    3.40
  -3   8  11   22.50    3.30
   2  -8 -11   46.30    4.00
   2   8 -11   41.10    3.90
   2   8 -11   43.60    1.90
   2   8 -11   41.40    1.90
  -2   8  11   43.60    3.70
   1  -8 -11   90.29    5.40
  -1   8  11   86.39    5.10
   1   8 -11   86.39    5.50
   0  -8 -11   44.90    4.00
   0   8 -11   41.90    4.00
   0   8  11   43.70    3.70
  -1  -8 -11   91.69    5.60
   1   8  11   90.29    5.30
  -1   8 -11   87.39    5.50
  -2  -8 -11    1.10    1.70
   2   8  11    1.30    1.70
  -2   8 -11   -2.30    1.30
  -3  -8 -11  279.97   11.40
   3  -8  11  269.77    8.80
   3  -8  11  283.27    8.90
   3   8  11  264.17   11.30
  -3   8 -11  280.47   11.40
   4  -8  11    7.00    1.30
   4  -8  11    5.20    1.10
  -4  -8 -11    8.90    2.60
   4   8  11    6.70    2.30
  -4   8 -11    7.60    2.40
  -5  -8 -11   61.49    5.00
   5  -8  11   55.19    3.30
   5  -8  11   63.59    3.60
  -5   8 -11   68.69    4.70
   5   8  11   69.09    5.30
   6  -8  11    2.40    1.60
   6  -8  11   -0.30    1.10
  -6  -8 -11    0.20    1.90
   6   8  11   -0.30    1.90
  -6   8 -11    5.40    1.90
  -7  -8 -11   26.80    3.70
  -7   8 -11   31.70    3.70
   7   8  11   30.70    4.60
   8  -8  11   45.20    4.70
  -8  -8 -11   41.80    4.50
   8   8  11   41.40    5.20
  -8   8 -11   37.50    3.60
  -9  -8 -11    2.00    2.10
   9  -8  11    4.00    2.10
  -9   8 -11    1.90    1.50
   9   8  11   -1.30    2.30
  10  -9 -11    3.90    2.30
  10  -9 -11    2.30    3.20
  10   9 -11    3.70    3.10
  10   9 -11    0.90    2.20
   9  -9 -11    8.60    3.50
   9  -9 -11    2.00    2.10
   9   9 -11    5.80    2.70
   9   9 -11    2.50    2.50
   8  -9 -11    1.90    2.10
   8  -9 -11    1.80    2.90
   8   9 -11    5.10    2.50
   8   9 -11    1.70    2.10
   7  -9 -11    4.30    2.80
   7  -9 -11    6.60    2.40
   7   9 -11    8.10    2.50
   7   9 -11    8.30    2.80
   6  -9 -11   -1.10    1.90
   6   9 -11   -0.10    1.60
   6   9 -11    1.10    2.00
  -6   9  11    2.30    2.50
  -5  -9  11    3.20    1.50
   5  -9 -11    4.80    2.30
   5   9 -11    6.40    2.30
   5   9 -11    6.70    1.80
  -5   9  11    6.60    2.80
  -4  -9  11   24.50    2.40
   4  -9 -11   18.80    3.40
   4   9 -11   25.10    3.70
   4   9 -11   22.10    2.40
  -4   9  11   24.80    3.80
   3  -9 -11   10.70    2.70
  -3  -9  11   11.00    1.50
  -3   9  11   11.70    2.60
   3   9 -11   14.40    3.10
   3   9 -11   11.00    1.50
   2  -9 -11   31.90    3.90
   2   9 -11   28.30    1.50
   2   9 -11   27.10    3.80
  -2   9  11   24.50    3.20
   1  -9 -11  185.68    8.70
  -1   9  11  177.68    8.30
   1   9 -11  197.48    9.00
   0  -9 -11    6.60    2.40
   0   9  11    5.60    2.10
   0   9 -11    9.70    2.50
  -1  -9 -11   61.99    4.80
   1   9  11   61.79    4.50
  -1   9 -11   61.39    4.80
  -2  -9 -11   14.20    3.00
  -2   9 -11   13.90    2.90
   2   9  11   12.50    2.60
  -3  -9 -11   11.70    2.80
   3   9  11   10.40    2.70
  -3   9 -11   12.90    2.80
   4  -9  11   50.29    2.70
   4  -9  11   42.20    2.40
  -4  -9 -11   50.89    4.60
   4   9  11   49.50    4.60
  -4   9 -11   51.99    4.40
  -5  -9 -11    0.90    2.00
   5  -9  11   -0.20    1.00
   5  -9  11    0.70    1.20
  -5   9 -11    3.80    2.00
   5   9  11    0.40    2.10
  -6  -9 -11    4.40    2.40
   6  -9  11    4.00    1.50
   6  -9  11    2.00    1.40
  -6   9 -11    7.40    2.30
   6   9  11    5.90    2.90
  -7  -9 -11    4.00    2.50
  -7   9 -11    7.60    2.30
   7   9  11    2.90    2.60
   8  -9  11    9.50    2.50
  -8  -9 -11   12.30    3.00
  -8   9 -11    6.60    2.20
   8   9  11    8.30    3.50
   9  -9  11   12.80    2.90
  -9  -9 -11   13.60    3.10
   9   9  11    8.90    3.40
  -9   9 -11    9.90    2.20
  10 -10 -11    8.70    2.70
  10 -10 -11   13.90    4.40
  10  10 -11    4.20    2.70
  10  10 -11    4.60    3.90
   9 -10 -11    5.20    2.60
   9 -10 -11    2.00    3.20
   9  10 -11    4.40    2.70
   9  10 -11    6.00    2.60
   8 -10 -11   28.90    3.90
   8  10 -11   34.00    4.30
   8  10 -11   33.40    4.40
   7 -10 -11   28.90    4.10
   7 -10 -11   28.40    4.40
   7  10 -11   33.80    4.10
   7  10 -11   33.40    4.40
   6 -10 -11    6.10    2.60
  -6  10  11    5.60    2.80
   6  10 -11    7.80    2.20
   6  10 -11    7.60    2.70
  -5 -10  11  109.39    5.60
   5 -10 -11  126.59    7.10
  -5  10  11  122.29    7.30
   5  10 -11  117.89    5.70
   5  10 -11  122.89    7.00
  -4 -10  11   96.89    4.80
   4 -10 -11  110.69    6.60
  -4  10  11  119.19    6.70
   4  10 -11  110.99    6.60
   4  10 -11  100.69    4.80
  -3 -10  11   50.09    2.80
   3 -10 -11   50.09    4.70
   3  10 -11   46.80    2.70
  -3  10  11   41.10    4.80
   3  10 -11   51.09    4.70
   2 -10 -11    3.80    2.20
  -2  10  11    8.80    2.60
   2  10 -11    9.20    1.00
   2  10 -11    8.00    2.70
   1 -10 -11   44.40    4.80
   1  10 -11   49.99    4.50
  -1  10  11   42.40    4.00
   0 -10 -11    1.70    2.10
   0  10 -11    0.90    2.00
   0  10  11    1.10    1.80
  -1 -10 -11   24.80    3.70
   1  10  11   21.30    3.10
  -1  10 -11   25.50    3.70
  -2 -10 -11   30.70    4.40
   2  10  11   21.90    3.50
  -2  10 -11   28.10    3.90
  -3 -10 -11   62.49    5.20
   3  10  11   62.69    5.10
  -3  10 -11   70.49    5.20
   4 -10  11   15.70    1.50
  -4 -10 -11   15.00    3.40
   4 -10  11   21.00    1.70
  -4  10 -11   16.40    3.20
   4  10  11   22.00    3.60
   5 -10  11   17.20    2.00
   5 -10  11   18.60    2.20
  -5 -10 -11   19.80    3.70
  -5  10 -11   20.40    3.40
   5  10  11   18.50    3.40
   6 -10  11   29.80    2.80
  -6 -10 -11   27.70    4.30
   6 -10  11   25.60    2.60
  -6  10 -11   27.70    3.70
   6  10  11   34.80    4.80
  -7 -10 -11    2.30    2.30
   7 -10  11    0.90    2.00
   7  10  11    0.00    2.30
  -7  10 -11    0.50    2.00
  -8 -10 -11   46.60    5.20
   8 -10  11   36.00    4.20
   8  10  11   39.10    5.20
  -8  10 -11   42.10    4.10
  10 -11 -11    8.50    2.80
  10 -11 -11    8.90    3.90
  10  11 -11   11.30    3.60
  10  11 -11    7.80    2.90
   9 -11 -11    5.00    2.50
   9 -11 -11    5.90    3.50
   9  11 -11    9.40    3.30
   9  11 -11    1.00    2.50
   8 -11 -11    2.80    2.50
   8 -11 -11   -1.70    2.60
   8  11 -11   -1.00    2.10
   8  11 -11    0.80    2.30
   7 -11 -11    8.20    3.50
   7 -11 -11    8.30    3.00
   7  11 -11   10.00    2.70
   7  11 -11    6.10    3.10
   6 -11 -11    6.00    2.70
  -6  11  11    7.60    3.20
   6  11 -11    3.80    2.50
  -5 -11  11    9.70    2.10
   5 -11 -11    5.80    2.70
   5  11 -11   11.60    2.30
  -5  11  11    9.30    2.80
   5  11 -11   14.90    3.50
  -4 -11  11   31.20    2.80
   4 -11 -11   34.40    4.50
   4  11 -11   36.30    4.60
   4  11 -11   36.80    2.80
  -4  11  11   39.70    4.60
  -3 -11  11    1.10    1.10
   3 -11 -11    1.10    2.20
   3  11 -11    1.80    1.10
   3  11 -11   -0.70    2.00
  -3  11  11    0.10    2.10
  -2 -11  11   57.09    2.90
   2 -11 -11   51.99    5.00
  -2  11  11   54.39    4.70
   2  11 -11   52.39    2.30
   2  11 -11   55.19    5.10
   1 -11 -11    1.00    2.00
   1  11 -11    0.20    2.10
  -1  11  11   -0.70    1.70
   0 -11 -11   58.49    5.10
   0  11 -11   60.59    5.10
   0  11  11   63.99    4.90
  -1 -11 -11    0.60    2.10
  -1  11 -11    0.40    2.00
   1  11  11    2.30    1.90
  -2 -11 -11   21.20    3.70
  -2  11 -11   17.80    3.50
   2  11  11   23.80    3.70
  -3 -11 -11   14.00    3.40
  -3  11 -11   15.00    3.10
   3  11  11   11.40    3.00
   4 -11  11    1.70    1.10
   4 -11  11    2.20    0.90
  -4 -11 -11    1.00    2.30
   4  11  11    1.00    2.20
  -4  11 -11   -2.50    1.70
   5 -11  11    9.30    1.50
   5 -11  11   13.30    1.90
  -5 -11 -11   17.20    3.90
  -5  11 -11   10.80    2.90
   5  11  11    9.20    3.10
  -6 -11 -11    1.30    2.40
   6 -11  11   -1.00    1.40
   6 -11  11   -0.50    1.30
  -6  11 -11    0.80    2.10
   6  11  11    0.30    2.50
  -7 -11 -11    0.00    2.50
   7 -11  11    2.50    2.00
   7  11  11    7.20    3.00
  -7  11 -11    6.50    2.30
  -8 -11 -11    2.20    2.70
   8 -11  11   -0.30    1.70
  -8  11 -11   -0.90    1.70
   8  11  11    0.60    2.70
   9 -12 -11    2.90    3.50
   9 -12 -11    9.10    3.00
   9  12 -11   10.80    3.50
   9  12 -11    6.40    3.00
   8 -12 -11    3.70    2.60
   8 -12 -11   -4.10    2.80
   8  12 -11    2.30    2.70
   8  12 -11    0.60    2.40
   7 -12 -11    2.00    2.80
   7 -12 -11    0.70    2.40
   7  12 -11    0.20    2.60
   7  12 -11    4.50    2.40
   6 -12 -11   18.50    3.80
  -6  12  11   11.00    3.60
   6  12 -11    9.40    3.20
   6  12 -11   16.10    2.90
  -5 -12  11    9.30    2.10
   5 -12 -11   13.20    3.30
  -5  12  11   13.30    3.60
   5  12 -11    8.60    3.30
   5  12 -11   12.60    2.30
  -4 -12  11   18.50    2.50
   4 -12 -11   24.30    3.90
   4  12 -11   21.10    3.90
  -4  12  11   25.80    4.10
   4  12 -11   24.20    2.60
   3 -12 -11    6.00    2.80
  -3 -12  11    8.40    1.60
   3  12 -11    9.40    3.20
   3  12 -11   10.10    1.60
  -3  12  11    6.30    2.60
   2 -12 -11    2.60    2.30
   2  12 -11   -0.10    0.80
  -2  12  11   -0.70    1.90
   2  12 -11   -1.00    2.10
   1 -12 -11   42.20    5.00
   1  12 -11   40.40    5.20
  -1  12  11   48.20    4.50
   0 -12 -11    4.10    2.60
   0  12 -11   13.80    3.30
   0  12  11   14.00    3.20
  -1 -12 -11    1.80    2.10
   1  12  11    3.40    2.40
  -1  12 -11    1.10    2.20
  -2 -12 -11   -0.70    2.10
  -2  12 -11    0.30    2.10
   2  12  11    2.00    2.10
  -3 -12 -11   19.70    4.10
   3  12  11   21.50    4.00
  -3  12 -11   17.90    3.40
  -4 -12 -11    7.50    3.30
   4 -12  11    3.10    1.20
  -4  12 -11    5.70    2.70
   4  12  11    3.40    2.60
   5 -12  11    1.80    1.20
  -5 -12 -11    0.60    2.50
   5 -12  11    1.50    1.00
  -5  12 -11    1.80    2.30
   5  12  11    3.10    2.80
   6 -12  11    6.00    1.80
  -6 -12 -11    5.60    2.90
  -6  12 -11    5.90    2.60
   6  12  11    1.50    2.60
   7 -12  11    3.30    1.90
  -7 -12 -11    1.30    2.60
   7  12  11    0.90    2.60
  -7  12 -11    3.90    2.40
   8 -13 -11   -1.40    2.20
   8 -13 -11    3.20    3.40
   8  13 -11   -0.30    2.60
   8  13 -11    0.40    2.40
   7 -13 -11    9.80    3.40
   7 -13 -11   10.10    3.60
   7  13 -11   11.30    3.50
   7  13 -11   10.70    2.90
   6 -13 -11   47.30    5.50
  -6  13  11   38.50    5.90
   6  13 -11   47.00    4.20
   6  13 -11   43.60    5.60
   5 -13 -11   59.69    5.70
   5  13 -11   64.89    6.00
  -5  13  11   60.09    5.90
   5  13 -11   59.29    4.20
   4 -13 -11   11.00    3.60
   4  13 -11   12.30    2.00
   4  13 -11   11.00    3.40
  -4  13  11   16.90    4.00
  -3 -13  11   17.40    2.10
   3 -13 -11   23.70    4.10
   3  13 -11   16.30    3.80
  -3  13  11   14.60    3.50
   3  13 -11   17.00    2.00
   2 -13 -11   45.40    5.40
  -2 -13  11   41.10    2.50
  -2  13  11   42.00    4.80
   2  13 -11   37.70    5.00
   1 -13 -11    2.20    2.60
  -1  13  11   -2.60    1.90
   1  13 -11    3.60    2.60
   0 -13 -11   85.59    6.50
   0  13 -11   75.59    6.20
   0  13  11   78.89    5.90
  -1 -13 -11    2.80    2.70
   1  13  11   -0.90    2.30
  -1  13 -11    1.20    2.20
  -2 -13 -11   20.40    4.10
   2  13  11   20.90    3.90
  -2  13 -11   21.70    3.90
  -3 -13 -11    9.50    3.40
  -3  13 -11    3.30    2.60
   3  13  11    9.10    3.10
  -4 -13 -11    5.60    2.90
   4  13  11    5.10    3.00
  -4  13 -11    3.00    2.40
  -5 -13 -11    1.00    2.70
   5 -13  11    2.70    1.20
   5  13  11    1.20    2.50
  -5  13 -11    0.40    2.20
  -6 -13 -11    3.40    3.00
   6 -13  11    4.20    1.60
  -6  13 -11    7.50    2.80
   6  13  11    1.70    2.60
   7 -13  11   10.20    2.40
  -7 -13 -11   10.20    3.70
  -7  13 -11   11.90    3.20
   7  13  11   11.40    3.70
   8 -14 -11   21.60    4.20
   8 -14 -11   31.00    5.60
   8  14 -11   21.20    4.50
   8  14 -11   22.50    4.00
   7 -14 -11   15.20    4.50
   7 -14 -11   20.30    6.20
   7  14 -11   23.50    3.60
   7  14 -11   17.70    4.00
   6 -14 -11   27.80    5.10
   6  14 -11   30.30    3.80
  -6  14  11   34.00    5.50
   5 -14 -11   59.09    6.30
   5  14 -11   44.60    3.80
   5  14 -11   51.19    6.40
  -5  14  11   41.90    5.40
   4 -14 -11   12.90    3.60
  -4 -14  11    5.50    1.80
   4  14 -11   11.80    3.50
   4  14 -11    7.10    1.90
  -4  14  11    6.30    3.20
  -3 -14  11   61.39    3.70
   3 -14 -11   76.79    6.50
   3  14 -11   77.69    6.50
  -3  14  11   75.29    6.20
   3  14 -11   72.79    3.70
   2 -14 -11    2.90    2.70
  -2 -14  11    2.00    1.10
  -2  14  11    6.30    3.10
   2  14 -11    3.80    3.00
   1 -14 -11  150.18    9.00
  -1  14  11  156.78    8.70
   1  14 -11  152.98    9.00
   0 -14 -11   15.10    3.70
   0  14  11   15.90    3.60
   0  14 -11   16.10    3.60
  -1 -14 -11   78.89    6.60
   1  14  11   71.39    6.00
  -1  14 -11   71.19    6.20
  -2 -14 -11   25.60    4.50
  -2  14 -11   20.60    4.00
   2  14  11   20.10    4.00
  -3 -14 -11  101.59    7.40
  -3  14 -11   99.79    7.10
   3  14  11  103.09    7.20
  -4 -14 -11   14.70    6.60
   4  14  11   16.70    4.00
  -4  14 -11   18.20    3.90
  -5 -14 -11    6.30    4.00
   5 -14  11    7.10    1.40
  -5  14 -11    6.50    3.20
   5  14  11    8.50    3.20
  -6 -14 -11   20.40    4.50
   6 -14  11   18.20    2.40
   6  14  11   28.80    4.90
   7 -15 -11   14.90    3.90
   7 -15 -11   11.10    4.20
   7  15 -11    6.90    2.80
   7  15 -11    9.60    3.90
   6 -15 -11    1.30    2.80
   6  15 -11    1.30    2.10
   6  15 -11   -0.40    3.00
  -6  15  11    3.60    3.30
   5 -15 -11   14.40    3.90
  -5  15  11   11.80    3.80
   5  15 -11   11.10    3.10
   5  15 -11   11.00    3.90
   4 -15 -11   29.00    4.80
   4  15 -11   32.30    5.00
  -4  15  11   35.30    5.20
   4  15 -11   29.80    2.90
   3 -15 -11    3.80    3.20
  -3 -15  11    8.70    1.90
   3  15 -11    6.70    1.60
  -3  15  11   10.60    3.80
   3  15 -11    7.80    3.50
  -2 -15  11   43.00    2.70
   2 -15 -11   53.59    6.10
   2  15 -11   63.79    6.10
   2  15 -11   44.50    2.90
   1 -15 -11   -0.20    2.90
   1  15 -11   -0.50    2.60
  -1  15  11    4.30    3.80
   0 -15 -11   72.19    6.70
   0  15 -11   58.29    6.60
  -1 -15 -11   -2.90    2.90
  -1  15 -11    1.70    2.60
   1  15  11    1.10    2.40
  -2 -15 -11   44.10    6.00
  -2  15 -11   44.40    5.50
   2  15  11   61.29    5.80
  -3 -15 -11    0.90    3.00
   3  15  11    1.70    2.60
  -3  15 -11    2.40    2.90
  -4 -15 -11   16.90    4.30
   4  15  11   22.80    4.70
  -4  15 -11   19.00    3.90
  -5 -15 -11   14.10    4.10
  -5  15 -11   10.20    3.30
   5  15  11   10.40    3.90
   6 -16 -11   19.40    4.40
   6  16 -11   24.40    5.00
   6  16 -11   17.00    3.10
  -6  16  11   25.60    5.30
   5 -16 -11   13.20    3.90
   5  16 -11    3.00    3.30
   5  16 -11    9.90    2.60
  -5  16  11   18.50    4.70
   4 -16 -11   23.30    4.60
   4  16 -11   27.40    4.90
   4  16 -11   17.30    2.50
  -4  16  11   16.70    4.20
   3 -16 -11   27.90    5.00
   3  16 -11   12.70    1.90
  -3  16  11   20.50    4.70
   3  16 -11   11.30    3.90
   2 -16 -11    3.60    3.20
  -2  16  11    1.20    2.90
   2  16 -11    6.80    3.40
   2  16 -11    3.80    1.30
   1 -16 -11  123.59    8.90
  -1  16  11  132.19    8.60
   1  16 -11  158.98    9.50
   0 -16 -11    1.30    3.30
   0  16  11   -0.40    2.60
   0  16 -11   -1.80    3.00
  -1 -16 -11   51.99    6.40
   1  16  11   50.19    6.20
  -1  16 -11   43.60    5.70
  -2 -16 -11    0.80    3.20
  -2  16 -11    2.60    2.80
   2  16  11    2.40    2.90
  -3 -16 -11   68.59    7.50
   3  16  11   92.59    7.10
  -3  16 -11   74.29    6.70
  -4 -16 -11    5.50    3.40
   4  16  11    5.00    3.30
  -4  16 -11    2.70    3.00
   4 -17 -11   42.30    5.80
   4  17 -11   35.00    3.30
  -4  17  11   37.80    5.70
   4  17 -11   41.50    6.10
   3 -17 -11   10.30    4.00
  -3  17  11   10.90    4.20
   3  17 -11    8.80    1.90
   3  17 -11    9.20    4.10
   2 -17 -11   31.30    5.60
  -2  17  11   30.60    5.10
   2  17 -11   32.40    5.30
   2  17 -11   18.00    2.10
   1 -17 -11    3.00    3.50
   1  17 -11    4.60    3.60
  -1  17  11   -1.10    2.90
   0 -17 -11   91.99    7.90
   0  17  11   81.89    7.10
   0  17 -11   78.99    7.30
  -1 -17 -11    6.10    3.60
   1  17  11   11.10    3.50
  -1  17 -11   15.30    4.20
  -2 -17 -11   77.29    7.60
   2  17  11   79.99    7.10
  -2  17 -11   79.89    7.40
  12   0 -12    0.90    3.10
  11   0 -12    1.50    1.40
  11   0 -12   -6.20    2.30
 -11   0  12   -2.60    1.50
 -10   0  12   26.70    3.40
  10   0 -12   41.30    5.40
  10   0 -12   33.70    3.10
   9   0 -12   13.40    3.40
   9   0 -12   13.20    2.40
  -9   0  12   12.80    2.30
   8   0 -12    4.40    2.30
  -8   0  12    2.40    1.60
   8   0 -12   -0.80    1.70
   7   0 -12   10.00    2.30
   7   0 -12   10.30    2.70
  -7   0  12    8.80    2.00
   6   0 -12  299.67   11.80
   6   0 -12  304.37   11.40
  -6   0  12  281.17   11.00
   5   0 -12    2.00    1.80
  -5   0  12    2.50    1.60
   5   0 -12    3.00    1.60
   5   0 -12    4.50    1.60
   4   0 -12    9.70    1.90
   4   0 -12    8.20    1.90
  -4   0  12    3.80    1.40
   4   0 -12   11.00    2.30
   3   0 -12    9.10    1.60
  -3   0  12    3.80    1.50
   3   0 -12    6.40    2.00
  -3   0  12    8.00    1.60
   2   0 -12  147.99    6.90
   2   0 -12  147.99    5.90
  -2   0  12  149.39    6.70
  -2   0  12  152.28    6.00
  -1   0  12   17.40    1.90
   1   0 -12   18.10    1.70
   1   0 -12   17.40    2.60
  -1   0  12   24.70    2.90
   0   0 -12  307.27   11.30
   0   0  12  287.17   11.00
   0   0  12  284.97    9.90
   0   0 -12  289.77   10.00
  -1   0 -12   32.00    3.00
  -1   0 -12   32.80    2.30
   1   0  12   29.70    2.20
   1   0  12   31.40    2.70
  -2   0 -12  126.99    5.60
  -2   0 -12  131.59    6.30
   2   0  12  133.09    5.50
   2   0  12  138.19    6.20
  -3   0 -12   61.09    3.60
  -3   0 -12   65.89    4.20
   3   0  12   63.79    3.60
   3   0  12   63.79    3.90
   4   0  12   37.40    3.00
  -4   0 -12   34.90    3.30
  -4   0 -12   27.60    2.70
   4   0  12   32.30    2.80
   5   0  12  368.76   13.60
  -5   0 -12  377.46   13.50
   5   0  12  357.06   13.20
   6   0  12  259.17   10.70
  -6   0 -12  274.57   10.30
   6   0  12  251.67    9.90
   7   0  12  125.89    5.80
  -7   0 -12  137.49    6.20
   7   0  12  121.79    6.80
   8   0  12    3.40    1.60
  -8   0 -12    6.80    1.80
   8   0  12    3.90    2.10
   9   0  12   65.69    5.50
  -9   0 -12   62.39    3.50
  10   0  12    2.70    2.40
  12  -1 -12   15.90    4.40
  12   1 -12    9.10    4.10
  11  -1 -12   59.49    6.90
  11  -1 -12   51.79    3.30
 -11  -1  12   49.00    4.00
  11   1 -12   63.09    7.00
  11   1 -12   54.89    3.40
  10  -1 -12   32.80    3.20
  10  -1 -12   34.00    5.00
  10   1 -12   30.50    4.80
 -10   1  12   22.00    3.20
  10   1 -12   29.60    3.10
  -9  -1  12  129.09    6.30
   9  -1 -12  151.58    6.70
   9  -1 -12  143.89    8.30
   9   1 -12  142.89    8.30
   9   1 -12  146.89    6.60
  -9   1  12  140.09    6.30
   8  -1 -12  109.49    5.80
  -8  -1  12  107.19    5.50
   8  -1 -12  116.39    7.00
   8   1 -12  120.09    5.90
  -8   1  12   98.89    5.40
   8   1 -12  131.59    7.10
  -7  -1  12  278.37   10.60
   7  -1 -12  273.97   11.50
   7  -1 -12  282.37   10.80
  -7   1  12  253.97   10.30
   7   1 -12  271.67   10.70
   7   1 -12  281.87   11.50
   6  -1 -12   10.50    2.30
  -6  -1  12    4.80    1.60
   6  -1 -12   10.50    3.00
   6   1 -12    5.90    2.00
  -6   1  12    7.80    1.90
   6   1 -12    8.10    2.20
  -5  -1  12  504.85   17.50
   5  -1 -12  497.35   17.60
   5  -1 -12  528.15   17.80
   5   1 -12  503.65   17.20
   5   1 -12  501.35   17.40
  -5   1  12  494.05   17.30
   5   1 -12  510.25   17.70
   4  -1 -12   14.70    2.50
  -4  -1  12   18.10    2.50
   4  -1 -12   19.40    2.50
   4  -1 -12   19.00    2.60
   4   1 -12   18.50    2.70
  -4   1  12   20.10    2.60
   4   1 -12   20.50    2.50
   4   1 -12   17.70    2.20
  -3  -1  12 1343.87   43.20
   3  -1 -12 1342.57   42.50
   3  -1 -12 1391.06   43.40
   3   1 -12 1392.46   42.40
   3   1 -12 1356.86   42.20
   3   1 -12 1413.66   43.50
  -3   1  12 1340.17   43.10
  -3   1  12 1401.46   42.80
   2  -1 -12   44.30    2.80
  -2  -1  12   52.49    2.90
   2  -1 -12   47.90    3.60
  -2  -1  12   49.90    3.50
  -2   1  12   52.99    3.10
  -2   1  12   55.49    3.60
   2   1 -12   49.20    2.70
   2   1 -12   49.70    3.70
   1  -1 -12 1275.57   40.00
   1  -1 -12 1323.37   41.20
  -1  -1  12 1264.07   41.00
  -1  -1  12 1335.47   39.70
  -1   1  12 1321.37   40.10
  -1   1  12 1253.57   40.90
   1   1 -12 1292.47   41.20
   1   1 -12 1313.37   39.70
   0  -1 -12  114.59    4.90
   0  -1  12  112.59    4.40
   0  -1  12  113.69    5.60
   0  -1 -12  110.99    5.60
   0   1  12  112.79    4.80
   0   1 -12  112.69    5.70
   0   1  12  106.09    5.40
   0   1 -12  111.99    4.50
   1  -1  12  114.79    4.50
  -1  -1 -12  109.29    5.60
  -1  -1 -12  110.49    5.00
  -1   1 -12  116.29    5.80
   1   1  12  102.49    5.30
   1   1  12  122.49    5.00
  -1   1 -12  110.99    4.60
  -2  -1 -12  444.46   15.30
   2  -1  12  461.45   14.80
   2  -1  12  423.46   15.60
  -2  -1 -12  449.36   15.90
  -2   1 -12  448.86   15.90
  -2   1 -12  444.36   14.90
   2   1  12  466.65   15.20
   2   1  12  446.46   15.70
   3  -1  12  105.19    5.40
   3  -1  12  114.69    5.00
  -3  -1 -12  108.99    5.30
  -3  -1 -12  119.29    5.80
   3   1  12  115.69    5.30
  -3   1 -12  115.49    5.80
   3   1  12  116.99    5.50
  -3   1 -12  111.09    5.10
   4  -1  12  890.81   29.50
   4  -1  12  941.61   29.30
  -4  -1 -12  912.41   29.70
  -4  -1 -12  905.51   29.80
  -4   1 -12  944.31   29.80
   4   1  12  897.71   29.50
   4   1  12  931.61   29.60
  -4   1 -12  888.11   29.30
  -5  -1 -12   68.99    4.30
   5  -1  12   58.59    4.00
   5  -1  12   58.19    3.80
   5   1  12   62.09    3.80
  -5   1 -12   65.69    5.00
  -5   1 -12   63.59    4.20
  -6  -1 -12  436.06   15.20
   6  -1  12  413.46   14.90
   6  -1  12  437.26   15.70
  -6   1 -12  453.45   15.30
   6   1  12  419.86   15.80
   6   1  12  402.86   14.80
  -7  -1 -12   13.80    2.30
   7  -1  12    6.80    1.70
   7  -1  12   12.20    2.60
   7   1  12    7.50    1.70
   7   1  12   10.00    2.50
  -7   1 -12   13.10    2.20
   8  -1  12  115.89    6.00
   8  -1  12  126.09    7.00
  -8  -1 -12  122.19    5.70
  -8   1 -12  118.59    5.60
   8   1  12  112.59    6.90
  -9  -1 -12   17.30    2.20
   9  -1  12   20.90    3.90
  -9   1 -12   19.20    2.10
   9   1  12   20.00    4.00
  10  -1  12   24.90    4.20
  10   1  12   28.30    4.70
  12  -2 -12   26.70    5.60
  12   2 -12   33.10    5.50
  11  -2 -12   28.10    5.10
  11  -2 -12   31.40    2.70
  11   2 -12   33.80    5.30
  11   2 -12   29.50    2.80
  10  -2 -12   59.39    3.80
  10  -2 -12   57.59    6.50
 -10  -2  12   51.69    4.40
  10   2 -12   53.49    3.80
  10   2 -12   61.19    6.00
   9  -2 -12   -1.90    1.40
   9  -2 -12    4.50    2.50
  -9  -2  12   -0.70    1.50
  -9   2  12   -0.60    1.40
   9   2 -12   -0.10    1.50
   9   2 -12   -0.20    2.20
   8  -2 -12  148.89    6.90
   8  -2 -12  153.28    8.10
  -8  -2  12  137.59    6.60
   8   2 -12  155.48    8.00
   8   2 -12  143.79    6.80
  -8   2  12  132.59    6.40
   7  -2 -12   48.80    4.50
  -7  -2  12   52.09    3.80
   7  -2 -12   55.09    4.10
  -7   2  12   39.90    3.40
   7   2 -12   54.79    4.50
   7   2 -12   54.89    4.10
   6  -2 -12   70.89    4.80
  -6  -2  12   67.19    4.30
   6  -2 -12   68.29    4.50
   6   2 -12   74.09    4.70
   6   2 -12   72.19    4.60
  -6   2  12   66.89    4.10
   5  -2 -12    7.40    2.10
  -5  -2  12    3.30    1.70
   5  -2 -12    7.30    2.00
   5   2 -12    7.50    2.10
   5   2 -12    5.40    1.60
   5   2 -12    6.70    1.90
  -5   2  12    8.70    1.90
  -4  -2  12  132.39    6.40
   4  -2 -12  132.49    6.10
   4  -2 -12  139.39    6.60
  -4   2  12  140.99    6.30
   4   2 -12  144.19    6.70
   4   2 -12  131.09    5.90
   4   2 -12  138.99    5.80
  -4   2  12  140.39    6.50
  -3  -2  12   -1.90    1.10
   3  -2 -12   -0.60    1.40
   3  -2 -12    2.10    1.10
   3   2 -12   -1.10    1.30
   3   2 -12    2.30    0.90
  -3   2  12   -1.00    1.10
   3   2 -12    1.50    1.10
  -3   2  12    2.60    1.40
   2  -2 -12  141.59    6.70
  -2  -2  12  152.18    6.70
   2  -2 -12  139.59    6.00
   2   2 -12  149.79    6.90
  -2   2  12  141.09    6.50
   2   2 -12  145.89    5.50
   2   2 -12  150.28    5.60
  -2   2  12  148.59    6.20
  -1  -2  12    9.20    1.30
   1  -2 -12    8.20    1.50
  -1  -2  12    9.30    1.90
   1  -2 -12   10.10    2.00
  -1   2  12    9.70    1.70
  -1   2  12   13.40    2.20
   1   2 -12    7.40    1.90
   1   2 -12   10.40    1.30
   0  -2  12  106.99    4.20
   0  -2  12  111.09    5.50
   0  -2 -12  109.89    4.90
   0  -2 -12  106.29    5.50
   0   2 -12  104.39    5.60
   0   2 -12  116.59    4.30
   0   2  12  106.39    4.80
   0   2  12  114.09    5.50
   1  -2  12   10.30    1.30
  -1  -2 -12    9.90    1.70
   1  -2  12    9.80    1.90
  -1  -2 -12    9.20    2.00
   1   2  12    8.90    1.60
  -1   2 -12    9.70    1.30
   1   2  12    5.70    1.50
  -1   2 -12    5.10    1.70
  -2  -2 -12   51.89    3.70
   2  -2  12   50.69    2.70
  -2  -2 -12   50.09    3.60
   2  -2  12   47.20    3.40
  -2   2 -12   48.50    3.70
  -2   2 -12   55.29    2.80
   2   2  12   53.79    3.30
   2   2  12   53.39    3.50
  -3  -2 -12  371.56   14.10
   3  -2  12  417.66   13.40
  -3  -2 -12  390.96   14.40
   3  -2  12  399.46   14.30
  -3   2 -12  380.76   13.40
  -3   2 -12  410.56   14.50
   3   2  12  409.36   14.10
   3   2  12  390.36   14.10
   4  -2  12  134.19    5.80
   4  -2  12  127.19    6.00
  -4  -2 -12  125.29    6.20
   4   2  12  126.49    6.20
  -4   2 -12  118.29    5.60
   4   2  12  136.79    6.10
  -4   2 -12  130.99    6.30
  -5  -2 -12   37.90    3.80
   5  -2  12   31.90    2.80
   5  -2  12   33.00    3.00
  -5   2 -12   34.40    3.20
   5   2  12   32.20    2.90
   5   2  12   34.90    3.80
  -6  -2 -12   53.39    3.90
   6  -2  12   54.49    3.60
  -6   2 -12   52.49    3.80
   6   2  12   51.39    4.30
   6   2  12   48.50    3.40
   7  -2  12  194.28    8.80
  -7  -2 -12  200.48    8.20
   7  -2  12  181.08    7.80
   7   2  12  192.48    7.90
   7   2  12  197.98    9.30
  -7   2 -12  203.38    8.10
  -8  -2 -12   10.70    2.10
   8  -2  12   13.20    3.10
  -8   2 -12   11.80    2.10
   8   2  12   13.70    3.20
   8   2  12    9.40    2.20
  -9  -2 -12   65.69    3.70
   9  -2  12   58.59    5.10
  -9  -2 -12   57.79    3.50
  -9   2 -12   63.99    3.40
   9   2  12   63.19    5.80
  10  -2  12   27.00    4.50
  10   2  12   24.80    4.20
  12  -3 -12    6.80    3.60
  12   3 -12    5.60    3.40
  11  -3 -12   20.30    2.40
  11  -3 -12   21.80    4.50
  11   3 -12   19.50    4.50
  11   3 -12   17.90    2.40
  10  -3 -12    7.30    3.60
  10  -3 -12    4.00    1.80
 -10  -3  12    7.40    2.10
  10   3 -12    3.20    3.00
  10   3 -12    8.10    2.10
  -9  -3  12    6.00    2.10
   9  -3 -12    5.90    2.10
   9  -3 -12    6.20    2.90
   9   3 -12    5.00    2.10
  -9   3  12    4.10    1.80
   9   3 -12    7.70    2.70
   8  -3 -12   -2.10    2.00
   8  -3 -12    5.30    2.00
  -8  -3  12    0.90    1.60
   8   3 -12    1.80    2.20
   8   3 -12   -1.10    1.80
  -8   3  12   -0.10    1.50
   7  -3 -12   36.30    4.30
  -7  -3  12   38.70    3.90
   7  -3 -12   39.40    3.70
   7   3 -12   34.40    3.60
  -7   3  12   27.40    3.10
   7   3 -12   45.60    4.20
   6  -3 -12   12.50    2.70
  -6  -3  12    7.70    2.00
   6  -3 -12    5.90    2.10
  -6   3  12    5.30    1.80
   6   3 -12   10.90    2.40
   6   3 -12    8.70    2.20
  -5  -3  12   57.89    4.00
   5  -3 -12   59.99    4.20
   5  -3 -12   52.09    4.10
   5   3 -12   53.89    3.50
   5   3 -12   63.79    3.90
  -5   3  12   56.29    3.80
   5   3 -12   60.69    4.20
  -4  -3  12   -1.20    1.20
   4  -3 -12   -1.50    1.20
   4   3 -12    0.10    1.00
  -4   3  12   -1.00    1.10
   4   3 -12   -0.80    1.30
  -4   3  12    1.30    1.50
   4   3 -12    0.30    1.00
   3  -3 -12  332.77   12.70
  -3  -3  12  337.87   12.70
   3  -3 -12  325.17   12.10
   3   3 -12  354.26   11.50
  -3   3  12  343.47   12.40
   3   3 -12  332.47   12.80
  -3   3  12  333.97   12.40
   3   3 -12  351.06   11.60
   2  -3 -12  122.99    5.40
   2  -3 -12  124.09    6.10
  -2  -3  12  120.99    6.00
  -2   3  12  119.79    5.50
   2   3 -12  123.49    4.60
  -2   3  12  124.49    5.80
   2   3 -12  117.99    6.10
   2   3 -12  119.09    4.70
   1  -3 -12   29.90    3.40
  -1  -3  12   31.10    3.30
  -1   3  12   29.90    2.70
  -1   3  12   31.00    2.50
   1   3 -12   30.20    3.30
   1   3 -12   30.20    1.80
   0  -3  12   31.80    1.60
   0  -3 -12   30.20    3.30
   0  -3  12   30.20    3.20
   0   3  12   32.50    2.50
   0   3 -12   31.40    3.50
   0   3  12   28.90    2.70
   0   3 -12   30.30    1.70
  -1  -3 -12   60.09    4.00
   1  -3  12   57.29    3.80
  -1  -3 -12   51.59    3.40
   1  -3  12   59.99    2.60
  -1   3 -12   56.19    4.00
  -1   3 -12   60.29    2.70
   1   3  12   56.39    3.70
   1   3  12   58.79    3.50
  -2  -3 -12   17.30    2.50
   2  -3  12   16.90    2.50
  -2  -3 -12   21.00    2.80
   2  -3  12   15.70    1.40
   2   3  12   18.50    2.50
   2   3  12   17.50    2.30
  -2   3 -12   15.30    2.60
  -2   3 -12   16.40    1.70
  -3  -3 -12   74.49    4.60
   3  -3  12   77.69    3.60
   3  -3  12   76.79    4.40
  -3   3 -12   75.59    3.60
  -3   3 -12   77.69    4.70
   3   3  12   78.49    4.50
   3   3  12   72.09    4.30
   4  -3  12   54.49    3.20
  -4  -3 -12   59.09    4.00
   4  -3  12   53.79    3.70
   4   3  12   49.40    3.50
  -4   3 -12   49.80    3.10
  -4   3 -12   48.70    3.80
   5  -3  12   96.69    5.00
   5  -3  12   95.39    5.10
  -5  -3 -12  103.59    5.50
   5   3  12   91.69    4.90
  -5   3 -12   97.29    4.90
  -5   3 -12  101.39    5.40
   5   3  12   96.79    5.60
   6  -3  12    2.50    1.30
   6  -3  12    1.20    1.40
  -6  -3 -12    0.10    1.50
  -6   3 -12    0.80    1.40
   6   3  12    0.60    1.70
   6   3  12    1.50    1.30
   7  -3  12    3.80    1.80
  -7  -3 -12    1.50    1.70
   7  -3  12    3.00    1.40
  -7   3 -12    5.00    1.70
   7   3  12    1.60    1.90
   7   3  12    2.40    1.40
   8  -3  12   57.89    3.70
  -8  -3 -12   69.29    4.30
   8  -3  12   63.39    4.90
  -8   3 -12   67.19    4.00
   8   3  12   68.99    5.50
  -9  -3 -12    1.70    1.40
   9  -3  12    2.30    2.10
   9   3  12    0.20    2.10
  -9   3 -12    0.80    1.20
  10   3  12   22.90    4.30
  12  -4 -12    1.70    3.00
  12   4 -12    3.60    3.20
  11  -4 -12   57.19    3.80
  11  -4 -12   53.29    6.40
  11   4 -12   63.79    7.00
  11   4 -12   52.49    3.80
  10  -4 -12   24.30    7.40
 -10  -4  12   21.50    3.00
  10  -4 -12   19.80    2.70
  10  -4 -12   16.10    2.50
  10   4 -12   18.90    2.70
  10   4 -12   18.40    4.00
   9  -4 -12   10.00    2.50
   9  -4 -12    8.10    3.10
   9   4 -12    8.60    2.90
   9   4 -12    8.50    2.20
  -9   4  12    2.80    1.70
   8  -4 -12  117.59    7.30
   8  -4 -12  124.49    6.40
   8   4 -12  120.79    7.10
   8   4 -12  122.89    6.30
   7  -4 -12   56.99    4.50
   7  -4 -12   65.99    5.10
   7   4 -12   60.69    4.60
   7   4 -12   62.99    4.90
   6  -4 -12   61.09    4.40
   6  -4 -12   68.39    5.00
   6   4 -12   71.69    4.70
   6   4 -12   62.89    4.50
   5  -4 -12    3.70    1.80
   5   4 -12    2.90    1.80
   5   4 -12    8.10    1.70
   5   4 -12    4.50    1.80
  -5   4  12    5.20    2.10
   4  -4 -12  254.07   10.50
   4   4 -12  279.87    9.80
   4   4 -12  263.77    9.50
  -4   4  12  261.77   10.60
  -4   4  12  269.07   11.10
   4   4 -12  268.17   10.80
  -3  -4  12   30.50    3.90
   3  -4 -12   29.80    3.20
   3  -4 -12   24.80    3.10
   3   4 -12   29.50    2.00
   3   4 -12   27.50    2.10
   3   4 -12   25.80    3.20
  -3   4  12   27.10    3.10
  -3   4  12   25.40    3.00
  -2  -4  12  356.76   13.20
   2  -4 -12  343.47   12.50
   2  -4 -12  336.87   13.00
   2   4 -12  347.57   13.20
  -2   4  12  357.66   13.00
   2   4 -12  366.26   11.30
  -2   4  12  341.17   12.60
  -1  -4  12   69.29    4.50
   1  -4 -12   80.09    4.80
   1  -4 -12   74.89    4.10
   1   4 -12   79.09    4.80
   1   4 -12   83.39    3.00
   1   4 -12   83.19    3.00
  -1   4  12   82.39    4.30
  -1   4  12   82.59    4.60
   0  -4  12  109.99    5.60
   0  -4 -12   98.59    5.40
   0  -4 -12   93.29    4.90
   0   4  12   96.19    4.90
   0   4 -12  103.19    3.40
   0   4 -12  117.39    5.80
   0   4  12  101.29    5.30
  -1  -4 -12   77.69    4.40
   1  -4  12   86.99    3.00
   1  -4  12   85.59    4.90
  -1  -4 -12   92.19    5.00
   1   4  12   83.89    4.50
  -1   4 -12   84.29    3.00
  -1   4 -12   80.29    4.90
   1   4  12   80.89    4.60
  -2  -4 -12    3.50    1.60
  -2  -4 -12    2.40    1.60
   2  -4  12    5.40    1.60
  -2   4 -12    4.60    0.90
  -2   4 -12    4.30    1.80
   2   4  12    2.90    1.40
   2   4  12    1.80    1.40
   3  -4  12  223.98   10.10
   3  -4  12  230.58    8.00
  -3  -4 -12  236.08    9.50
  -3   4 -12  220.18    8.00
   3   4  12  225.68    9.30
  -3   4 -12  231.98    9.50
   4  -4  12    4.80    1.40
  -4  -4 -12    6.70    2.20
   4   4  12    4.00    1.80
  -4   4 -12    6.10    2.10
  -4   4 -12    3.30    1.20
  -5  -4 -12  198.88    8.70
   5  -4  12  212.18    8.20
  -5   4 -12  211.48    8.70
   5   4  12  198.48    9.00
  -5   4 -12  190.78    7.90
   6  -4  12    0.70    1.30
  -6  -4 -12    0.40    1.50
   6  -4  12    0.50    1.20
   6   4  12    2.30    1.70
  -6   4 -12    0.40    1.40
  -7  -4 -12   87.39    5.10
   7  -4  12   69.69    4.40
   7  -4  12   93.49    5.40
  -7   4 -12   92.49    4.90
   7   4  12   78.79    5.70
   8  -4  12   78.89    5.30
  -8  -4 -12   82.59    4.80
  -8  -4 -12   72.09    4.30
   8  -4  12   62.09    4.10
   8   4  12   85.29    6.10
  -8   4 -12   84.69    4.50
   9  -4  12   63.79    5.10
  -9  -4 -12   59.89    3.90
  -9   4 -12   60.59    3.50
   9   4  12   59.59    5.60
  10   4  12   20.60    4.60
  11  -5 -12    4.80    1.80
  11  -5 -12    3.70    2.80
  11   5 -12    1.40    1.80
  11   5 -12   10.00    3.60
  10  -5 -12    2.30    1.90
  10  -5 -12   -0.20    1.90
  10  -5 -12    4.00    2.90
  10   5 -12    2.60    1.90
  10   5 -12    2.60    2.90
   9  -5 -12   45.20    4.00
   9  -5 -12   44.20    5.50
   9   5 -12   42.90    5.30
   9   5 -12   41.90    3.90
   8  -5 -12   23.20    3.10
   8  -5 -12   22.00    3.90
   8   5 -12   10.60    2.60
   8   5 -12   21.30    3.50
   7  -5 -12    9.60    3.00
   7   5 -12   11.70    2.60
   7   5 -12   17.20    3.10
   6  -5 -12    7.40    2.30
   6  -5 -12   15.50    2.90
   6   5 -12   17.40    2.80
   6   5 -12   11.30    2.60
   5  -5 -12    6.00    1.90
   5   5 -12    3.20    1.90
  -5   5  12    5.20    2.00
   5   5 -12    6.10    1.70
   4  -5 -12    9.40    2.30
   4   5 -12    7.20    2.20
   4   5 -12    8.10    1.50
  -4   5  12    9.10    3.00
   4   5 -12    8.90    1.70
   3  -5 -12    5.10    2.00
   3   5 -12    6.20    1.20
   3   5 -12    6.70    2.00
   3   5 -12    9.20    1.40
  -3   5  12    4.50    1.60
   2  -5 -12   17.20    2.70
   2   5 -12   15.10    2.70
  -2   5  12   15.30    2.30
   2   5 -12   14.20    1.30
   2   5 -12   15.40    1.50
   1  -5 -12   59.39    4.20
   1  -5 -12   61.69    3.80
  -1   5  12   66.89    4.00
   1   5 -12   63.89    4.40
   0  -5 -12   32.60    2.80
   0  -5 -12   35.80    3.40
   0   5  12   36.40    3.00
   0   5 -12   34.80    3.40
  -1  -5 -12   34.10    3.70
   1   5  12   31.40    2.90
  -1   5 -12   34.50    3.30
   2  -5  12   53.09    2.20
  -2  -5 -12   59.69    4.10
  -2   5 -12   48.10    3.90
   2   5  12   55.39    3.80
  -2   5 -12   52.19    2.20
   3  -5  12    9.80    1.40
  -3  -5 -12   11.90    2.50
   3   5  12    4.90    1.80
  -3   5 -12    9.70    1.30
  -3   5 -12    7.20    2.10
   4  -5  12   15.60    1.90
  -4  -5 -12   11.70    2.60
  -4   5 -12   20.70    3.10
   4   5  12   11.20    2.50
  -4   5 -12   13.50    1.80
   5  -5  12   68.79    3.90
  -5  -5 -12   76.19    4.90
   5   5  12   73.39    5.00
  -5   5 -12   64.19    4.00
  -5   5 -12   67.09    4.50
   6  -5  12   27.90    3.20
  -6  -5 -12   24.10    3.30
   6   5  12   23.90    3.80
  -6   5 -12   23.70    3.20
  -6   5 -12   34.60    3.70
  -7  -5 -12    9.00    2.40
   7  -5  12   15.10    2.80
  -7   5 -12   10.80    2.30
   7   5  12   13.60    3.00
  -8  -5 -12    5.60    2.20
   8  -5  12    8.00    2.10
   8  -5  12    8.30    2.50
  -8   5 -12    7.70    1.90
   8   5  12    8.60    2.80
  -9  -5 -12   17.60    2.70
   9  -5  12   18.40    3.50
   9   5  12   20.00    3.90
  -9   5 -12   20.00    2.40
 -10  -5 -12    4.20    1.90
  10  -5  12    1.50    2.50
  10   5  12   -0.10    2.30
  11  -6 -12   -1.80    1.50
  11  -6 -12    5.30    3.30
  11   6 -12   -2.00    2.70
  11   6 -12   -3.80    1.60
  10  -6 -12    3.00    2.10
  10  -6 -12   -2.20    2.40
  10   6 -12   -2.00    2.70
  10   6 -12    0.20    2.40
   9  -6 -12   14.30    3.80
   9   6 -12   11.50    3.30
   9   6 -12   11.30    2.60
   8  -6 -12    0.70    2.30
   8  -6 -12    0.60    1.90
   8   6 -12    3.60    2.40
   8   6 -12   -0.70    1.90
   7  -6 -12   28.50    4.10
   7  -6 -12   29.50    4.40
   7   6 -12   26.80    3.70
   7   6 -12   29.60    3.90
   6  -6 -12   30.20    3.90
   6   6 -12   36.80    3.80
   6   6 -12   32.90    4.00
   5   6 -12   32.20    4.50
  -5   6  12   31.90    3.80
   5   6 -12   30.50    2.90
   4  -6 -12   -1.30    1.80
   4   6 -12    1.20    1.10
  -4   6  12   -2.20    1.20
   4   6 -12    0.70    1.00
   3  -6 -12    3.60    2.10
  -3   6  12   -1.60    1.60
   3   6 -12    3.50    2.10
   3   6 -12    1.80    1.10
   3   6 -12    1.70    1.00
   2  -6 -12    0.80    1.70
   2   6 -12    1.80    1.70
  -2   6  12    1.30    1.30
   2   6 -12    1.50    0.60
   2   6 -12    1.20    0.60
   1  -6 -12    1.30    1.50
   1   6 -12   -1.10    1.40
  -1   6  12   -1.00    1.10
   0  -6 -12    0.80    1.60
   0   6  12    0.50    1.20
   0   6 -12    3.70    1.80
  -1  -6 -12    0.80    1.70
   1   6  12    4.50    1.90
  -1   6 -12    4.00    1.70
  -2  -6 -12    1.90    2.00
   2   6  12   -0.30    1.40
  -2   6 -12   -0.80    1.40
   3   6  12   72.29    4.70
  -3   6 -12   75.59    5.50
   4  -6  12   18.10    2.00
  -4  -6 -12   21.70    4.20
  -4   6 -12   12.20    4.20
   4   6  12   10.50    2.40
  -5  -6 -12   33.40    4.10
   5  -6  12   27.70    2.50
  -5   6 -12   27.60    2.30
   5   6  12   28.30    3.70
  -6  -6 -12    1.70    1.80
   6  -6  12    4.30    1.70
   6   6  12    2.40    1.90
  -6   6 -12    2.60    1.40
   7  -6  12   21.40    3.10
  -7  -6 -12   15.20    3.30
  -7   6 -12   15.40    2.60
   7   6  12   16.10    3.40
  -8  -6 -12   -0.10    3.00
   8  -6  12   -1.90    1.40
  -8   6 -12    0.60    1.50
   8   6  12   -0.10    2.30
  -9  -6 -12   -0.40    1.70
   9  -6  12    1.60    2.00
   9   6  12    3.10    2.60
  -9   6 -12    0.30    1.30
  11  -7 -12    1.80    3.00
  11  -7 -12    2.10    2.10
  11   7 -12    1.90    2.00
  11   7 -12    5.80    3.40
  10  -7 -12    1.10    2.80
  10  -7 -12   -1.30    1.90
  10   7 -12   -1.40    1.80
  10   7 -12    3.70    3.00
   9  -7 -12   30.80    7.90
   9  -7 -12   17.50    3.00
   9   7 -12   21.60    3.40
   9   7 -12   18.90    3.80
   8  -7 -12   10.60    2.50
   8  -7 -12    8.00    3.30
   8   7 -12   10.80    3.00
   8   7 -12   10.40    2.80
   7  -7 -12   24.80    3.50
   7  -7 -12   28.00    4.10
   7   7 -12   20.30    3.30
   7   7 -12   24.40    3.50
   6  -7 -12  108.39    6.50
   6  -7 -12   96.39    5.90
   6   7 -12  103.39    5.60
   6   7 -12   98.09    6.00
   5  -7 -12    6.80    2.50
   5   7 -12   13.60    2.20
  -5   7  12    7.00    2.40
   5   7 -12   11.70    2.80
   4  -7 -12    0.50    1.70
   4   7 -12    1.40    1.10
   4   7 -12    1.50    1.80
  -4   7  12   -0.40    1.70
   3  -7 -12   49.60    4.30
   3   7 -12   51.39    4.40
   3   7 -12   52.79    2.70
  -3   7  12   58.09    4.20
   3   7 -12   50.79    2.60
   2  -7 -12   21.40    3.10
  -2   7  12   21.80    2.90
   2   7 -12   19.10    3.10
   1  -7 -12   91.29    5.50
  -1   7  12   91.39    5.20
   1   7 -12   87.39    5.60
   0  -7 -12    6.20    2.30
   0   7  12    6.60    1.90
   0   7 -12    5.60    2.10
  -1  -7 -12   12.30    2.70
  -1   7 -12    5.80    2.10
   1   7  12   11.60    2.60
  -2  -7 -12   12.00    2.70
  -2   7 -12   10.80    2.50
   2   7  12   10.20    2.60
   3  -7  12   15.20    1.20
  -3  -7 -12   20.20    3.30
   3  -7  12   16.40    1.30
  -3   7 -12   19.10    3.10
   3   7  12   19.90    3.10
   4  -7  12   75.59    3.50
  -4  -7 -12   72.99    5.20
   4  -7  12   76.49    3.50
  -4   7 -12   78.69    5.20
   4   7  12   82.49    5.40
   5  -7  12   23.90    2.60
   5  -7  12   20.60    2.40
  -5  -7 -12   24.60    3.70
  -5   7 -12   24.00    3.40
   5   7  12   22.10    3.40
   6  -7  12   50.99    3.60
   6  -7  12   44.90    3.30
  -6  -7 -12   49.90    4.40
  -6   7 -12   52.19    4.20
   6   7  12   48.30    4.70
   7  -7  12    1.60    1.90
  -7  -7 -12    1.60    1.90
  -7   7 -12    0.30    1.60
   7   7  12    7.10    2.60
  -8  -7 -12   22.30    3.50
   8  -7  12   23.70    3.50
   8   7  12   32.00    5.10
  -8   7 -12   26.10    4.00
  -9  -7 -12   -2.50    2.10
   9  -7  12    1.60    1.90
  -9   7 -12    2.60    1.50
   9   7  12    2.90    2.50
  11  -8 -12   53.99    6.70
  11  -8 -12   53.09    4.70
  11   8 -12   47.30    4.50
  11   8 -12   67.79    7.20
  10  -8 -12   15.20    4.10
  10  -8 -12   13.50    2.80
  10   8 -12   13.40    3.00
  10   8 -12   13.20    3.70
   9  -8 -12    2.70    2.90
   9  -8 -12    3.10    2.00
   9   8 -12    5.30    2.50
   9   8 -12    5.30    3.00
   8  -8 -12   87.09    6.70
   8  -8 -12   93.49    5.90
   8   8 -12   77.29    5.60
   8   8 -12   86.79    6.00
   7  -8 -12    5.80    2.20
   7  -8 -12    8.60    2.80
   7   8 -12    5.40    2.30
   7   8 -12    6.60    2.50
   6  -8 -12  107.49    6.30
   6   8 -12   97.59    5.50
  -6   8  12   97.79    6.60
   6   8 -12   99.89    6.30
   5  -8 -12   55.49    4.70
   5   8 -12   58.69    4.80
   5   8 -12   59.79    3.80
  -5   8  12   46.60    4.50
  -4  -8  12   98.59    4.60
   4  -8 -12   99.09    6.10
   4   8 -12  104.79    4.70
  -4   8  12  108.09    6.20
   4   8 -12  113.89    6.40
   3  -8 -12   17.20    3.20
   3   8 -12   18.40    1.70
   3   8 -12   17.80    3.10
   3   8 -12   18.00    1.70
  -3   8  12   22.40    3.40
   2  -8 -12    0.90    1.80
   2   8 -12    2.60    2.00
  -2   8  12    0.50    1.60
   1  -8 -12  429.96   16.20
   1   8 -12  432.36   16.30
  -1   8  12  435.86   15.80
   0  -8 -12   43.10    4.10
   0   8  12   41.70    3.70
   0   8 -12   40.90    4.00
  -1  -8 -12  124.69    6.90
   1   8  12  135.79    6.70
  -1   8 -12  129.39    7.00
  -2  -8 -12   47.50    4.80
  -2   8 -12   38.50    4.30
   2   8  12   45.90    4.00
  -3  -8 -12  124.19    6.80
   3   8  12  118.19    6.60
  -3   8 -12  114.99    6.60
   4  -8  12    6.40    1.20
  -4  -8 -12    5.90    2.40
   4  -8  12    5.20    1.10
   4   8  12    4.60    2.20
  -4   8 -12    3.50    1.90
   5  -8  12   41.10    2.90
   5  -8  12   37.10    2.70
  -5  -8 -12   42.70    4.70
  -5   8 -12   46.30    4.20
   5   8  12   53.09    4.70
   6  -8  12    0.10    1.30
   6  -8  12    0.80    1.30
  -6  -8 -12   -0.20    1.90
   6   8  12   -0.20    2.10
  -6   8 -12   -0.20    1.50
  -7  -8 -12  136.09    7.40
  -7   8 -12  130.69    6.80
  -8  -8 -12   29.30    4.10
   8  -8  12   28.80    3.70
  -8   8 -12   36.90    3.80
   8   8  12   34.20    5.00
   9  -8  12   18.40    3.30
  -9  -8 -12   14.20    3.00
   9   8  12   16.70    4.20
  -9   8 -12   13.50    2.40
  10  -9 -12   12.10    2.90
  10  -9 -12    6.10    3.40
  10   9 -12    5.90    2.60
  10   9 -12   12.70    3.80
   9  -9 -12   11.20    3.80
   9  -9 -12    7.10    2.60
   9   9 -12    3.50    2.90
   9   9 -12   10.50    3.00
   8  -9 -12    2.30    2.10
   8  -9 -12    1.30    2.50
   8   9 -12   -0.80    2.30
   8   9 -12    1.60    2.30
   7  -9 -12   83.69    5.80
   7  -9 -12   81.09    6.20
   7   9 -12   74.79    5.30
   7   9 -12   73.29    5.60
   6  -9 -12    1.20    2.00
  -6   9  12    8.30    2.80
   6   9 -12    7.00    2.60
   6   9 -12    4.00    1.80
   5  -9 -12   20.00    3.40
  -5  -9  12   17.00    2.70
  -5   9  12   19.30    3.50
   5   9 -12   21.70    2.60
   5   9 -12   22.20    3.60
   4  -9 -12    1.80    2.00
  -4  -9  12   -0.80    1.10
   4   9 -12    3.00    2.20
   4   9 -12   -1.00    1.00
  -4   9  12   -0.50    1.70
   3  -9 -12   14.90    3.10
   3   9 -12   12.30    2.90
  -3   9  12   13.70    2.90
   3   9 -12    9.40    1.30
   2  -9 -12   -0.30    1.80
  -2   9  12    0.70    1.80
   2   9 -12    2.20    2.00
   1  -9 -12   13.00    3.00
  -1   9  12   15.40    2.80
   1   9 -12   15.90    3.00
   0  -9 -12   71.99    5.40
   0   9 -12   74.79    5.40
   0   9  12   80.49    5.20
  -1  -9 -12    8.80    2.60
   1   9  12    9.30    2.60
  -1   9 -12    8.00    2.40
  -2  -9 -12    3.60    2.30
  -2   9 -12    4.00    2.20
   2   9  12    2.80    1.90
  -3  -9 -12   46.30    4.50
   3   9  12   48.10    4.50
  -3   9 -12   52.49    4.60
  -4  -9 -12  268.87   11.70
   4  -9  12  272.67    9.30
   4  -9  12  271.67    8.90
   4   9  12  272.77   11.80
  -4   9 -12  268.37   11.50
   5  -9  12    1.00    1.00
   5  -9  12    1.60    1.20
  -5  -9 -12    3.30    2.20
  -5   9 -12    1.10    1.80
   5   9  12    2.40    2.20
  -6  -9 -12   50.99    4.90
   6  -9  12   42.00    3.20
   6  -9  12   50.09    3.40
   6   9  12   44.10    5.20
  -6   9 -12   44.20    4.20
   7  -9  12    2.20    1.70
  -7  -9 -12    2.60    2.40
   7   9  12    3.30    2.50
  -7   9 -12    3.60    2.00
   8  -9  12   47.80    4.10
  -8  -9 -12   40.90    4.80
   8   9  12   45.40    5.70
  -8   9 -12   46.70    4.20
  10 -10 -12   -0.10    3.20
  10 -10 -12    2.10    2.40
  10  10 -12    2.80    2.60
  10  10 -12    7.10    4.20
   9 -10 -12    5.90    3.60
   9 -10 -12    4.80    2.60
   9  10 -12    2.10    2.40
   9  10 -12    4.30    2.70
   8 -10 -12   40.40    5.30
   8 -10 -12   39.50    4.60
   8  10 -12   31.40    4.40
   8  10 -12   37.50    4.70
   7 -10 -12   11.10    3.10
   7 -10 -12    7.10    3.30
   7  10 -12   12.70    3.20
   7  10 -12    6.70    2.50
   6 -10 -12   79.89    5.90
   6  10 -12   69.69    4.70
   6  10 -12   78.09    5.90
  -6  10  12   83.09    6.30
  -5 -10  12    8.30    2.00
   5 -10 -12   14.80    3.30
  -5  10  12   10.50    2.90
   5  10 -12    9.80    2.90
   5  10 -12   14.30    2.30
   4 -10 -12   54.69    5.00
  -4 -10  12   49.99    3.20
   4  10 -12   56.59    5.10
   4  10 -12   58.29    3.30
  -4  10  12   56.69    5.00
  -3 -10  12   17.30    1.80
   3 -10 -12   22.60    3.80
  -3  10  12   19.70    3.60
   3  10 -12   17.30    1.70
   3  10 -12   14.90    3.30
   2 -10 -12  109.39    6.60
  -2  10  12   96.19    6.10
   2  10 -12  107.79    6.70
   1 -10 -12    0.70    2.00
  -1  10  12    3.30    1.90
   1  10 -12    3.20    2.40
   0 -10 -12   10.10    2.80
   0  10 -12   11.00    2.80
   0  10  12   11.70    2.70
  -1 -10 -12   54.89    4.90
  -1  10 -12   51.59    4.90
   1  10  12   56.69    4.60
  -2 -10 -12   72.49    5.70
  -2  10 -12   83.09    5.80
   2  10  12   95.79    5.90
  -3 -10 -12  102.09    6.60
   3  10  12   98.09    6.30
  -3  10 -12   95.79    6.20
   4 -10  12    5.10    1.50
  -4 -10 -12    7.40    2.90
  -4  10 -12    3.10    2.30
   4  10  12    2.80    2.20
  -5 -10 -12  125.39    7.40
   5 -10  12  108.49    4.70
   5 -10  12  115.89    5.00
   5  10  12  129.59    7.60
  -5  10 -12  126.39    7.00
  -6 -10 -12    3.50    2.70
   6 -10  12   -0.10    1.30
  -6  10 -12    1.40    1.90
   6  10  12    1.90    2.50
   7 -10  12  110.09    5.70
  -7 -10 -12  108.69    7.10
   7  10  12  116.79    8.00
  -7  10 -12  110.59    6.60
  -8 -10 -12   30.10    4.50
   8 -10  12   36.20    4.10
  -8  10 -12   29.80    3.70
   8  10  12   35.70    5.40
   9 -11 -12   63.59    7.00
   9 -11 -12   75.09    5.80
   9  11 -12   64.19    5.70
   9  11 -12   71.69    6.10
   8 -11 -12    7.90    2.90
   8 -11 -12    9.80    4.00
   8  11 -12   12.20    2.90
   8  11 -12    7.30    2.80
   7 -11 -12  284.07   12.20
   7  11 -12  262.27   11.10
   7  11 -12  245.98   11.70
   6 -11 -12    7.10    2.90
   6  11 -12    1.70    1.80
   6  11 -12    0.80    2.40
  -6  11  12    7.90    3.30
   5 -11 -12  121.79    7.50
  -5 -11  12  110.19    5.60
  -5  11  12  122.49    7.60
   5  11 -12  125.49    7.50
   5  11 -12  126.39    5.80
   4 -11 -12   26.40    4.20
  -4 -11  12   19.10    2.40
   4  11 -12   21.60    3.70
  -4  11  12   27.00    4.50
   4  11 -12   18.50    2.30
  -3 -11  12   86.29    3.90
   3 -11 -12   88.09    6.30
   3  11 -12   90.79    3.70
  -3  11  12   79.39    5.90
   3  11 -12  104.59    6.70
   2 -11 -12    6.50    2.80
  -2  11  12    9.50    3.00
   2  11 -12    5.20    2.90
   1 -11 -12   52.79    4.90
  -1  11  12   48.50    4.50
   1  11 -12   59.09    5.20
   0 -11 -12   61.69    5.30
   0  11 -12   65.89    5.50
   0  11  12   54.29    4.70
  -1 -11 -12    1.20    2.10
   1  11  12    2.90    2.10
  -1  11 -12   -0.20    2.10
  -2 -11 -12   38.40    4.90
   2  11  12   29.60    4.20
  -2  11 -12   38.20    4.60
  -3 -11 -12   74.39    5.90
   3  11  12   73.39    5.60
  -3  11 -12   65.69    5.40
  -4 -11 -12  279.67   12.30
   4  11  12  261.67   12.10
  -4  11 -12  271.27   12.00
   5 -11  12   72.59    3.50
  -5 -11 -12   73.89    6.00
   5 -11  12   63.29    3.20
  -5  11 -12   75.79    5.60
   6 -11  12   99.59    5.00
  -6 -11 -12  106.99    7.20
  -6  11 -12  115.29    6.90
   6  11  12  104.49    7.50
  -7 -11 -12   31.70    4.60
   7 -11  12   37.70    3.30
   7  11  12   45.50    5.70
  -7  11 -12   39.70    4.60
   8 -11  12   98.99    5.80
  -8 -11 -12   95.99    7.10
  -8  11 -12  105.29    6.40
   8  11  12  111.79    8.20
   9 -12 -12   -0.10    2.30
   9 -12 -12   -5.00    2.80
   9  12 -12    1.50    2.60
   9  12 -12    1.60    2.60
   8 -12 -12   19.00    3.70
   8 -12 -12   12.10    4.00
   8  12 -12    5.60    3.10
   8  12 -12   10.90    3.10
   7 -12 -12   47.90    5.80
   7 -12 -12   43.80    5.20
   7  12 -12   45.90    5.30
   7  12 -12   44.60    4.40
   6 -12 -12   -1.00    2.50
   6  12 -12   -2.50    2.40
  -6  12  12    2.40    3.10
   5 -12 -12   16.80    3.60
  -5 -12  12   11.90    2.20
  -5  12  12   14.90    3.60
   5  12 -12   13.40    2.30
   5  12 -12    7.30    3.00
  -4 -12  12   12.20    2.10
   4 -12 -12   24.30    4.00
  -4  12  12   26.70    4.40
   4  12 -12   20.70    2.30
   4  12 -12   28.30    4.40
  -3 -12  12    1.00    1.10
   3 -12 -12    0.90    2.40
  -3  12  12   -2.30    1.80
   3  12 -12    0.90    1.00
   3  12 -12   -0.90    2.30
   2 -12 -12   60.09    5.50
   2  12 -12   55.19    5.40
  -2  12  12   55.49    5.10
   1 -12 -12   32.60    4.70
   1  12 -12   25.30    3.90
  -1  12  12   31.70    4.40
   0 -12 -12   99.09    6.90
   0  12  12  106.49    6.70
   0  12 -12  113.79    7.20
  -1 -12 -12   -0.40    2.20
   1  12  12   -0.60    1.90
  -1  12 -12    1.50    2.20
  -2 -12 -12    1.90    2.50
  -2  12 -12    4.50    2.60
   2  12  12   11.80    3.00
  -3 -12 -12   55.19    5.50
  -3  12 -12   61.59    5.50
   3  12  12   64.19    5.50
  -4 -12 -12   11.30    3.30
  -4  12 -12    8.10    2.70
   4  12  12   11.50    3.60
   5 -12  12   72.39    3.40
  -5 -12 -12   89.89    6.60
   5 -12  12   58.99    3.10
  -5  12 -12   81.89    6.00
   5  12  12   75.69    6.30
  -6 -12 -12    2.30    2.80
   6 -12  12    0.60    1.30
  -6  12 -12    0.60    2.10
   6  12  12    2.50    2.50
  -7 -12 -12   52.89    6.20
   7 -12  12   35.40    3.30
  -7  12 -12   33.40    4.20
   7  12  12   49.60    6.40
   8 -13 -12   31.50    5.70
   8 -13 -12   26.90    4.50
   8  13 -12   28.90    4.20
   7 -13 -12   68.09    6.60
   7 -13 -12   67.99    6.10
   7  13 -12   60.89    5.00
   7  13 -12   68.59    6.50
   6 -13 -12   18.20    4.10
  -6  13  12   22.60    4.40
   6  13 -12   23.50    4.20
   6  13 -12   20.00    3.00
  -5 -13  12   17.40    2.70
   5 -13 -12   24.60    4.30
  -5  13  12   27.40    5.80
   5  13 -12   20.70    2.90
   5  13 -12   25.00    4.50
   4 -13 -12   -0.70    2.30
  -4 -13  12    3.70    1.50
   4  13 -12    1.60    1.40
  -4  13  12    4.10    2.70
   4  13 -12    2.00    2.60
   3 -13 -12   40.70    5.10
  -3 -13  12   42.50    2.70
   3  13 -12   42.30    2.50
  -3  13  12   43.30    5.10
   3  13 -12   58.39    5.60
   2 -13 -12   27.70    4.50
  -2  13  12   27.60    4.10
   2  13 -12   33.60    4.80
   1 -13 -12   59.49    5.60
   1  13 -12   51.79    5.80
  -1  13  12   51.89    5.10
   0 -13 -12   92.79    6.80
   0  13  12   86.29    6.30
   0  13 -12   98.19    6.90
  -1 -13 -12   -0.40    2.30
  -1  13 -12   -4.40    1.90
   1  13  12    2.40    2.40
  -2 -13 -12   74.29    6.20
  -2  13 -12   71.59    6.10
   2  13  12   80.99    6.20
  -3 -13 -12    9.30    3.30
  -3  13 -12    2.80    2.40
  -4 -13 -12   90.39    7.00
   4  13  12   83.29    6.70
  -4  13 -12   89.19    6.60
  -5 -13 -12   12.70    3.70
  -5  13 -12   16.90    3.60
   5  13  12   14.80    3.80
   6 -13  12   64.99    3.60
  -6 -13 -12   64.69    8.30
  -6  13 -12   64.29    5.60
   6  13  12   68.99    6.50
   7 -14 -12    0.80    3.00
   7 -14 -12   -4.00    2.20
   7  14 -12    1.60    2.90
   7  14 -12    4.50    2.50
   6 -14 -12    5.30    3.00
   6  14 -12    9.50    3.80
  -6  14  12    4.60    3.50
   6  14 -12    2.80    2.20
   5  14 -12    1.10    3.20
  -5  14  12    3.70    3.10
   5  14 -12    0.10    1.50
   4 -14 -12   16.60    4.90
  -4 -14  12    7.70    1.90
  -4  14  12    5.10    3.40
   4  14 -12    7.00    1.70
   3 -14 -12    9.40    3.40
  -3 -14  12    9.20    1.60
   3  14 -12   10.70    1.50
  -3  14  12    7.60    3.20
   3  14 -12   11.20    4.10
   2 -14 -12   32.60    5.00
   2  14 -12   33.50    5.00
  -2  14  12   29.90    4.80
   1 -14 -12   30.30    4.80
  -1  14  12   18.50    3.80
   1  14 -12   22.70    4.20
   0 -14 -12   50.09    6.10
   0  14 -12   39.00    5.30
   0  14  12   39.50    4.90
  -1 -14 -12   16.10    4.20
  -1  14 -12    6.40    3.00
   1  14  12   17.00    4.00
  -2 -14 -12    1.70    3.50
   2  14  12    0.20    2.50
  -2  14 -12    0.70    2.50
  -3 -14 -12   41.20    7.00
  -3  14 -12   47.10    8.40
   3  14  12   48.20    6.00
  -4 -14 -12    1.70    2.60
   4  14  12    7.10    3.30
  -4  14 -12    1.70    4.90
  -5 -14 -12   51.89    6.20
  -5  14 -12   49.20    5.70
   5  14  12   38.70    5.40
  -6 -14 -12    0.90    2.90
   6  14  12   -0.70    2.70
  -6  14 -12   -0.60    2.40
   6 -15 -12    2.00    2.80
  -6  15  12   -3.00    2.70
   6  15 -12    0.70    2.80
   6  15 -12   -0.90    1.90
   5 -15 -12    5.30    3.10
   5  15 -12   -0.60    2.80
   5  15 -12    2.50    1.80
  -5  15  12    2.50    3.00
   4 -15 -12    1.60    2.80
   4  15 -12    3.20    1.50
  -4  15  12    0.60    2.90
   4  15 -12    2.60    3.00
   3 -15 -12   -1.90    2.80
  -3 -15  12    2.50    1.90
   3  15 -12    2.90    3.20
  -3  15  12    0.10    2.90
   3  15 -12    0.40    1.10
   2 -15 -12    3.70    2.90
   2  15 -12    0.90    2.90
  -2  15  12   -1.20    2.50
   1 -15 -12    9.60    3.60
   1  15 -12    5.70    3.10
  -1  15  12   11.50    3.30
   0 -15 -12    1.10    2.90
   0  15 -12    4.10    3.00
   0  15  12   -1.30    2.30
  -1 -15 -12    2.10    3.00
   1  15  12    0.00    2.60
  -1  15 -12    6.40    3.20
  -2 -15 -12   -2.50    2.80
   2  15  12   -0.70    2.80
  -2  15 -12   -2.80    2.50
  -3 -15 -12    1.30    2.90
   3  15  12    0.70    2.90
  -3  15 -12    4.50    3.20
  -4 -15 -12    4.70    3.30
   4  15  12    2.90    3.10
  -4  15 -12    1.40    2.50
  -5 -15 -12    6.30    3.70
   5  15  12    1.70    3.20
  -5  15 -12    5.10    2.90
   5 -16 -12    1.10    3.10
  -5  16  12   -1.30    3.10
   5  16 -12    0.20    3.00
   5  16 -12    1.50    1.70
   4 -16 -12   10.10    3.60
  -4  16  12    8.30    3.40
   4  16 -12   11.50    4.00
   4  16 -12    5.60    1.60
   3 -16 -12    4.70    3.20
   3  16 -12    4.00    1.30
   3  16 -12    2.00    3.10
  -3  16  12    2.10    3.20
   2 -16 -12    3.20    3.30
  -2  16  12   -0.70    2.60
   2  16 -12    7.10    3.80
   1 -16 -12    8.30    3.30
  -1  16  12   10.30    3.70
   1  16 -12   12.50    3.90
   0 -16 -12   22.20    4.70
   0  16  12   18.80    4.20
   0  16 -12   23.90    4.90
  -1 -16 -12    9.30    3.70
  -1  16 -12    3.80    2.90
   1  16  12    8.80    3.50
  -2 -16 -12    3.60    3.30
  -2  16 -12   -2.60    2.50
   2  16  12    1.50    2.90
  -3 -16 -12    9.10    3.90
   3  16  12    7.10    3.60
  -3  16 -12   13.20    3.70
   4 -17 -12   -1.30    3.10
   3 -17 -12    5.80    3.50
   3  17 -12    2.60    3.50
  -3  17  12    4.80    3.50
   2 -17 -12    5.30    3.80
  -2  17  12   -1.70    2.90
   2  17 -12    1.60    3.10
   1 -17 -12    2.50    3.40
   1  17 -12   10.00    3.90
  -1  17  12    2.70    3.10
   0 -17 -12   11.80    4.20
   0  17 -12   13.90    4.00
   0  17  12   14.90    4.10
  -1 -17 -12    1.20    3.20
   1  17  12   -2.10    2.90
  -1  17 -12    6.70    3.50
  -2 -17 -12    2.10    3.30
  -2  17 -12    9.00    3.60
   2  17  12   12.10    3.70
  12   0 -13   -0.90    3.00
  11   0 -13   -2.00    2.80
  11   0 -13   -0.60    1.50
 -10   0  13    1.20    1.60
  10   0 -13   -1.40    2.20
  10   0 -13   -1.50    1.40
   9   0 -13   -0.70    2.30
   9   0 -13    0.70    1.70
  -9   0  13   -0.10    1.50
   8   0 -13   -1.80    1.50
   8   0 -13   -1.30    2.00
  -8   0  13   -0.30    1.70
   7   0 -13    0.40    1.90
  -7   0  13    1.00    1.70
   7   0 -13   -1.10    1.50
  -6   0  13    2.50    1.80
   6   0 -13    2.00    1.70
   5   0 -13   -1.60    1.60
   5   0 -13    0.30    1.40
  -5   0  13   -0.70    1.20
   5   0 -13    0.20    1.50
  -4   0  13    0.00    1.10
   4   0 -13    3.80    1.50
   4   0 -13    0.30    0.90
   4   0 -13    3.60    1.80
   3   0 -13    1.90    1.00
   3   0 -13   -2.20    1.30
  -3   0  13   -0.30    1.10
  -3   0  13   -0.20    1.20
   2   0 -13   -0.70    1.40
  -2   0  13    0.90    1.00
  -2   0  13    0.40    1.00
   2   0 -13    1.00    0.90
  -1   0  13   -0.40    0.90
  -1   0  13   -0.70    0.80
   1   0 -13   -1.50    1.10
   1   0 -13    0.20    0.80
   0   0 -13    7.70    2.00
   0   0  13    2.20    1.30
   0   0 -13    4.00    1.10
   0   0  13    8.10    1.40
   1   0  13    0.60    0.90
   1   0  13   -0.10    0.80
  -1   0 -13    0.90    1.50
  -1   0 -13   -0.50    0.70
   2   0  13    0.40    1.10
   2   0  13    0.10    0.90
  -2   0 -13    0.10    0.80
  -2   0 -13    0.30    1.30
   3   0  13   -0.20    1.00
  -3   0 -13    0.10    1.50
   3   0  13    1.10    1.10
  -4   0 -13    0.30    1.10
   4   0  13    2.00    1.40
   4   0  13    1.80    1.20
  -4   0 -13   -1.70    1.30
  -5   0 -13    2.20    1.60
   5   0  13    4.80    1.80
   5   0  13    0.90    1.10
   6   0  13   -0.30    1.50
  -6   0 -13   -1.00    1.30
   6   0  13    0.20    1.10
   7   0  13   -0.70    1.10
   7   0  13   -1.80    1.40
  -7   0 -13   -0.60    1.40
   8   0  13    1.00    1.80
  -8   0 -13    0.30    1.40
   8   0  13    0.00    1.10
   9   0  13    4.00    2.30
  -9   0 -13    0.70    1.30
  10   0  13   -0.60    1.90
  12  -1 -13    5.00    3.60
  12   1 -13    1.30    3.20
  11  -1 -13    1.00    2.80
  11  -1 -13    3.20    1.70
  11   1 -13    1.90    1.70
  11   1 -13    5.30    3.30
  10  -1 -13    5.10    1.90
 -10  -1  13    1.90    1.60
  10  -1 -13    6.00    3.10
 -10   1  13    3.80    1.70
  10   1 -13    6.00    3.10
  10   1 -13    1.60    1.60
  -9  -1  13    3.40    1.80
   9  -1 -13    4.50    2.00
   9  -1 -13   -2.30    2.00
   9   1 -13    0.80    1.70
  -9   1  13    2.40    1.70
   9   1 -13    1.10    2.20
   8  -1 -13    5.80    2.60
   8  -1 -13    3.40    1.80
   8   1 -13    4.50    2.30
  -8   1  13    1.90    2.00
   8   1 -13    9.10    2.20
   7  -1 -13    1.00    1.90
   7  -1 -13    0.40    1.70
   7   1 -13    4.10    2.00
   7   1 -13    7.10    2.30
  -7   1  13    4.80    2.00
   6  -1 -13    2.60    2.00
   6  -1 -13    3.70    1.90
   6   1 -13    3.50    2.00
  -6   1  13    0.70    1.70
   6   1 -13    4.40    2.00
  -5  -1  13    4.70    1.90
   5  -1 -13   11.40    2.40
   5  -1 -13   10.00    2.40
   5   1 -13    9.60    2.10
  -5   1  13    7.00    1.90
   5   1 -13    7.60    2.20
   5   1 -13    8.90    1.90
   4  -1 -13    5.90    1.60
   4  -1 -13    9.00    2.10
  -4  -1  13    6.90    1.80
   4  -1 -13    7.90    1.80
   4   1 -13    1.50    1.30
  -4   1  13    7.70    1.80
   4   1 -13    3.20    1.80
   3  -1 -13   14.00    2.50
  -3  -1  13   22.70    2.90
  -3   1  13   17.30    2.40
   3   1 -13   20.90    2.00
   3   1 -13   17.80    2.70
   3   1 -13   19.90    2.20
  -3   1  13   12.60    2.40
  -2  -1  13   32.00    3.00
   2  -1 -13   36.40    2.50
  -2  -1  13   38.70    2.60
   2  -1 -13   34.80    3.70
   2   1 -13   35.30    2.30
  -2   1  13   37.70    2.70
   2   1 -13   35.90    3.50
  -2   1  13   37.10    3.20
  -1  -1  13   15.90    2.50
   1  -1 -13   12.80    2.30
   1  -1 -13   12.40    1.80
  -1  -1  13   17.10    1.80
   1   1 -13   20.40    2.00
  -1   1  13   16.00    2.10
   1   1 -13   17.00    2.80
  -1   1  13   11.50    2.10
   0  -1  13   38.50    3.20
   0  -1 -13   35.00    2.50
   0  -1 -13   34.70    3.30
   0  -1  13   37.10    2.30
   0   1  13   41.00    2.60
   0   1 -13   42.10    2.40
   0   1 -13   34.70    3.40
   0   1  13   38.00    3.10
  -1  -1 -13    5.70    1.90
   1  -1  13    6.40    1.30
  -1  -1 -13    4.10    1.30
   1  -1  13    3.20    1.30
   1   1  13    5.00    1.50
  -1   1 -13    5.90    1.90
  -1   1 -13    6.00    1.30
   1   1  13    5.90    1.40
   2  -1  13    3.30    1.10
   2  -1  13    3.90    1.40
  -2  -1 -13    3.90    1.70
  -2  -1 -13    1.90    1.30
  -2   1 -13    1.40    1.50
  -2   1 -13    3.40    1.10
   2   1  13    0.90    1.10
   2   1  13    2.30    1.20
  -3  -1 -13   68.69    4.50
  -3  -1 -13   67.79    4.00
   3  -1  13   67.09    3.70
   3  -1  13   61.39    4.00
  -3   1 -13   69.59    4.50
   3   1  13   64.39    4.10
   3   1  13   74.69    4.10
  -3   1 -13   68.19    3.80
   4  -1  13   44.90    3.20
  -4  -1 -13   44.20    3.70
   4  -1  13   39.40    3.30
   4   1  13   40.80    3.30
  -4   1 -13   41.10    3.10
  -4   1 -13   46.50    3.80
   4   1  13   46.60    3.80
   5  -1  13   70.49    4.80
   5  -1  13   77.59    4.50
  -5  -1 -13   76.29    4.70
  -5   1 -13   77.39    4.80
   5   1  13   73.29    4.80
   5   1  13   72.69    4.70
   6  -1  13    3.50    1.70
   6  -1  13    1.30    1.20
  -6  -1 -13    2.80    1.50
   6   1  13    2.00    1.50
   6   1  13   -0.60    1.60
  -6   1 -13    2.40    1.50
   7  -1  13    7.70    2.40
  -7  -1 -13    4.20    1.80
   7  -1  13    6.40    1.70
   7   1  13    6.30    1.80
   7   1  13    7.40    2.40
  -7   1 -13    7.40    2.00
   8  -1  13    5.70    2.20
  -8  -1 -13    0.40    1.40
   8  -1  13    2.20    1.30
   8   1  13    0.60    1.80
   8   1  13    2.90    1.40
  -8   1 -13    1.60    1.60
   9  -1  13   -0.70    1.70
  -9  -1 -13    0.30    1.20
  -9   1 -13    1.20    1.30
   9   1  13    0.00    2.10
  10  -1  13   -1.40    1.80
  10   1  13    0.90    2.10
  12  -2 -13   -3.20    2.60
  12   2 -13    2.30    3.40
  11  -2 -13   56.69    6.70
  11  -2 -13   53.59    3.80
  11   2 -13   50.19    3.70
  11   2 -13   52.49    6.60
  10  -2 -13   -0.70    2.60
 -10  -2  13    1.10    1.60
  10  -2 -13    0.40    1.50
  10   2 -13    2.00    1.70
  10   2 -13    3.00    2.80
 -10   2  13    3.50    1.80
   9  -2 -13   43.60    5.30
   9  -2 -13   37.20    3.60
   9   2 -13   42.00    3.70
  -9   2  13   34.10    4.10
   9   2 -13   39.70    5.20
   8  -2 -13   26.20    3.40
   8  -2 -13   29.20    4.40
   8   2 -13   32.90    4.60
   8   2 -13   27.70    3.40
   7  -2 -13   20.60    3.10
   7  -2 -13   22.70    3.40
   7   2 -13   16.80    2.90
   7   2 -13   14.80    2.90
   6  -2 -13   38.30    3.60
   6  -2 -13   34.50    3.90
   6   2 -13   32.10    3.70
   6   2 -13   31.10    3.70
   5  -2 -13   59.49    4.20
   5  -2 -13   53.79    4.20
   5   2 -13   51.99    3.80
   5   2 -13   54.59    4.20
   5   2 -13   54.39    3.50
   4  -2 -13   29.90    2.70
   4  -2 -13   31.20    3.60
  -4   2  13   26.30    4.00
   4   2 -13   24.70    2.30
   4   2 -13   25.10    3.30
  -4   2  13   27.50    3.20
   4   2 -13   31.10    2.70
   3  -2 -13   12.10    2.50
   3  -2 -13   11.40    1.80
  -3  -2  13    9.30    2.30
  -3   2  13   12.80    2.20
  -3   2  13   10.60    2.30
   3   2 -13   11.40    1.70
   3   2 -13   10.10    2.20
   3   2 -13   10.00    1.60
   2  -2 -13  238.38    9.70
  -2  -2  13  226.48    9.70
  -2   2  13  244.78    9.60
   2   2 -13  233.98    8.30
   2   2 -13  231.08    9.80
   2   2 -13  237.98    8.20
  -2   2  13  227.18    8.90
   1  -2 -13    3.00    1.20
  -1  -2  13    2.40    1.40
   1  -2 -13    3.90    1.70
  -1  -2  13    6.00    1.10
  -1   2  13    3.50    1.20
   1   2 -13    4.70    1.00
  -1   2  13    2.50    1.30
   1   2 -13    4.10    1.70
   0  -2  13  637.04   19.30
   0  -2 -13  613.54   20.20
   0  -2 -13  619.64   21.10
   0  -2  13  595.64   20.90
   0   2 -13  629.54   21.20
   0   2  13  621.54   20.10
   0   2 -13  610.14   19.30
   0   2  13  581.54   20.70
   1  -2  13   31.90    3.00
   1  -2  13   34.00    2.00
  -1  -2 -13   35.50    3.70
   1   2  13   34.00    2.60
  -1   2 -13   35.00    3.70
   1   2  13   31.70    3.60
  -1   2 -13   31.90    2.10
   2  -2  13  752.82   26.60
  -2  -2 -13  785.62   26.10
   2  -2  13  803.02   24.50
  -2  -2 -13  761.72   25.40
   2   2  13  765.02   27.40
   2   2  13  799.82   25.30
  -2   2 -13  770.92   24.60
  -2   2 -13  796.82   26.10
  -3  -2 -13  138.19    7.00
   3  -2  13  159.98    6.10
  -3  -2 -13  142.39    6.70
   3   2  13  145.59    6.60
  -3   2 -13  149.88    7.10
  -3   2 -13  148.89    6.10
   4  -2  13  608.84   20.20
  -4  -2 -13  600.74   21.10
   4   2  13  616.14   20.90
  -4   2 -13  627.44   21.10
  -5  -2 -13  240.18    9.70
   5  -2  13  229.48    9.20
  -5   2 -13  210.58    9.00
   5   2  13  242.68    9.80
  -5   2 -13  233.68    9.60
  -6  -2 -13  182.78    8.10
   6  -2  13  176.08    8.10
   6   2  13  183.58    8.60
  -6   2 -13  185.88    8.10
   7  -2  13  172.18    7.70
   7  -2  13  184.38    8.50
  -7  -2 -13  186.08    8.10
  -7   2 -13  189.98    8.00
   7   2  13  179.78    8.90
   8  -2  13    5.70    2.30
  -8  -2 -13    2.30    1.70
   8  -2  13    2.80    1.40
  -8   2 -13    7.10    1.90
   8   2  13    7.00    2.60
   8   2  13    3.30    1.50
  -9  -2 -13   20.20    2.60
   9  -2  13   21.00    3.70
   9   2  13   23.90    4.70
  -9   2 -13   19.20    2.40
  10  -2  13   55.79    6.10
  10   2  13   46.10    5.70
  12  -3 -13   61.39    7.60
  12   3 -13   73.09    7.20
  11  -3 -13    2.20    1.60
  11  -3 -13    2.20    3.30
  11   3 -13    1.20    1.60
  11   3 -13    2.00    3.00
  10  -3 -13    5.30    2.10
  10   3 -13    3.90    1.90
  10   3 -13    7.60    3.20
 -10   3  13    7.80    2.10
   9  -3 -13   39.00    5.10
   9  -3 -13   42.30    3.90
   9   3 -13   35.30    3.80
   9   3 -13   36.00    4.80
   8  -3 -13   23.10    4.10
   8  -3 -13   19.40    3.00
   8   3 -13   20.00    3.10
   8   3 -13   19.00    3.50
   7  -3 -13   50.29    5.10
   7  -3 -13   48.80    4.10
   7   3 -13   44.90    4.10
   7   3 -13   36.70    4.30
   6  -3 -13   14.60    2.80
   6  -3 -13   17.90    3.00
   6   3 -13   19.90    2.90
   6   3 -13   16.20    2.90
   5  -3 -13  107.59    5.90
   5  -3 -13  113.29    6.00
   5   3 -13  102.89    5.00
   5   3 -13   98.39    5.80
   5   3 -13   97.49    5.30
   4  -3 -13    1.00    1.50
  -4   3  13   -2.00    1.30
   4   3 -13    0.20    1.20
   4   3 -13    1.20    1.10
   4   3 -13   -0.50    1.50
   3  -3 -13   39.50    3.60
   3  -3 -13   38.10    2.90
   3   3 -13   36.20    2.60
  -3   3  13   41.20    3.30
   3   3 -13   39.90    2.50
   3   3 -13   39.30    3.60
   2  -3 -13  192.28    8.60
   2  -3 -13  187.88    7.80
   2   3 -13  207.08    7.10
  -2   3  13  195.58    7.90
   2   3 -13  198.48    6.90
   2   3 -13  195.38    8.60
   1  -3 -13  211.78    8.30
   1  -3 -13  209.38    9.00
  -1   3  13  215.08    8.30
   1   3 -13  214.18    7.20
   1   3 -13  214.38    9.20
   0  -3  13   50.29    2.40
   0  -3 -13   46.90    3.20
   0  -3 -13   42.50    3.80
   0   3 -13   53.29    4.00
   0   3 -13   49.80    2.50
   0   3  13   57.09    3.40
  -1  -3 -13   38.80    4.00
  -1  -3 -13   25.70    2.80
   1  -3  13   25.70    1.70
  -1   3 -13   27.70    1.70
  -1   3 -13   30.80    3.70
   1   3  13   29.90    2.60
  -2  -3 -13   41.70    3.20
   2  -3  13   44.70    2.40
  -2  -3 -13   43.90    3.70
  -2   3 -13   36.90    3.60
   2   3  13   43.30    3.20
  -2   3 -13   40.70    2.40
  -3  -3 -13  411.56   15.00
   3  -3  13  415.26   13.60
   3   3  13  402.86   14.60
  -3   3 -13  399.46   13.70
  -3   3 -13  414.26   15.10
  -4  -3 -13    8.30    2.30
   4  -3  13    7.40    1.60
  -4   3 -13    5.30    1.90
  -4   3 -13    5.20    1.40
   4   3  13    6.00    1.90
  -5  -3 -13   41.70    4.30
   5  -3  13   38.20    3.10
   5   3  13   46.00    3.80
  -5   3 -13   37.80    3.50
  -5   3 -13   30.10    2.80
   6  -3  13   34.80    3.70
  -6  -3 -13   30.70    3.60
  -6   3 -13   30.70    3.50
   6   3  13   25.40    3.60
  -7  -3 -13   22.80    3.20
   7  -3  13   28.20    3.60
   7   3  13   22.60    3.60
  -7   3 -13   29.90    3.50
   8  -3  13   57.49    4.60
  -8  -3 -13   61.59    4.20
   8  -3  13   43.50    3.40
   8   3  13   69.49    5.40
  -8   3 -13   53.19    3.80
  -9  -3 -13    7.90    2.00
   9  -3  13   11.70    2.80
  -9   3 -13    8.20    1.80
   9   3  13    9.50    3.00
  10  -3  13   21.30    3.80
  10   3  13   17.40    3.80
  11  -4 -13   18.40    4.40
  11  -4 -13   21.90    2.80
  11   4 -13   15.20    2.50
  11   4 -13   20.10    4.50
  10  -4 -13    2.40    3.10
  10  -4 -13   -1.80    1.50
  10   4 -13    0.10    1.80
  10   4 -13    2.40    2.70
   9  -4 -13   16.30    2.90
   9  -4 -13   21.60    3.90
   9   4 -13   17.40    3.80
   8  -4 -13    1.40    2.60
   8  -4 -13    4.90    2.10
   8   4 -13    5.50    2.40
   7  -4 -13   10.90    3.00
   7  -4 -13   11.60    2.70
   7   4 -13    8.30    2.30
   7   4 -13    6.70    3.00
   6  -4 -13   56.39    4.60
   6  -4 -13   62.29    4.50
   6   4 -13   52.99    4.10
   6   4 -13   49.99    4.40
   5  -4 -13   40.90    3.70
  -5   4  13   41.80    3.90
   5   4 -13   32.70    2.80
   5   4 -13   43.20    4.00
   5   4 -13   36.80    3.20
   4  -4 -13   16.90    2.70
  -4   4  13   12.40    3.10
   4   4 -13    9.90    1.80
   4   4 -13   13.00    1.90
   4   4 -13    7.70    2.30
   3  -4 -13  127.49    6.60
   3   4 -13  135.59    5.30
  -3   4  13  129.39    6.30
   3   4 -13  131.39    6.70
   3   4 -13  130.99    5.20
   2  -4 -13  371.96   13.40
   2  -4 -13  380.06   14.10
   2   4 -13  377.26   12.60
  -2   4  13  372.36   13.50
   2   4 -13  380.36   12.10
   2   4 -13  376.56   14.20
   1  -4 -13   57.19    3.70
   1  -4 -13   65.99    4.40
   1   4 -13   66.09    2.60
   1   4 -13   68.49    2.60
  -1   4  13   55.49    3.70
   1   4 -13   58.09    4.30
   0  -4 -13  684.83   23.10
   0  -4 -13  725.53   23.80
   0   4 -13  688.33   23.80
   0   4  13  708.43   23.00
   0   4 -13  688.73   21.20
   1  -4  13   38.40    1.70
  -1  -4 -13   34.60    3.00
  -1  -4 -13   39.10    3.60
   1   4  13   40.40    3.10
  -1   4 -13   37.60    1.80
  -1   4 -13   35.40    3.90
  -2  -4 -13  773.42   26.30
   2  -4  13  821.72   24.50
  -2   4 -13  774.62   26.30
  -2   4 -13  752.12   24.20
   2   4  13  802.52   25.90
  -3  -4 -13   23.80    3.30
   3  -4  13   23.10    1.90
  -3   4 -13   22.50    1.90
   3   4  13   22.20    3.30
  -3   4 -13   27.50    3.50
   4  -4  13  147.79    6.00
  -4  -4 -13  143.69    7.10
   4   4  13  140.79    7.00
  -4   4 -13  143.09    5.90
  -4   4 -13  144.29    7.10
  -5  -4 -13  134.29    6.90
   5  -4  13  137.29    6.10
  -5   4 -13  132.59    5.90
  -5   4 -13  135.39    6.70
   5   4  13  136.59    7.10
  -6  -4 -13   99.29    5.90
   6  -4  13  102.19    5.50
  -6   4 -13  113.69    5.90
   6   4  13  110.49    6.40
  -7  -4 -13  126.39    6.60
   7  -4  13  125.59    6.60
  -7   4 -13  128.49    6.40
   7   4  13  129.59    7.40
  -8  -4 -13    9.00    2.20
   8  -4  13   10.70    2.60
  -8   4 -13    5.80    1.90
   8   4  13    9.20    3.10
  -9  -4 -13   59.49    4.00
   9  -4  13   48.10    4.70
   9   4  13   55.39    6.20
  -9   4 -13   57.99    3.60
  11  -5 -13    0.70    1.70
  11  -5 -13    2.30    3.30
  11   5 -13   -1.60    1.70
  11   5 -13   -0.90    2.80
  10  -5 -13   70.89    5.40
  10  -5 -13   80.39    6.80
  10   5 -13   74.49    6.50
  10   5 -13   58.59    4.70
   9  -5 -13   19.10    4.00
   9  -5 -13   19.40    3.60
   9   5 -13   22.70    4.10
   9   5 -13   22.50    3.30
   8  -5 -13   90.59    6.60
   8  -5 -13   93.59    5.80
   8   5 -13   98.99    6.40
   8   5 -13   93.09    5.70
   7  -5 -13  356.96   13.70
   7  -5 -13  345.97   14.20
   7   5 -13  349.57   13.70
   7   5 -13  351.76   13.70
   6  -5 -13  272.37   12.30
   6  -5 -13  287.37   11.80
   6   5 -13  284.57   11.60
   6   5 -13  280.57   11.10
   5   5 -13  144.79    7.00
   5   5 -13  160.28    6.90
  -5   5  13  162.48    7.90
   5   5 -13  161.78    8.10
   4   5 -13   19.20    2.10
   4   5 -13   18.80    2.30
  -4   5  13   19.00    3.00
   3  -5 -13  654.93   25.10
   3   5 -13  579.54   18.70
  -3   5  13  576.64   21.10
   3   5 -13  564.14   18.50
   2  -5 -13   69.49    5.30
  -2   5  13   67.09    4.30
   2   5 -13   65.19    2.80
   2   5 -13   62.99    5.70
   1  -5 -13  502.05   18.50
   1   5 -13  480.85   18.30
  -1   5  13  481.45   16.90
   0  -5 -13  184.28    9.10
   0   5  13  184.08    7.70
   0   5 -13  171.68    8.70
   1   5  13  463.75   16.40
  -1   5 -13  476.25   18.00
   2  -5  13   26.80    1.40
   2   5  13   28.60    4.30
  -2   5 -13   28.50    5.60
  -2   5 -13   25.00    1.40
   3  -5  13  180.58    6.40
  -3  -5 -13  174.38    9.80
   3   5  13  192.88    8.20
  -3   5 -13  177.48    6.40
   4  -5  13  297.47   10.00
  -4  -5 -13  271.27   12.10
  -4   5 -13  268.27    9.80
   4   5  13  286.77   11.50
   5  -5  13   24.60    2.70
  -5  -5 -13   21.20    3.30
   5   5  13   16.60    3.00
   6  -5  13  139.49    6.50
  -6  -5 -13  138.89    7.10
   6   5  13  134.19    7.50
  -7  -5 -13   37.30    4.40
   7  -5  13   31.30    3.70
   7   5  13   33.60    4.70
  -7   5 -13   35.20    4.60
   8  -5  13  242.68   10.40
  -8   5 -13  231.48    9.50
   9  -5  13    8.70    2.60
  -9  -5 -13   11.00    2.30
   9   5  13    2.30    2.60
  -9   5 -13   10.50    2.00
  11  -6 -13    3.60    3.10
  11  -6 -13    2.50    2.40
  11   6 -13    8.50    2.40
  11   6 -13    7.20    3.50
  10  -6 -13   -0.40    2.00
  10  -6 -13   -0.60    2.70
  10   6 -13    0.40    1.90
  10   6 -13    0.30    2.60
   9  -6 -13    2.70    2.70
   9  -6 -13    2.40    2.10
   9   6 -13    5.50    2.80
   9   6 -13    1.90    2.10
   8  -6 -13   -1.00    2.40
   8  -6 -13    1.60    2.00
   8   6 -13    1.20    2.40
   8   6 -13   -1.40    1.90
   7  -6 -13   44.80    4.20
   7  -6 -13   37.30    4.60
   7   6 -13   45.70    4.30
   7   6 -13   43.00    4.50
   6  -6 -13    1.10    1.80
   6  -6 -13    2.60    2.40
   6   6 -13    3.10    1.80
   6   6 -13    2.20    2.10
   5  -6 -13    8.20    2.60
   5   6 -13    9.30    2.60
  -5   6  13   15.20    3.00
   5   6 -13   12.30    2.10
   4  -6 -13   16.70    3.00
  -4   6  13   18.50    3.20
   4   6 -13   15.10    2.90
   4   6 -13   19.30    2.10
   4   6 -13   16.90    2.10
   3  -6 -13   16.60    2.90
   3   6 -13   16.30    1.70
   3   6 -13   16.50    1.70
   3   6 -13   13.40    2.80
  -3   6  13   15.80    2.70
   2  -6 -13  255.57   10.70
  -2   6  13  269.87   10.70
   2   6 -13  258.27    8.10
   2   6 -13  252.27   10.80
   2   6 -13  251.57    8.10
   1  -6 -13   29.00    3.50
   1   6 -13   25.90    3.50
   0  -6 -13  442.06   16.30
   0   6 -13  441.56   16.40
  -1  -6 -13   16.40    3.00
  -1   6 -13    8.00    2.20
   1   6  13   15.50    2.60
  -2  -6 -13  518.95   18.50
   2   6  13  501.45   18.00
  -2   6 -13  520.05   18.60
  -3  -6 -13    9.80    2.60
   3   6  13    8.30    2.40
  -3   6 -13    4.60    2.00
  -4  -6 -13   83.09    5.50
   4  -6  13   87.59    4.00
   4   6  13   85.69    5.50
  -4   6 -13   98.49    5.70
   5  -6  13   29.30    2.50
  -5  -6 -13   24.70    3.50
  -5   6 -13   35.30    4.00
   5   6  13   31.60    3.80
  -5   6 -13   25.00    2.30
   6  -6  13   67.79    4.10
  -6  -6 -13   68.19    5.00
  -6   6 -13   62.69    4.60
   6   6  13   64.39    5.20
  -6   6 -13   55.39    3.70
  -7  -6 -13   48.10    4.40
   7  -6  13   60.19    4.20
  -7   6 -13   55.99    4.20
   7   6  13   50.69    4.90
  -8  -6 -13    6.80    2.60
   8  -6  13    3.70    1.90
   8   6  13    8.50    3.20
   9  -6  13   19.00    3.50
  -9   6 -13   20.70    2.70
   9   6  13   24.20    4.30
  11  -7 -13    5.30    3.60
  11  -7 -13    2.70    2.30
  11   7 -13    1.10    2.00
  11   7 -13   -0.10    2.90
  10  -7 -13   73.69    6.80
  10  -7 -13   77.69    5.50
  10   7 -13   67.89    5.10
  10   7 -13   80.69    6.70
   9  -7 -13    3.40    3.20
   9  -7 -13    8.20    2.50
   9   7 -13    3.90    2.40
   9   7 -13    3.10    2.70
   8  -7 -13  103.59    6.30
   8  -7 -13  101.09    7.20
   8   7 -13   99.59    6.30
   8   7 -13  101.29    6.50
   7  -7 -13   42.20    5.40
   7  -7 -13   46.00    4.30
   7   7 -13   43.00    4.70
   7   7 -13   44.60    4.60
   6  -7 -13  176.08    8.50
   6   7 -13  176.08    8.60
   6   7 -13  176.08    7.80
  -6   7  13  163.98    8.80
   5  -7 -13   41.80    4.50
   5   7 -13   50.19    4.50
  -5   7  13   47.90    4.50
   5   7 -13   44.70    3.30
   4  -7 -13   53.39    4.40
   4   7 -13   52.79    4.60
   4   7 -13   46.20    2.90
   4   7 -13   47.50    3.00
  -4   7  13   51.79    4.30
   3  -7 -13  236.18   10.20
  -3   7  13  239.78   10.00
   3   7 -13  225.18    7.80
   3   7 -13  228.78    8.00
   3   7 -13  236.48   10.30
   2  -7 -13    5.40    2.00
  -2   7  13    0.60    1.80
   2   7 -13    1.70    1.70
   1  -7 -13  533.35   19.10
  -1   7  13  525.95   18.60
   1   7 -13  530.15   19.30
   0  -7 -13   92.19    5.80
   0   7 -13   95.69    5.80
   0   7  13   90.69    5.30
  -1  -7 -13  600.74   21.50
  -1   7 -13  605.84   21.60
   1   7  13  623.34   21.10
  -2  -7 -13   25.70    3.50
  -2   7 -13   22.40    3.40
   2   7  13   26.80    3.50
  -3  -7 -13  124.39    7.00
   3  -7  13  131.29    4.40
   3  -7  13  128.79    4.40
  -3   7 -13  138.99    7.10
   3   7  13  131.49    6.90
  -4  -7 -13  281.07   12.00
   4  -7  13  292.77    9.80
   4  -7  13  292.27    9.80
  -4   7 -13  295.97   12.00
   4   7  13  289.97   12.10
   5  -7  13  100.39    4.60
  -5  -7 -13  105.89    6.30
   5  -7  13   90.89    4.40
  -5   7 -13   89.89    5.70
   5   7  13   95.29    6.20
  -6  -7 -13   77.59    5.40
   6  -7  13   75.69    4.30
   6  -7  13   65.39    4.00
   6   7  13   72.19    5.70
  -6   7 -13   70.79    5.00
   7  -7  13   48.10    5.30
  -7  -7 -13   45.50    4.40
  -7   7 -13   48.10    4.10
   7   7  13   43.10    6.10
   8  -7  13   94.59    5.70
  -8  -7 -13   96.49    6.20
   8   7  13   93.29    7.00
  -8   7 -13   99.69    5.60
  -9  -7 -13    1.30    2.10
   9  -7  13    0.30    1.80
   9   7  13    3.30    2.70
  10  -8 -13    6.60    2.50
  10  -8 -13    3.70    3.00
  10   8 -13    5.40    2.50
  10   8 -13    8.10    3.30
   9  -8 -13    3.70    2.20
   9  -8 -13   -0.60    2.90
   9   8 -13    3.40    2.80
   9   8 -13    4.20    2.50
   8  -8 -13    4.10    2.70
   8  -8 -13    2.40    2.00
   8   8 -13    3.50    2.50
   8   8 -13    0.90    2.10
   7  -8 -13   71.69    5.40
   7  -8 -13   65.29    5.90
   7   8 -13   73.59    5.60
   7   8 -13   73.39    5.10
   6  -8 -13   20.40    3.30
   6   8 -13   17.40    3.10
   6   8 -13   15.10    2.60
  -6   8  13   17.20    3.60
   5  -8 -13   16.20    3.30
   5   8 -13   17.80    2.40
  -5   8  13   18.90    3.50
   5   8 -13   21.80    3.50
   4  -8 -13  104.99    6.40
   4   8 -13   89.29    4.30
   4   8 -13  100.29    6.30
  -4   8  13   98.19    6.00
   4   8 -13  103.49    4.50
   3  -8 -13    2.90    2.00
   3   8 -13    1.30    0.80
  -3   8  13    4.80    2.30
   3   8 -13   -1.60    1.50
   2  -8 -13   39.80    4.40
   2   8 -13   32.00    4.00
  -2   8  13   42.60    3.90
   1  -8 -13  156.18    8.10
   1   8 -13  176.28    8.40
  -1   8  13  153.78    7.60
   0  -8 -13  351.26   14.20
   0   8  13  369.46   13.90
   0   8 -13  362.26   14.40
  -1  -8 -13   11.10    2.70
  -1   8 -13    6.80    2.40
   1   8  13    8.90    2.40
  -2  -8 -13  289.17   12.00
   2   8  13  282.17   11.60
  -2   8 -13  280.17   11.90
  -3  -8 -13   -2.40    1.70
   3   8  13   -0.70    1.60
  -3   8 -13    1.00    1.80
   4  -8  13   32.60    2.00
  -4  -8 -13   45.80    4.90
   4  -8  13   34.90    2.10
  -4   8 -13   44.70    4.60
   4   8  13   44.50    4.30
  -5  -8 -13   14.10    3.20
   5  -8  13   21.80    2.20
   5  -8  13   20.40    2.20
  -5   8 -13   20.20    3.20
   5   8  13   16.10    3.20
   6  -8  13   19.90    2.40
   6  -8  13   18.80    2.50
  -6  -8 -13   24.10    3.90
  -6   8 -13   20.20    3.30
   6   8  13   16.20    3.40
   7  -8  13   26.60    4.00
  -7  -8 -13   27.60    4.00
  -7   8 -13   26.70    3.60
   7   8  13   28.40    4.40
   8  -8  13    5.60    2.30
  -8  -8 -13    3.40    2.50
  -8   8 -13    6.00    2.20
   8   8  13    7.20    3.30
  10  -9 -13    2.00    3.10
  10  -9 -13   -1.30    2.00
  10   9 -13   -0.50    2.40
  10   9 -13   -1.70    2.70
   9  -9 -13    2.80    2.20
   9  -9 -13    0.90    3.10
   9   9 -13    0.30    2.90
   9   9 -13    0.00    2.30
   8  -9 -13   -0.20    3.20
   8  -9 -13    5.00    2.70
   8   9 -13    7.70    2.80
   8   9 -13    4.00    2.30
   7  -9 -13    3.00    2.80
   7  -9 -13    7.30    2.70
   7   9 -13    2.60    2.50
   7   9 -13    8.10    2.60
   6  -9 -13   50.79    4.80
   6   9 -13   48.20    5.20
   6   9 -13   46.00    3.80
  -6   9  13   46.70    5.40
   5  -9 -13   28.30    4.10
  -5   9  13   29.20    4.40
   5   9 -13   23.20    3.60
   5   9 -13   25.00    2.80
   4  -9 -13    5.20    2.50
   4   9 -13    2.30    1.20
   4   9 -13    1.50    2.20
  -4   9  13    4.30    2.40
   3  -9 -13    9.30    2.80
   3   9 -13    7.80    1.40
  -3   9  13    6.80    2.50
   3   9 -13   10.80    2.90
   3   9 -13    4.40    1.20
   2  -9 -13   74.49    5.50
   2   9 -13   71.09    5.40
  -2   9  13   70.49    5.00
   1  -9 -13    3.40    2.20
  -1   9  13    3.40    1.70
   1   9 -13    1.80    1.90
   0  -9 -13    3.00    2.30
   0   9 -13    4.30    2.30
   0   9  13    0.90    1.80
  -1  -9 -13   18.80    3.40
   1   9  13   17.20    3.10
  -1   9 -13   18.70    3.20
  -2  -9 -13   21.70    3.60
  -2   9 -13   18.30    3.30
   2   9  13   23.20    3.70
  -3  -9 -13   11.60    3.10
  -3   9 -13   10.50    2.80
   3   9  13   15.20    3.20
   4  -9  13    8.20    1.50
   4  -9  13    9.00    1.10
  -4  -9 -13    6.90    2.60
   4   9  13    4.00    2.30
  -4   9 -13   11.20    2.80
  -5  -9 -13   71.59    5.60
   5  -9  13   64.89    3.30
   5  -9  13   58.99    3.20
   5   9  13   60.69    5.40
  -5   9 -13   70.29    5.10
   6  -9  13   -1.60    1.10
  -6  -9 -13   -2.00    1.90
  -6   9 -13    0.70    1.80
  -7  -9 -13    3.60    2.60
   7  -9  13    2.40    1.60
   7   9  13    0.60    2.20
  -7   9 -13    1.30    2.00
   8  -9  13    5.60    2.10
  -8  -9 -13    4.20    2.50
   8   9  13    1.00    2.70
  -8   9 -13    4.80    2.30
  10 -10 -13   -1.10    2.00
  10 -10 -13    1.60    3.40
  10  10 -13   -0.30    2.30
  10  10 -13    2.50    5.20
   9 -10 -13   18.80    4.50
   9 -10 -13   19.70    3.80
   9  10 -13    7.50    3.00
   9  10 -13   10.90    3.30
   8 -10 -13   18.40    4.50
   8 -10 -13   12.80    3.10
   8  10 -13   20.40    3.60
   8  10 -13   18.70    3.60
   7 -10 -13   31.90    5.10
   7 -10 -13   32.70    4.60
   7  10 -13   39.50    4.30
   7  10 -13   35.40    4.60
   6 -10 -13   48.00    5.20
   6  10 -13   45.00    5.20
  -6  10  13   48.90    5.90
   6  10 -13   47.50    3.90
   5 -10 -13   60.59    5.30
   5  10 -13   61.79    5.50
   5  10 -13   56.99    3.70
  -5  10  13   65.39    5.50
   4 -10 -13   88.49    6.30
  -4  10  13   84.09    6.10
   4  10 -13   94.19    4.20
   4  10 -13  101.69    6.60
   3 -10 -13    6.30    2.50
  -3  10  13    8.80    2.90
   3  10 -13    7.70    2.90
   3  10 -13    7.30    1.10
   2 -10 -13   21.70    3.60
  -2  10  13   21.90    3.40
   2  10 -13   25.30    4.00
   1 -10 -13    0.50    2.10
   1  10 -13   -0.70    1.80
  -1  10  13    0.40    1.70
   0 -10 -13   39.90    4.80
   0  10  13   34.50    4.10
   0  10 -13   43.10    5.00
  -1 -10 -13    8.10    3.00
   1  10  13    5.80    2.30
  -1  10 -13    8.80    2.80
  -2 -10 -13  110.59    7.00
   2  10  13  108.29    6.60
  -2  10 -13  112.09    6.90
  -3 -10 -13    1.30    2.30
  -3  10 -13    3.40    2.40
   3  10  13    2.80    2.10
  -4 -10 -13   24.30    4.00
  -4  10 -13   18.90    3.40
   4  10  13   22.50    3.70
   5 -10  13    5.80    1.30
   5 -10  13    4.90    1.10
  -5 -10 -13    3.50    2.50
  -5  10 -13    6.90    2.50
   5  10  13    1.90    2.20
   6 -10  13   -0.60    1.50
   6 -10  13    1.70    1.30
  -6 -10 -13   -2.90    2.00
   6  10  13    2.70    2.70
  -6  10 -13    0.40    1.90
  -7 -10 -13   58.59    5.50
   7 -10  13   52.79    3.90
   7  10  13   52.69    6.10
  -7  10 -13   60.99    5.00
   8 -10  13    3.90    2.10
  -8 -10 -13    4.10    2.80
   8  10  13   -0.20    2.60
  -8  10 -13    2.70    2.30
   9 -11 -13    0.60    2.30
   9 -11 -13   -1.10    3.20
   9  11 -13    1.70    2.50
   9  11 -13    1.90    2.50
   8 -11 -13    1.80    2.30
   8 -11 -13    6.00    3.40
   8  11 -13    0.40    2.10
   8  11 -13    0.90    2.70
   7 -11 -13   33.20    4.80
   7 -11 -13   29.00    4.50
   7  11 -13   27.90    3.80
   7  11 -13   25.80    4.30
   6 -11 -13   48.40    5.40
   6  11 -13   49.60    5.40
  -6  11  13   42.30    5.80
   6  11 -13   40.60    3.80
  -5 -11  13    7.90    2.40
   5 -11 -13   13.60    3.50
  -5  11  13   14.20    3.70
   5  11 -13   11.00    3.30
   5  11 -13    9.20    2.00
   4 -11 -13    8.10    2.90
  -4 -11  13    4.30    1.50
   4  11 -13    4.20    2.60
  -4  11  13    5.00    2.60
   4  11 -13    7.70    1.50
   3 -11 -13   20.40    3.80
  -3  11  13   22.90    4.00
   3  11 -13   14.50    3.50
   3  11 -13   15.10    1.40
   2 -11 -13   18.70    3.70
  -2  11  13   16.00    3.20
   2  11 -13   18.00    3.60
   1 -11 -13    3.00    2.50
   1  11 -13    1.10    2.30
  -1  11  13    4.10    2.20
   0 -11 -13   79.79    6.10
   0  11 -13   85.69    6.30
   0  11  13   78.99    5.70
  -1 -11 -13   25.50    4.20
  -1  11 -13   42.20    5.00
   1  11  13   34.80    4.30
  -2 -11 -13   -2.40    2.00
   2  11  13    0.70    2.20
  -2  11 -13   -1.60    1.90
  -3 -11 -13   15.20    3.50
   3  11  13   13.00    3.30
  -3  11 -13    8.00    2.70
  -4 -11 -13   20.30    3.90
   4  11  13   15.80    3.50
  -4  11 -13   17.70    3.60
  -5 -11 -13   -0.10    2.30
   5 -11  13    0.60    0.80
   5  11  13    3.50    2.50
  -5  11 -13    3.30    2.30
  -6 -11 -13   -0.30    2.50
   6 -11  13    0.20    1.20
  -6  11 -13    2.60    2.40
   6  11  13   -0.80    2.40
  -7 -11 -13   -1.00    2.30
   7 -11  13   -0.70    1.30
  -7  11 -13   -0.40    2.00
   7  11  13   -2.10    2.50
   9 -12 -13    1.90    2.50
   9 -12 -13    2.70    3.30
   9  12 -13    0.70    2.70
   9  12 -13    3.60    3.50
   8 -12 -13    8.20    3.50
   8 -12 -13    6.80    2.80
   8  12 -13    3.00    2.60
   8  12 -13    4.30    3.00
   7 -12 -13   38.80    5.00
   7 -12 -13   35.70    5.20
   7  12 -13   39.20    4.30
   7  12 -13   27.70    4.50
   6 -12 -13   42.00    5.30
  -6  12  13   42.30    5.90
   6  12 -13   34.80    5.00
   6  12 -13   28.80    3.40
   5 -12 -13   19.10    4.00
  -5 -12  13    8.90    2.00
   5  12 -13    7.70    3.10
   5  12 -13   10.60    2.10
  -5  12  13   17.90    3.70
   4 -12 -13    2.40    3.00
  -4 -12  13    2.80    1.50
  -4  12  13    2.80    2.50
   4  12 -13    1.60    1.30
   4  12 -13    0.40    2.40
   3 -12 -13    1.20    2.40
  -3  12  13   -0.50    2.10
   3  12 -13   -0.50    0.70
   3  12 -13    4.40    2.60
   2 -12 -13    8.60    3.00
   2  12 -13   12.00    3.50
  -2  12  13    9.40    2.90
   1 -12 -13    3.60    2.60
  -1  12  13    5.80    2.50
   1  12 -13    3.80    2.60
   0 -12 -13    0.20    2.50
   0  12 -13    6.80    2.90
   0  12  13    4.90    2.30
  -1 -12 -13   -2.90    2.00
  -1  12 -13    0.60    2.20
   1  12  13   -1.50    1.90
  -2 -12 -13    3.10    2.70
  -2  12 -13   -1.00    2.10
   2  12  13    1.90    2.20
  -3 -12 -13   52.29    5.90
   3  12  13   38.40    5.00
  -3  12 -13   58.69    5.40
  -4 -12 -13   15.40    3.70
  -4  12 -13   20.10    3.80
   4  12  13   20.20    4.00
  -5 -12 -13    4.40    2.90
  -5  12 -13    3.80    2.70
   5  12  13    4.30    2.80
   6 -12  13    0.00    1.10
  -6 -12 -13    0.60    2.60
  -6  12 -13   -1.70    2.00
   6  12  13   -0.10    2.50
  -7 -12 -13   -2.70    2.50
   7 -12  13    2.80    1.60
  -7  12 -13   -0.20    2.10
   7  12  13    1.30    2.90
   8 -13 -13   12.50    4.00
   8 -13 -13   18.20    4.80
   8  13 -13   15.50    3.50
   8  13 -13   17.00    4.20
   7 -13 -13   -3.60    2.80
   7  13 -13    0.30    2.90
   7  13 -13    1.00    2.30
   6 -13 -13    3.90    3.10
   6  13 -13    4.50    2.50
   6  13 -13    1.10    4.70
  -6  13  13    2.40    3.20
   5 -13 -13    7.10    3.20
  -5 -13  13    4.90    1.90
   5  13 -13    5.50    3.20
   5  13 -13    2.30    1.60
  -5  13  13    6.10    2.90
  -4 -13  13   -0.60    1.20
   4 -13 -13   -1.10    2.50
   4  13 -13    1.00    1.20
   4  13 -13    3.90    2.90
  -4  13  13    2.70    3.00
   3 -13 -13    9.70    3.30
   3  13 -13   15.70    4.10
  -3  13  13   13.40    3.40
   2 -13 -13   -1.90    2.30
   2  13 -13    3.30    2.80
  -2  13  13    1.50    2.50
   1 -13 -13    3.90    2.90
  -1  13  13    9.10    3.10
   1  13 -13    7.40    3.00
   0 -13 -13   -0.30    2.50
   0  13 -13    3.60    2.80
   0  13  13    8.10    3.30
  -1 -13 -13    8.60    3.50
  -1  13 -13    7.10    3.20
   1  13  13   10.80    3.40
  -2 -13 -13   12.50    3.90
   2  13  13   20.20    4.80
  -2  13 -13   13.20    3.50
  -3 -13 -13    4.10    3.10
   3  13  13   -1.10    2.20
  -3  13 -13    4.30    2.70
  -4 -13 -13    5.60    3.40
   4  13  13    4.10    3.20
  -4  13 -13    2.90    2.80
  -5  13 -13    0.10    2.40
   5  13  13    0.80    2.50
  -6 -13 -13    1.00    2.80
   6  13  13    1.00    2.80
   7 -14 -13   51.49    6.20
   7 -14 -13   49.00    6.40
   7  14 -13   46.20    5.80
   7  14 -13   57.39    4.70
   6 -14 -13    5.70    3.20
   6  14 -13    1.90    3.10
  -6  14  13    2.10    3.30
   5 -14 -13   14.00    3.80
   5  14 -13    7.20    3.40
   5  14 -13    6.90    1.90
  -5  14  13    5.10    3.50
   4 -14 -13   14.20    3.70
  -4 -14  13   10.10    2.30
   4  14 -13   13.70    1.80
  -4  14  13   15.30    4.00
   4  14 -13   13.70    3.90
   3 -14 -13   -0.70    2.60
   3  14 -13    1.60    2.90
  -3  14  13    2.10    2.70
   2 -14 -13   87.19   11.00
   2  14 -13  118.99    9.60
   1 -14 -13    0.20    4.50
   1  14 -13    0.60    5.10
   0 -14 -13   56.09    7.70
   0  14 -13   66.49   10.20
   0  14  13   72.49    9.70
  -1 -14 -13    1.70    2.70
  -1  14 -13    2.90    3.10
   1  14  13    1.80    2.80
  -2 -14 -13   93.69    7.50
   2  14  13  121.69    7.70
  -3 -14 -13   25.00    4.40
   3  14  13   34.30    5.10
  -3  14 -13   25.20    4.50
  -4 -14 -13   28.00    5.10
   4  14  13   35.10    5.50
  -4  14 -13   37.30    5.20
  -5 -14 -13   47.30    6.40
   5  14  13   50.09    6.30
  -5  14 -13   42.70    5.50
   6 -15 -13   -0.40    2.90
   6  15 -13    0.20    1.70
   6  15 -13    2.60    3.20
  -6  15  13    1.30    3.40
   5 -15 -13   17.90    4.30
   5  15 -13   15.80    4.10
   5  15 -13   10.30    2.10
  -5  15  13   12.70    3.90
   4 -15 -13   -0.80    2.50
   4  15 -13   -0.10    1.10
   4  15 -13   -0.40    2.90
  -4  15  13   -4.20    2.60
   3 -15 -13   11.20    3.90
  -3  15  13    8.70    3.80
   3  15 -13    7.70    3.50
   2 -15 -13    1.80    3.10
   2  15 -13    5.40    3.40
  -2  15  13    2.70    2.80
   1 -15 -13   15.30    4.10
   1  15 -13    5.80    3.50
  -1  15  13   16.30    4.20
   0 -15 -13    9.60    3.60
   0  15 -13   10.00    3.50
   0  15  13    1.70    2.70
  -1 -15 -13    8.60    3.50
   1  15  13    9.30    3.60
  -1  15 -13    0.70    2.70
  -2 -15 -13    0.70    2.90
   2  15  13    1.20    2.60
  -2  15 -13    0.10    2.60
  -3 -15 -13    2.80    3.10
  -3  15 -13   12.70    3.80
   3  15  13    2.50    3.00
  -4 -15 -13    1.50    3.20
  -4  15 -13   -1.80    2.40
   4  15  13    0.90    3.10
   5 -16 -13   26.20    4.90
   5  16 -13   18.80    2.50
  -5  16  13   23.00    4.90
   5  16 -13   30.50    5.40
   4 -16 -13    3.60    3.30
   4  16 -13    0.90    2.90
   4  16 -13    1.80    1.30
  -4  16  13    0.90    3.40
   3 -16 -13   -0.10    2.70
   3  16 -13   -1.00    3.00
  -3  16  13   -1.90    2.70
   2 -16 -13   17.70    4.40
   2  16 -13   15.00    4.30
  -2  16  13   18.80    4.20
   1 -16 -13    0.80    2.80
   1  16 -13    6.00    3.40
  -1  16  13   -0.20    2.90
   0 -16 -13   42.20    5.90
   0  16  13   57.89    6.70
   0  16 -13   49.99    6.10
  -1 -16 -13   -0.60    3.30
  -1  16 -13    0.10    2.90
   1  16  13   -0.70    2.60
  -2 -16 -13   52.69    6.70
  -2  16 -13   50.79    6.30
   2  16  13   67.39    6.50
  -3 -16 -13    8.60    4.00
  -3  16 -13    3.40    3.20
   3  16  13    3.90    3.20
   3 -17 -13   36.10    5.80
   2 -17 -13    3.30    3.50
  -2  17  13    0.20    3.10
   2  17 -13   -0.20    3.10
   1 -17 -13   90.39    8.00
  -1  17  13  100.29    8.00
   1  17 -13  102.49    8.40
   0 -17 -13   -1.50    2.90
   0  17  13    0.10    3.00
   0  17 -13   -1.80    3.00
  -1 -17 -13   19.30    4.60
  12   0 -14   44.90    6.20
  11   0 -14    6.80    2.20
  11   0 -14    9.90    3.70
  10   0 -14    0.30    3.00
  10   0 -14    1.70    1.90
   9   0 -14   87.89    6.50
   9   0 -14   82.89    5.30
   8   0 -14   56.29    5.20
   8   0 -14   58.19    4.60
   7   0 -14   45.00    4.60
   7   0 -14   46.20    4.40
   6   0 -14   40.90    4.00
   6   0 -14   37.00    4.00
   5   0 -14  546.85   19.70
   5   0 -14  570.34   19.30
   4   0 -14  107.39    5.30
   4   0 -14   96.89    4.90
   4   0 -14   99.69    5.80
  -3   0  14   45.10    3.30
   3   0 -14   55.39    4.20
   3   0 -14   46.00    3.10
   2   0 -14  163.58    7.90
  -2   0  14  179.68    6.90
   2   0 -14  168.48    6.70
   1   0 -14    5.70    1.40
   1   0 -14    6.40    2.00
  -1   0  14    5.80    1.40
   0   0 -14  203.68    8.70
   0   0 -14  178.88    7.20
   0   0  14  189.48    7.20
  -1   0 -14    2.90    1.10
   1   0  14    2.90    1.20
  -1   0 -14    1.80    1.60
  -2   0 -14  106.29    6.00
   2   0  14  112.99    5.00
  -2   0 -14  112.99    5.20
   3   0  14  234.48    9.00
  -3   0 -14  237.28    9.90
  -3   0 -14  225.68    9.00
  -4   0 -14   15.60    2.70
   4   0  14   20.50    2.80
  -4   0 -14   19.70    3.10
  -5   0 -14   11.10    2.40
   5   0  14    7.80    2.20
   6   0  14  145.39    7.30
  -6   0 -14  155.48    7.30
  -7   0 -14   15.00    2.60
   7   0  14   15.70    3.10
  -8   0 -14   35.00    3.60
   8   0  14   35.00    4.50
   9   0  14   59.19    5.50
  -9   0 -14   64.29    4.00
  12  -1 -14   15.90    4.60
  12   1 -14   20.90    5.00
  11  -1 -14   34.40    5.60
  11  -1 -14   34.90    3.40
  11   1 -14   30.10    3.40
  11   1 -14   37.00    5.60
  10  -1 -14   45.60    4.00
  10  -1 -14   55.19    6.40
  10   1 -14   51.89    4.10
  10   1 -14   61.89    6.00
   9  -1 -14   22.90    3.30
   9  -1 -14   28.90    4.60
   9   1 -14   30.30    4.60
   9   1 -14   28.60    3.60
   8  -1 -14   67.69    4.90
   8  -1 -14   80.29    5.90
   8   1 -14   63.89    4.80
   8   1 -14   68.79    5.50
   7  -1 -14   18.50    3.30
   7  -1 -14   16.40    3.10
   7   1 -14   20.80    3.40
   7   1 -14   21.10    3.30
   6  -1 -14  465.85   17.00
   6  -1 -14  465.75   17.00
   6   1 -14  469.15   17.00
   5  -1 -14   75.29    4.80
   5  -1 -14   84.39    5.40
   5   1 -14   74.69    5.20
   5   1 -14   83.59    4.80
   5   1 -14   72.69    4.30
   4  -1 -14  762.82   24.20
   4  -1 -14  751.42   24.90
   4  -1 -14  715.03   23.90
   4   1 -14  700.73   23.60
   4   1 -14  737.43   23.90
   4   1 -14  713.93   24.80
   3  -1 -14   38.80    3.70
   3  -1 -14   33.00    2.70
   3   1 -14   41.00    3.80
   3   1 -14   36.80    2.60
   3   1 -14   37.60    2.80
  -3   1  14   36.80    3.00
  -2  -1  14  448.06   14.80
   2  -1 -14  437.86   15.10
   2  -1 -14  439.26   16.20
   2   1 -14  451.65   16.30
   2   1 -14  440.46   14.60
  -2   1  14  433.36   15.10
   1  -1 -14  268.27   11.00
   1  -1 -14  261.57    9.80
  -1  -1  14  271.47    9.50
  -1   1  14  261.87    9.80
   1   1 -14  281.37    9.50
   1   1 -14  277.47   11.10
   0  -1  14  175.28    6.50
   0  -1 -14  172.68    8.00
   0  -1 -14  171.48    6.90
   0   1  14  172.28    6.80
   0   1 -14  168.28    6.50
   0   1 -14  179.98    8.10
  -1  -1 -14  152.78    6.50
   1  -1  14  154.18    5.90
  -1  -1 -14  155.28    7.40
  -1   1 -14  151.78    6.10
   1   1  14  153.28    6.30
  -1   1 -14  156.98    7.50
  -2  -1 -14   97.09    4.90
  -2  -1 -14   94.89    5.60
   2  -1  14  101.89    4.50
   2   1  14  102.79    4.90
  -2   1 -14   95.19    5.60
  -2   1 -14   99.79    4.60
  -3  -1 -14  418.06   15.50
  -3  -1 -14  402.96   14.80
   3  -1  14  431.46   14.40
  -3   1 -14  407.26   14.50
  -3   1 -14  430.46   15.60
   3   1  14  423.46   14.70
   4  -1  14    8.40    1.90
  -4  -1 -14    8.00    2.30
  -4   1 -14    6.80    2.10
  -4   1 -14    8.80    1.90
   4   1  14    3.80    1.70
  -5  -1 -14   25.10    3.50
   5  -1  14   19.90    2.70
   5   1  14   18.00    2.90
  -5   1 -14   19.00    2.90
   6  -1  14   56.59    4.10
  -6  -1 -14   47.70    3.90
   6   1  14   49.20    4.10
  -6   1 -14   46.80    3.90
  -7  -1 -14  218.98    9.40
   7  -1  14  227.08   10.00
   7   1  14  224.88   10.20
  -7   1 -14  226.18    9.40
  -8  -1 -14  132.89    6.50
   8  -1  14  129.39    7.30
  -8   1 -14  130.19    6.30
   8   1  14  132.09    7.60
  -9  -1 -14   50.49    3.70
   9  -1  14   56.49    5.10
  -9   1 -14   53.49    3.60
   9   1  14   52.39    7.10
  11  -2 -14   14.80    4.20
  11  -2 -14   11.80    2.40
  11   2 -14   13.60    2.60
  11   2 -14   17.20    4.10
  10  -2 -14   -1.10    1.80
  10   2 -14    4.00    3.20
  10   2 -14    5.10    2.20
   9  -2 -14   86.89    6.80
   9  -2 -14   86.19    5.90
   9   2 -14  113.19    7.20
   8  -2 -14   16.00    3.40
   8  -2 -14   20.20    3.60
   8   2 -14   23.80    3.80
   7  -2 -14  352.36   13.80
   7  -2 -14  311.77   14.00
   7   2 -14  344.47   13.40
   6  -2 -14   -1.00    1.70
   6  -2 -14    0.70    1.90
   6   2 -14    1.10    1.80
   6   2 -14    1.70    2.20
   5  -2 -14  530.65   18.30
   5   2 -14  502.25   18.20
   5   2 -14  486.05   17.10
   5   2 -14  497.35   17.40
   4  -2 -14    4.10    2.00
   4   2 -14    1.80    1.90
   4   2 -14    4.40    1.50
   4   2 -14    3.90    1.30
  -4   2  14    2.60    1.70
   3  -2 -14  193.58    8.00
   3  -2 -14  194.78    8.80
  -3   2  14  190.58    8.10
   3   2 -14  201.78    7.50
   3   2 -14  211.08    9.10
   3   2 -14  205.88    7.70
   2  -2 -14  126.59    6.70
   2  -2 -14  122.49    5.70
   2   2 -14  131.69    6.70
   2   2 -14  131.49    5.20
  -2   2  14  131.49    5.90
   1  -2 -14  388.46   13.80
   1  -2 -14  392.06   14.80
  -1  -2  14  397.26   13.00
  -1   2  14  392.46   13.70
   1   2 -14  397.66   13.00
   1   2 -14  401.26   14.90
   0  -2 -14  116.89    6.20
   0  -2  14  118.19    4.60
   0  -2 -14  108.59    5.30
   0   2 -14  126.09    6.40
   0   2 -14  113.59    4.60
   0   2  14  113.69    5.20
   1  -2  14    4.60    1.10
  -1  -2 -14    3.70    1.40
  -1  -2 -14    6.10    2.00
   1   2  14    3.90    1.40
  -1   2 -14    5.00    1.20
  -1   2 -14    3.70    1.80
   2  -2  14  162.38    6.00
  -2  -2 -14  153.98    7.50
  -2  -2 -14  152.48    6.80
  -2   2 -14  150.28    7.40
  -2   2 -14  141.69    6.00
   2   2  14  162.08    6.80
   3  -2  14   11.30    1.80
  -3  -2 -14   10.40    2.60
   3   2  14   10.50    2.10
  -3   2 -14    6.90    2.30
  -3   2 -14    9.10    1.70
  -4  -2 -14   54.59    4.20
   4  -2  14   50.39    3.30
  -4   2 -14   49.30    4.00
  -4   2 -14   47.80    3.20
   4   2  14   42.60    4.00
   5  -2  14   45.60    3.40
  -5  -2 -14   45.50    4.00
  -5   2 -14   44.60    3.80
   5   2  14   47.60    3.90
   6  -2  14   63.89    4.40
  -6  -2 -14   67.99    4.70
  -6   2 -14   70.59    4.60
   6   2  14   66.09    4.80
   7  -2  14  107.79    6.10
  -7  -2 -14   97.39    5.70
  -7   2 -14  112.79    5.80
   7   2  14  104.59    6.40
  -8  -2 -14   86.89    5.20
   8  -2  14   84.39    5.70
  -8   2 -14   88.49    5.10
   8   2  14   90.09    6.20
  -9  -2 -14   28.20    3.10
   9  -2  14   32.60    4.40
   9   2  14   27.10    4.50
  -9   2 -14   26.20    2.90
  11  -3 -14   -0.90    2.60
  11  -3 -14    0.30    1.70
  11   3 -14   -2.30    1.60
  11   3 -14   -0.40    2.70
  10  -3 -14   12.20    2.80
  10  -3 -14   16.10    4.20
  10   3 -14   24.10    4.60
   9  -3 -14    2.30    2.60
   9   3 -14   -0.70    1.80
   9   3 -14   -0.70    2.40
   8  -3 -14   50.39    4.90
   8  -3 -14   43.20    5.10
   8   3 -14   50.99    5.40
   8   3 -14   44.10    4.30
   7  -3 -14   32.00    4.50
   7  -3 -14   41.40    4.80
   7   3 -14   30.90    3.90
   7   3 -14   36.10    4.40
   6  -3 -14  166.38    8.20
   6   3 -14  173.08    9.00
   6   3 -14  170.28    7.80
   5  -3 -14   29.90    3.60
   5   3 -14   28.10    3.20
   5   3 -14   27.00    2.90
   4  -3 -14  273.87   12.20
   4   3 -14  285.57   10.40
   4   3 -14  287.07   10.20
  -4   3  14  281.47   11.20
   4   3 -14  285.27   15.00
   3  -3 -14    0.80    1.80
   3   3 -14    0.40    1.00
  -3   3  14    0.60    1.40
   3   3 -14    3.50    2.10
   3   3 -14    2.90    1.10
   2  -3 -14  201.78    9.00
   2  -3 -14  196.38    8.10
  -2   3  14  200.68    8.30
   2   3 -14  205.78    9.20
   2   3 -14  211.28    7.30
   2   3 -14  210.98    7.40
   1  -3 -14    5.40    1.60
   1  -3 -14    6.50    2.30
   1   3 -14    3.90    1.90
   1   3 -14    2.70    0.90
  -1   3  14    4.60    1.50
   0  -3  14    3.30    1.00
   0  -3 -14    4.10    1.40
   0  -3 -14    2.40    1.70
   0   3 -14    3.20    1.80
   0   3 -14    3.80    0.90
   0   3  14    5.30    1.60
  -1  -3 -14   29.20    2.70
   1  -3  14   34.80    2.00
  -1  -3 -14   34.20    3.90
  -1   3 -14   41.40    3.70
  -1   3 -14   34.30    2.00
   1   3  14   35.20    2.90
   2  -3  14   94.19    3.90
  -2  -3 -14   88.49    6.10
  -2   3 -14   99.09    5.70
  -2   3 -14   94.89    4.10
   2   3  14   91.09    5.00
   3  -3  14    1.40    1.00
   3   3  14    3.80    2.00
  -3   3 -14   -0.10    1.50
  -3   3 -14    1.70    1.00
   4  -3  14   42.50    2.90
   4   3  14   37.40    3.50
  -4   3 -14   33.10    2.70
   5  -3  14    6.90    1.80
   5   3  14    5.30    2.00
  -5   3 -14    6.60    1.70
  -6  -3 -14   11.20    3.30
   6   3  14   17.30    3.30
   7  -3  14   13.90    2.80
   7   3  14   14.30    3.10
  -7   3 -14   18.70    3.00
  -8  -3 -14    3.70    1.80
   8  -3  14    6.80    2.40
  -8   3 -14    3.30    1.90
   8   3  14    6.30    2.50
  -9  -3 -14   13.00    2.40
   9  -3  14   12.80    3.00
  -9   3 -14   14.70    2.30
   9   3  14   12.10    3.20
  11  -4 -14   55.39    4.30
  11  -4 -14   55.19    6.80
  11   4 -14   59.19    6.90
  10  -4 -14   22.80    4.40
  10  -4 -14   20.90    3.60
  10   4 -14   11.40    2.70
  10   4 -14   23.70    4.20
   9  -4 -14   34.70    5.20
   9  -4 -14   35.90    4.00
   9   4 -14   27.20    3.60
   9   4 -14   42.00    5.30
   8  -4 -14    8.20    2.90
   8  -4 -14   11.20    2.70
   8   4 -14    7.00    2.80
   8   4 -14    7.10    2.50
   7  -4 -14  291.47   12.60
   7  -4 -14  294.77   12.10
   7   4 -14  293.97   12.10
   7   4 -14  308.87   12.30
   6  -4 -14   60.59    4.90
   6  -4 -14   62.39    4.80
   6   4 -14   61.59    4.90
   6   4 -14   58.79    4.40
   5  -4 -14  134.19    7.00
   5   4 -14  143.39    6.30
   5   4 -14  138.49    7.20
   5   4 -14  118.49    5.80
  -5   4  14  126.79    6.90
   4  -4 -14    6.00    2.10
   4   4 -14    3.10    1.20
   4   4 -14    5.40    1.60
   4   4 -14    4.80    2.00
  -4   4  14    4.10    2.00
   3  -4 -14  584.14   22.30
   3   4 -14  635.34   19.80
  -3   4  14  619.14   21.00
   3   4 -14  625.44   22.00
   3   4 -14  606.74   19.50
   2  -4 -14   75.49    6.20
  -2   4  14   81.59    4.60
   2   4 -14   73.99    5.60
   2   4 -14   77.69    3.40
   2   4 -14   75.19    3.20
   1  -4 -14  171.78   11.30
   1   4 -14  179.78    6.10
   1   4 -14  177.48    6.00
  -1   4  14  176.48    7.50
   0  -4 -14   51.59    5.80
   0   4  14   49.90    3.60
   0   4 -14   53.39    2.20
   0   4 -14   61.99    8.00
   1  -4  14   30.60    1.60
  -1  -4 -14   35.00    4.60
  -1   4 -14   33.60    4.50
   1   4  14   29.80    2.90
  -1   4 -14   29.70    1.60
   2  -4  14  285.47    9.20
  -2  -4 -14  273.97   11.50
  -2   4 -14  286.57   12.40
   2   4  14  270.97   11.30
   3  -4  14    6.80    1.30
  -3  -4 -14    5.20    2.20
  -3   4 -14    5.60    2.20
   3   4  14    4.60    1.80
  -3   4 -14    4.60    1.20
  -4  -4 -14  323.37   12.80
   4  -4  14  326.47   11.30
  -4   4 -14  305.17   11.30
  -4   4 -14  331.37   12.80
   4   4  14  335.37   12.80
   5  -4  14    4.00    1.50
  -5  -4 -14    4.60    2.10
  -5   4 -14    4.60    2.00
   5   4  14    0.60    1.50
  -5   4 -14    6.00    1.60
  -6  -4 -14   55.39    4.50
   6  -4  14   47.30    3.70
  -6   4 -14   49.40    4.00
   6   4  14   49.60    4.40
  -7  -4 -14   37.80    4.20
   7  -4  14   38.10    4.10
  -7   4 -14   43.40    4.90
   7   4  14   38.20    4.80
   8  -4  14   30.00    4.10
  -8  -4 -14   28.00    4.50
  -8   4 -14   30.60    3.80
  -9  -4 -14   47.60    3.80
   9  -4  14   48.40    5.20
   9   4  14   42.70    5.60
  -9   4 -14   44.50    3.40
  11  -5 -14    0.50    2.80
  11   5 -14    3.30    2.90
  11   5 -14    3.00    2.00
  10  -5 -14    4.20    2.20
  10  -5 -14    1.30    2.60
  10   5 -14    6.90    3.20
  10   5 -14    4.60    2.20
   9  -5 -14    1.50    2.10
   9  -5 -14    2.00    2.70
   9   5 -14    3.80    2.70
   9   5 -14    5.00    2.30
   8  -5 -14   31.40    4.00
   8  -5 -14   37.70    5.10
   8   5 -14   31.00    4.20
   8   5 -14   24.40    3.90
   7  -5 -14   53.79    4.60
   7  -5 -14   43.10    5.30
   7   5 -14   50.79    4.50
   7   5 -14   41.80    4.70
   6  -5 -14    6.50    2.40
   6  -5 -14    5.70    2.20
   6   5 -14   14.50    2.60
   6   5 -14   11.70    2.80
   5  -5 -14    0.80    2.00
   5   5 -14    1.50    1.30
   5   5 -14    1.80    1.50
  -5   5  14    2.30    2.00
   5   5 -14    2.10    2.00
   4  -5 -14    8.50    2.30
   4   5 -14    9.00    1.60
   4   5 -14    7.60    2.40
   4   5 -14   10.90    1.90
  -4   5  14    5.40    2.00
   3  -5 -14   41.20    4.00
   3   5 -14   34.50    2.30
   3   5 -14   42.40    4.10
  -3   5  14   41.90    3.70
   3   5 -14   39.10    2.50
   2  -5 -14   -0.70    1.50
  -2   5  14    1.30    2.50
   2   5 -14    1.10    1.90
   2   5 -14    1.20    0.70
   1  -5 -14    6.30    2.20
   1   5 -14    5.30    2.20
  -1   5  14    6.90    1.90
   0  -5 -14    1.20    1.70
   0   5  14   -0.10    1.40
   0   5 -14    1.30    1.70
  -1  -5 -14   55.79    4.40
  -1   5 -14   53.99    4.40
   1   5  14   58.89    6.70
   2  -5  14  177.28    5.80
  -2  -5 -14  180.38    8.40
  -2   5 -14  180.48    8.40
   2   5  14  173.48    7.90
  -2   5 -14  175.78    5.80
   3  -5  14    0.80    0.80
  -3  -5 -14    1.00    1.80
   3   5  14    0.00    1.60
  -3   5 -14    3.90    1.90
  -3   5 -14    1.30    0.90
  -4  -5 -14   37.10    4.40
   4  -5  14   30.40    2.30
  -4   5 -14   31.20    2.30
   4   5  14   30.80    3.80
  -4   5 -14   35.50    4.10
  -5  -5 -14    2.70    1.90
   5  -5  14    2.10    1.30
  -5   5 -14   -0.10    1.60
   5   5  14   -1.40    1.50
   6  -5  14    4.70    1.70
  -6  -5 -14    2.90    2.00
  -6   5 -14    6.30    2.20
   6   5  14    0.70    1.90
   7  -5  14    3.90    1.90
  -7  -5 -14    2.50    2.20
  -7   5 -14    2.50    1.90
   7   5  14    3.90    2.20
   8  -5  14    3.60    2.00
  -8  -5 -14    0.40    1.90
   8   5  14    6.00    2.60
  -8   5 -14    3.70    1.90
   9  -5  14    0.70    1.90
  -9   5 -14   -0.70    1.30
   9   5  14    0.50    2.10
  11  -6 -14    4.20    2.40
  11  -6 -14    7.20    3.90
  11   6 -14    3.30    3.20
  11   6 -14    2.50    2.20
  10  -6 -14   -2.70    1.90
  10  -6 -14    1.70    2.80
  10   6 -14    1.30    2.10
  10   6 -14   -0.80    2.60
   9  -6 -14    6.50    2.60
   9   6 -14    5.10    2.50
   9   6 -14    7.40    3.00
   8  -6 -14   -1.40    1.90
   8  -6 -14   -1.20    2.00
   8   6 -14    1.10    2.50
   8   6 -14   -3.50    2.10
   7  -6 -14   12.50    2.90
   7  -6 -14   12.90    3.20
   7   6 -14    7.40    2.60
   7   6 -14    8.80    2.60
   6  -6 -14    3.30    2.30
   6  -6 -14    6.70    2.70
   6   6 -14    5.40    2.50
   6   6 -14    3.30    1.80
   5  -6 -14   -2.10    1.70
  -5   6  14   -1.90    1.60
   5   6 -14   -0.10    1.20
   5   6 -14   -1.80    1.70
   4  -6 -14    1.60    1.80
  -4   6  14    2.10    1.80
   4   6 -14    2.00    1.10
   4   6 -14    2.20    1.30
   4   6 -14    2.50    2.10
   3  -6 -14    0.20    1.70
   3   6 -14   -0.40    1.80
   3   6 -14   -0.40    0.70
  -3   6  14   -0.80    1.40
   3   6 -14    0.40    0.80
   2  -6 -14    6.80    2.30
   2   6 -14    6.70    0.70
  -2   6  14    7.30    2.20
   2   6 -14    8.40    0.80
   2   6 -14    7.30    2.40
   1  -6 -14   40.90    4.60
   1   6 -14   43.20    4.10
  -1   6  14   38.90    3.50
   0  -6 -14   15.50    3.10
   0   6  14   12.80    2.50
   0   6 -14   17.10    3.20
  -1  -6 -14    8.00    2.50
  -1   6 -14    8.60    2.50
   1   6  14    8.20    2.10
  -2  -6 -14    2.80    1.90
  -2   6 -14   -0.10    1.50
   2   6  14    3.40    1.80
  -3  -6 -14    2.80    2.10
   3  -6  14    0.80    0.80
  -3   6 -14   -0.10    1.70
   3   6  14    1.30    1.70
  -4  -6 -14    3.70    2.20
   4  -6  14    0.20    0.90
   4   6  14    1.40    1.80
  -4   6 -14    2.20    1.70
   5  -6  14    8.40    1.70
  -5  -6 -14    9.60    2.70
   5   6  14    9.80    2.70
  -5   6 -14    8.40    2.40
  -5   6 -14   11.70    1.80
  -6  -6 -14   -1.70    1.70
   6  -6  14   -0.10    1.20
  -6   6 -14   -0.10    1.70
  -6   6 -14    0.40    1.20
   6   6  14    0.80    2.00
  -7  -6 -14   -0.10    1.90
   7  -6  14    1.50    1.50
   7   6  14    1.50    2.10
  -7   6 -14    2.70    1.90
  -8  -6 -14    6.80    2.60
   8  -6  14   17.20    3.10
  -8   6 -14   14.50    2.70
   8   6  14    9.00    3.10
   9  -6  14    2.70    2.00
  -9  -6 -14    0.70    1.90
   9   6  14    4.10    2.90
  11  -7 -14   10.10    3.00
  11  -7 -14   11.30    4.10
  11   7 -14   18.30    4.40
  11   7 -14    9.60    2.80
  10  -7 -14    2.50    3.00
  10  -7 -14    2.20    2.20
  10   7 -14    2.70    2.30
  10   7 -14    5.40    3.20
   9  -7 -14    4.80    2.50
   9  -7 -14    7.90    3.50
   9   7 -14    2.50    2.40
   9   7 -14    6.60    3.20
   8  -7 -14    4.60    2.30
   8  -7 -14    6.30    3.10
   8   7 -14    3.30    2.40
   8   7 -14    2.30    2.50
   7  -7 -14   -2.00    2.10
   7  -7 -14   -1.60    1.90
   7   7 -14   -0.60    2.00
   7   7 -14   -0.90    1.90
   6  -7 -14    5.20    2.10
   6   7 -14    4.90    2.40
   6   7 -14    5.60    2.00
  -6   7  14    1.30    2.20
   5  -7 -14   35.10    4.30
   5   7 -14   27.80    3.30
  -5   7  14   30.00    4.00
   5   7 -14   29.50    2.80
   5   7 -14   46.40    4.40
   4  -7 -14    6.20    2.50
   4   7 -14   10.70    1.70
   4   7 -14   12.80    2.90
  -4   7  14   10.10    2.70
   4   7 -14    8.70    1.60
   3  -7 -14    0.70    2.00
   3   7 -14    2.40    0.90
  -3   7  14    1.30    1.60
   3   7 -14    1.80    1.80
   2  -7 -14   15.10    3.10
   2   7 -14   12.50    2.80
  -2   7  14   17.30    3.00
   1  -7 -14   84.79    5.70
   1   7 -14   84.89    5.80
  -1   7  14   87.49    5.30
   0  -7 -14   17.60    3.20
   0   7  14   16.10    2.90
   0   7 -14   13.60    2.90
  -1  -7 -14   38.40    4.40
   1   7  14   42.60    3.80
  -1   7 -14   44.00    4.20
  -2  -7 -14  117.29    6.80
   2   7  14  121.99    6.50
  -2   7 -14  112.59    6.70
  -3  -7 -14   55.09    4.80
  -3   7 -14   60.09    4.80
   3   7  14   54.49    4.50
  -4  -7 -14   31.70    4.30
   4  -7  14   27.00    1.90
   4  -7  14   27.60    1.90
   4   7  14   28.40    3.80
  -4   7 -14   28.90    3.90
   5  -7  14   -0.40    1.00
   5  -7  14    0.00    1.00
  -5  -7 -14   -1.40    1.90
  -5   7 -14    1.00    1.70
   5   7  14    2.00    1.80
   6  -7  14    3.20    1.40
   6  -7  14    0.40    1.10
  -6  -7 -14   -1.30    1.80
  -6   7 -14    2.30    2.00
   6   7  14    2.50    2.30
  -7  -7 -14   -0.80    1.90
  -7   7 -14    1.00    1.70
   7   7  14   -0.30    1.90
   8  -7  14   16.70    2.90
  -8  -7 -14   12.00    3.20
   8   7  14    8.90    3.40
  -8   7 -14   17.80    3.00
  10  -8 -14   31.00    5.40
  10  -8 -14   25.40    3.90
  10   8 -14   24.60    3.70
  10   8 -14   30.80    4.90
   9  -8 -14    1.60    2.10
   9  -8 -14    3.50    2.90
   9   8 -14    4.60    2.80
   9   8 -14    1.50    2.40
   8  -8 -14   21.70    3.60
   8  -8 -14   25.40    5.70
   8   8 -14   17.20    3.30
   8   8 -14   15.80    3.30
   7  -8 -14   33.10    4.90
   7  -8 -14   30.60    4.30
   7   8 -14   30.30    4.20
   7   8 -14   33.80    4.00
   6  -8 -14    6.10    2.50
   6   8 -14    2.20    1.70
   6   8 -14    0.20    2.10
  -6   8  14    3.20    2.50
   5  -8 -14   85.29    5.80
   5   8 -14   76.29    5.70
   5   8 -14   67.49    4.10
  -5   8  14   84.69    5.90
   5   8 -14   77.39    4.30
   4  -8 -14   52.49    4.70
   4   8 -14   40.50    2.70
  -4   8  14   48.50    5.30
   4   8 -14   44.10    2.80
   4   8 -14   49.20    4.70
   3  -8 -14  184.08    8.90
   3   8 -14  168.68    6.00
  -3   8  14  182.58    8.50
   3   8 -14  179.88    9.00
   2  -8 -14   41.50    4.60
  -2   8  14   33.80    4.10
   2   8 -14   31.10    4.30
   1  -8 -14   55.49    4.80
  -1   8  14   54.89    4.40
   1   8 -14   59.39    4.90
   0  -8 -14  174.08    8.90
   0   8 -14  188.08    9.10
   0   8  14  180.08    8.40
  -1  -8 -14   41.00    4.60
  -1   8 -14   32.00    4.10
   1   8  14   36.50    4.00
  -2  -8 -14  193.98    9.40
  -2   8 -14  185.68    9.30
   2   8  14  200.88    9.10
  -3  -8 -14    1.50    2.30
  -3   8 -14    1.20    2.00
   3   8  14    1.10    2.00
  -4  -8 -14  212.78   10.10
   4  -8  14  220.38    8.20
  -4   8 -14  217.18   10.00
   4   8  14  201.28    9.80
   5  -8  14   17.10    2.00
   5  -8  14   22.10    2.20
  -5  -8 -14   26.20    4.10
  -5   8 -14   19.90    3.40
   5   8  14   20.30    3.60
  -6  -8 -14  109.09    6.90
   6  -8  14  115.59    5.40
  -6   8 -14  120.79    6.80
   6   8  14  108.69    7.50
  -7  -8 -14   16.90    3.50
   7  -8  14   17.80    2.70
   7   8  14   23.10    4.40
  -7   8 -14   16.20    3.10
   8  -8  14   50.89    4.10
  -8  -8 -14   47.20    5.10
  -8   8 -14   49.40    4.30
   8   8  14   49.40    5.80
  10  -9 -14   22.80    3.80
  10  -9 -14   23.00    4.70
  10   9 -14   26.40    4.90
  10   9 -14   26.40    4.20
   9  -9 -14   -2.30    2.40
   9  -9 -14   -0.10    2.20
   9   9 -14    1.40    2.20
   9   9 -14   -1.20    2.30
   8  -9 -14   -4.60    1.70
   8  -9 -14   -0.80    2.50
   8   9 -14    3.50    2.40
   8   9 -14    2.30    2.50
   7  -9 -14   21.90    3.70
   7  -9 -14   27.60    4.50
   7   9 -14   22.10    3.20
   7   9 -14   22.20    3.90
   6  -9 -14    9.50    3.10
   6   9 -14   12.60    2.40
   6   9 -14   15.40    3.50
  -6   9  14    5.60    2.90
   5  -9 -14   28.10    4.10
   5   9 -14   26.00    2.70
   5   9 -14   26.50    2.80
  -5   9  14   25.40    4.00
   5   9 -14   26.20    4.20
   4  -9 -14   15.30    3.30
   4   9 -14   12.40    3.10
  -4   9  14   16.90    3.20
   4   9 -14   14.10    1.80
   4   9 -14   15.50    1.90
   3  -9 -14   40.70    4.70
   3   9 -14   43.10    5.10
   3   9 -14   34.00    1.80
  -3   9  14   34.20    4.20
   3   9 -14   37.80    1.80
   2  -9 -14   69.49    5.50
  -2   9  14   71.79    5.20
   2   9 -14   53.99    5.10
   1  -9 -14   38.90    4.90
  -1   9  14   42.30    4.70
   1   9 -14   34.20    4.40
   0  -9 -14    2.30    2.20
   0   9  14    6.10    2.30
   0   9 -14    6.50    2.40
  -1  -9 -14   15.40    3.10
  -1   9 -14   17.20    3.50
   1   9  14   20.10    3.30
  -2  -9 -14    1.20    2.10
  -2   9 -14    2.30    2.10
   2   9  14    4.40    2.20
  -3  -9 -14   23.50    3.90
  -3   9 -14   27.30    3.90
   3   9  14   25.20    4.00
  -4  -9 -14   98.49    6.90
   4   9  14  110.09    6.90
  -4   9 -14  118.99    7.00
   5  -9  14   60.79    3.00
   5  -9  14   62.29    3.10
  -5  -9 -14   66.29    5.60
   5   9  14   63.19    5.40
  -5   9 -14   68.89    5.30
   6  -9  14    0.80    1.30
  -6  -9 -14    6.60    2.70
   6  -9  14    2.10    1.30
   6   9  14    5.00    2.70
  -6   9 -14    3.00    2.20
   7  -9  14   11.70    2.20
  -7  -9 -14   15.80    3.60
  -7   9 -14   18.10    3.20
   7   9  14   11.90    3.50
   8  -9  14   11.30    2.50
  -8  -9 -14    7.30    3.00
  -8   9 -14    7.90    2.50
   8   9  14   10.60    3.50
   9 -10 -14   -1.60    2.80
   9 -10 -14    2.40    2.50
   9  10 -14    2.20    2.90
   9  10 -14   -0.60    2.40
   8 -10 -14    5.20    3.30
   8 -10 -14    3.80    2.60
   8  10 -14    6.30    2.70
   8  10 -14    3.70    2.80
   7 -10 -14   54.19    7.70
   7 -10 -14   48.10    5.40
   7  10 -14   57.39    5.50
   7  10 -14   53.19    4.50
   6 -10 -14    1.30    2.30
  -6  10  14    1.80    2.40
   6  10 -14    2.10    1.90
   6  10 -14   -3.40    2.10
   5 -10 -14   71.09    5.90
   5  10 -14   67.79    4.00
  -5  10  14   72.89    5.90
   5  10 -14   74.09    6.10
   4 -10 -14   54.29    5.70
   4  10 -14   41.00    2.50
  -4  10  14   42.60    5.20
   4  10 -14   44.50    5.20
   4  10 -14   34.90    2.50
   3 -10 -14  151.88    8.20
  -3  10  14  138.49    7.70
   3  10 -14  131.49    8.00
   2 -10 -14  157.88    8.50
  -2  10  14  150.08    8.00
   2  10 -14  152.68    8.50
   1 -10 -14  142.09    8.00
   1  10 -14  134.89    7.90
  -1  10  14  133.89    7.40
   0 -10 -14  113.59    7.20
   0  10 -14  121.99    7.30
   0  10  14  118.39    6.80
  -1 -10 -14    1.90    2.20
  -1  10 -14    0.90    2.20
   1  10  14    0.40    1.90
  -2 -10 -14  168.98    9.30
  -2  10 -14  183.98    9.40
   2  10  14  195.68    9.20
  -3 -10 -14    2.10    2.40
   3  10  14    4.70    2.40
  -3  10 -14    5.60    2.50
  -4 -10 -14  125.99    7.70
   4  10  14  126.89    7.70
  -4  10 -14  125.59    7.40
  -5 -10 -14    0.80    2.40
  -5  10 -14    0.00    2.00
   5  10  14    1.30    2.60
  -6 -10 -14   73.99    6.20
   6 -10  14   72.09    3.80
   6  10  14   80.29    6.40
  -6  10 -14   83.89    5.90
   7 -10  14    4.00    1.70
  -7 -10 -14    2.90    2.60
   7  10  14    5.30    3.10
  -7  10 -14    2.20    2.20
   9 -11 -14    0.50    2.40
   9 -11 -14    0.30    3.20
   9  11 -14   -2.00    2.40
   9  11 -14    2.80    2.80
   8 -11 -14   58.19    5.50
   8 -11 -14   69.39    6.70
   8  11 -14   51.39    5.00
   8  11 -14   58.49    5.70
   7 -11 -14    2.60    2.70
   7 -11 -14    7.00    2.80
   7  11 -14    4.30    2.90
   7  11 -14    4.20    2.10
   6 -11 -14  103.59    7.30
   6  11 -14   99.59    5.40
   6  11 -14  105.39    7.20
   5 -11 -14   11.80    3.50
   5  11 -14   11.20    2.00
  -5  11  14    4.20    2.60
   5  11 -14   13.30    3.60
   4 -11 -14  185.28    9.40
   4  11 -14  188.28    9.40
  -4  11  14  166.58    9.00
   4  11 -14  170.28    6.20
   4  11 -14  144.79    6.10
   3 -11 -14   56.79    5.30
  -3  11  14   44.70    5.10
   3  11 -14   35.90    4.90
   2 -11 -14  238.18   11.30
   2  11 -14  242.28   11.50
  -2  11  14  238.88   11.00
   1 -11 -14   57.59    5.50
  -1  11  14   52.49    4.90
   1  11 -14   59.69    5.60
   0 -11 -14    6.90    3.00
   0  11 -14    4.90    2.90
   0  11  14    8.70    2.80
  -1 -11 -14   51.49    5.70
  -1  11 -14   55.19    5.40
   1  11  14   49.50    4.80
  -2 -11 -14   18.30    3.70
  -2  11 -14   17.90    3.80
   2  11  14   17.60    3.40
  -3 -11 -14  168.48    9.40
  -3  11 -14  171.68    9.20
   3  11  14  175.28    9.20
  -4 -11 -14    1.40    2.50
  -4  11 -14   -1.10    1.90
  -5 -11 -14   69.19    6.10
   5  11  14   67.19    6.00
  -5  11 -14   65.49    5.60
  -6 -11 -14   18.00    4.00
   6 -11  14   13.10    1.70
   6  11  14   19.80    4.30
  -6  11 -14   17.30    3.40
   7 -11  14   90.09    4.70
  -7 -11 -14  102.69    7.30
   7  11  14   99.39    7.60
  -7  11 -14   95.59    6.60
   8 -12 -14    4.70    3.40
   8 -12 -14    6.40    2.90
   8  12 -14    4.70    2.80
   7 -12 -14    2.80    2.70
   7 -12 -14   -2.80    2.70
   7  12 -14    1.10    2.90
   7  12 -14    2.20    2.10
   6 -12 -14   31.50    4.70
  -6  12  14   32.60    4.90
   6  12 -14   38.80    3.60
   6  12 -14   42.00    5.40
   5 -12 -14   50.29    5.80
   5  12 -14   47.00    5.70
   5  12 -14   40.90    3.20
   4 -12 -14   20.80    4.00
   4  12 -14   20.90    1.90
  -4  12  14   22.80    4.10
   4  12 -14   22.20    4.10
   4  12 -14   18.70    1.90
   3 -12 -14   46.20    5.70
   3  12 -14   36.30    4.90
  -3  12  14   33.00    4.70
   2 -12 -14    0.60    2.50
   2  12 -14    5.90    2.80
  -2  12  14    4.90    2.70
   1 -12 -14   61.69    5.90
   1  12 -14   67.89    6.00
  -1  12  14   66.19    5.50
   0 -12 -14    9.90    3.30
   0  12  14    5.80    2.60
   0  12 -14    4.90    2.80
  -1 -12 -14   -0.90    2.40
   1  12  14    1.40    2.30
  -1  12 -14   -1.70    2.10
  -2 -12 -14   73.19    6.30
  -2  12 -14   77.29    6.30
   2  12  14   79.39    6.10
  -3 -12 -14   13.50    3.60
   3  12  14    6.30    3.70
  -3  12 -14   14.20    3.40
  -4 -12 -14   14.50    3.90
   4  12  14   11.00    3.20
  -4  12 -14   15.70    3.50
  -5 -12 -14    5.00    3.10
   5  12  14    3.10    2.70
  -5  12 -14    4.30    2.70
   6  12  14   28.40    4.90
  -6  12 -14   38.40    5.10
   8 -13 -14   65.19    6.30
   8 -13 -14   48.70    6.40
   8  13 -14   52.89    6.10
   8  13 -14   60.59    5.40
   7 -13 -14    0.80    2.60
   7 -13 -14    3.00    3.20
   7  13 -14    0.40    3.00
   7  13 -14    0.30    2.00
   6 -13 -14   92.89    8.30
   6  13 -14   85.79    5.10
  -6  13  14   99.59    7.70
   6  13 -14   96.89    7.40
  -5  13  14    4.60    2.90
   5  13 -14    2.10    3.90
   5  13 -14   -0.20    1.40
   4 -13 -14   74.49    7.20
  -4  13  14   79.09    6.60
   4  13 -14   69.59    3.30
   3 -13 -14   13.60    3.70
   3  13 -14   13.20    4.00
  -3  13  14   17.30    4.70
   2 -13 -14  102.89    7.30
  -2  13  14   89.09    6.70
   2  13 -14   84.79    6.90
   1 -13 -14   10.20    3.60
  -1  13  14   16.70    3.50
   1  13 -14   18.20    4.00
   0 -13 -14   23.00    4.50
   0  13  14   35.00    4.80
   0  13 -14   23.00    4.40
  -1 -13 -14   18.10    4.20
  -1  13 -14   20.50    4.00
  -2 -13 -14   26.80    7.40
  -2  13 -14   19.10    3.90
   2  13  14   17.00    3.60
  -3 -13 -14  120.99   13.70
  -3  13 -14  126.89   11.80
   3  13  14  122.89    8.00
  -4 -13 -14   -0.60    2.70
   4  13  14   -0.50    2.50
  -4  13 -14   -0.80    2.70
  -5 -13 -14   53.79    6.60
   5  13  14   55.59    6.30
  -5  13 -14   63.49    5.80
   7 -14 -14   29.60    5.10
   7 -14 -14   20.30    5.00
   7  14 -14   27.90    5.30
   7  14 -14   20.90    3.30
   6 -14 -14    8.30    3.40
   6  14 -14    4.70    2.00
   6  14 -14    6.90    3.60
  -6  14  14    4.70    3.30
   5 -14 -14   38.30    5.60
   5  14 -14   30.10    2.80
  -5  14  14   26.70    4.80
   5  14 -14   36.70    5.30
   4 -14 -14    1.30    2.70
   4  14 -14    2.20    3.00
  -4  14  14    0.30    2.80
   3 -14 -14   -1.40    2.60
  -3  14  14    1.00    2.70
   3  14 -14   -1.80    2.50
   2 -14 -14    9.30    3.50
  -2  14  14    7.80    3.50
   2  14 -14   11.50    3.50
   1 -14 -14   11.80    3.60
   1  14 -14    3.80    3.10
  -1  14  14    3.60    2.80
   0 -14 -14   41.30    5.60
   0  14 -14   41.30    5.30
   0  14  14   58.89    5.70
  -1 -14 -14   -1.50    2.50
   1  14  14    1.80    2.70
  -1  14 -14    1.80    2.80
  -2 -14 -14   54.69    6.50
  -2  14 -14   47.40    5.90
   2  14  14   45.80    5.60
  -3 -14 -14    1.70    3.00
   3  14  14   -0.70    3.10
  -3  14 -14    5.00    3.00
  -4 -14 -14   35.30    5.40
  -4  14 -14   28.30    4.60
   4  14  14   32.40    5.40
  -5 -14 -14    2.90    3.10
  -5  14 -14    3.70    2.90
   5  14  14    7.00    3.60
   6 -15 -14    2.00    3.30
  -6  15  14   -2.90    3.00
   6  15 -14    1.70    1.80
   6  15 -14   -0.70    3.30
   5 -15 -14    1.40    3.00
   5  15 -14    4.80    3.30
  -5  15  14   -2.90    2.90
   5  15 -14    1.40    1.40
   4 -15 -14    6.20    3.50
  -4  15  14    6.40    3.40
   4  15 -14    2.20    3.10
   3 -15 -14    2.40    3.20
   3  15 -14    6.20    3.50
  -3  15  14   -1.30    2.70
   2 -15 -14    5.50    3.20
  -2  15  14    8.50    3.60
   2  15 -14    5.20    3.20
   1 -15 -14    3.50    3.30
   1  15 -14    7.20    3.40
  -1  15  14    4.90    3.10
   0 -15 -14   -0.30    2.80
   0  15  14   -0.90    2.30
   0  15 -14    2.00    2.80
  -1 -15 -14   -2.80    2.70
   1  15  14    0.90    2.50
  -1  15 -14   -2.60    2.50
  -2 -15 -14   -1.00    2.90
   2  15  14   -2.30    2.60
  -2  15 -14    1.20    2.80
  -3 -15 -14   15.80    4.50
  -3  15 -14   17.60    4.30
   3  15  14   14.40    3.90
   4 -16 -14    6.30    3.80
   4  16 -14   -0.50    3.10
  -4  16  14    0.50    3.50
   3 -16 -14   12.10    4.10
   3  16 -14   14.70    4.30
  -3  16  14   15.90    4.40
   2 -16 -14    0.90    3.20
   2  16 -14    3.90    3.40
  -2  16  14   -3.40    2.70
   1 -16 -14   16.90    4.20
  -1  16  14   16.70    4.30
   1  16 -14   25.00    4.90
   0 -16 -14    2.40    3.10
   0  16 -14   11.30    3.90
   0  16  14    4.70    3.40
  -1 -16 -14   -1.70    2.60
  -1  16 -14    1.10    3.20
   1  16  14    0.60    3.00
  -2 -16 -14    9.50    3.80
  -2  16 -14   15.00    4.30
   2  16  14   10.40    3.40
  11   0 -15   -0.70    2.90
  11   0 -15    0.40    1.90
  10   0 -15    4.00    2.20
  10   0 -15    2.40    2.60
   9   0 -15   -0.70    1.70
   9   0 -15   -0.60    2.20
   8   0 -15    1.30    2.20
   8   0 -15    4.90    2.60
   7   0 -15    2.90    2.20
   7   0 -15   -2.30    1.60
   6   0 -15   -0.40    1.80
   6   0 -15   -0.90    1.90
   5   0 -15    3.60    1.90
   5   0 -15    3.50    2.00
   4   0 -15   -0.40    1.80
   4   0 -15   -1.40    1.20
   4   0 -15    0.00    1.10
   3   0 -15    1.10    1.10
   3   0 -15   -0.80    1.80
  -3   0  15   -0.70    1.10
  -2   0  15    0.50    1.20
   2   0 -15    1.50    1.00
  -1   0  15    0.40    0.90
   1   0 -15    2.80    1.10
   0   0 -15    2.40    1.20
   0   0  15    4.90    1.30
   1   0  15   -0.90    0.90
  -1   0 -15   -0.60    0.80
   2   0  15   -1.40    0.90
  -2   0 -15    0.40    1.90
   3   0  15    1.10    1.30
  -3   0 -15   -2.40    1.30
  -3   0 -15    4.10    1.40
  -4   0 -15   -2.00    1.30
   4   0  15   -1.10    1.10
   5   0  15    0.20    1.40
  -5   0 -15   -0.90    1.40
  -6   0 -15   -0.40    1.60
   6   0  15    1.50    1.50
   7   0  15   -0.50    1.40
  -7   0 -15    0.80    1.70
   8   0  15    1.20    2.00
  -8   0 -15   -0.60    1.70
  -9   0 -15   -0.30    1.40
   9   0  15   -1.90    1.70
  11  -1 -15   -0.30    2.20
  11  -1 -15    0.10    2.70
  11   1 -15    0.60    2.70
  10  -1 -15    7.70    2.40
  10   1 -15   10.70    2.70
  10   1 -15    2.20    2.90
   9  -1 -15    2.10    2.10
   9  -1 -15    5.80    2.80
   9   1 -15    0.40    2.50
   9   1 -15    3.00    2.10
   8  -1 -15    6.20    2.40
   8  -1 -15    9.40    3.10
   8   1 -15    4.90    2.50
   8   1 -15    6.50    2.50
   7  -1 -15   21.30    3.60
   7  -1 -15   19.00    3.50
   7   1 -15   16.50    3.40
   7   1 -15   16.10    3.20
   6  -1 -15    7.90    2.40
   6  -1 -15    2.60    2.10
   6   1 -15    9.20    2.40
   6   1 -15    4.30    2.30
   5  -1 -15   12.70    2.80
   5  -1 -15   18.00    3.40
   5   1 -15   15.20    2.90
   5   1 -15   23.40    3.00
   4  -1 -15   43.00    4.10
   4   1 -15   50.69    3.50
   4   1 -15   39.90    3.00
   4   1 -15   47.80    4.20
   3  -1 -15   24.60    2.40
   3  -1 -15   25.00    3.90
  -3   1  15   24.30    2.80
   3   1 -15   27.10    2.50
   3   1 -15   27.10    4.10
   3   1 -15   26.40    2.30
   2  -1 -15   12.60    2.00
  -2  -1  15   16.20    2.10
  -2   1  15   12.30    2.20
   2   1 -15   20.00    2.30
   2   1 -15   19.40    4.10
  -1  -1  15   30.10    2.30
   1   1 -15   28.80    2.20
  -1   1  15   29.20    2.50
   0  -1 -15    9.60    2.10
   0  -1  15    8.20    1.40
   0   1  15   10.70    1.80
   0   1 -15    5.60    1.30
  -1  -1 -15    2.80    2.20
   1  -1  15    3.00    1.10
  -1  -1 -15    1.40    1.20
  -1   1 -15    2.20    1.10
   1   1  15    3.00    1.30
  -1   1 -15    2.10    2.30
  -2  -1 -15    8.30    2.30
   2  -1  15    6.10    1.50
  -2  -1 -15    2.90    1.40
  -2   1 -15    6.80    2.50
  -2   1 -15    4.30    1.30
   2   1  15    6.30    1.70
  -3  -1 -15   35.30    3.40
   3  -1  15   38.20    2.80
  -3  -1 -15   38.30    4.30
   3   1  15   35.30    3.00
  -3   1 -15   40.10    4.30
  -3   1 -15   32.80    3.10
  -4  -1 -15   20.60    3.30
   4  -1  15   23.00    2.80
  -4   1 -15   22.10    3.40
  -4   1 -15   18.10    2.50
  -5  -1 -15    1.40    1.70
   5   1  15    1.50    1.50
  -5   1 -15    1.00    1.60
  -6  -1 -15   40.50    3.80
   6  -1  15   37.20    3.50
  -6   1 -15   42.50    3.80
   6   1  15   40.00    3.80
   7  -1  15    3.00    1.90
  -7  -1 -15    5.30    2.00
   7   1  15    3.80    2.10
  -7   1 -15    5.10    2.10
   8  -1  15    1.00    1.80
   8   1  15    0.60    1.90
  -8   1 -15    0.70    1.80
   9  -1  15    2.10    2.00
  -9  -1 -15    5.00    1.80
  -9   1 -15    3.50    1.70
   9   1  15    7.30    2.60
  11  -2 -15    3.70    3.40
  11   2 -15    3.20    3.40
  10  -2 -15  106.49    7.60
  10  -2 -15   81.99    5.50
  10   2 -15   89.99    7.20
  10   2 -15   80.09    5.40
   9  -2 -15    4.50    2.90
   9  -2 -15    5.20    2.30
   9   2 -15    4.60    2.10
   9   2 -15   12.90    3.30
   8  -2 -15  118.99    7.40
   8  -2 -15  126.09    6.90
   8   2 -15  111.29    6.70
   8   2 -15  116.59    7.10
   7  -2 -15    3.40    2.30
   7  -2 -15    5.80    2.50
   7   2 -15    2.30    2.10
   7   2 -15    1.40    2.00
   6  -2 -15   54.09    4.70
   6  -2 -15   66.29    5.00
   6   2 -15   57.59    5.10
   6   2 -15   56.99    4.80
   5  -2 -15  132.89    7.00
   5  -2 -15  133.89    6.70
   5   2 -15  120.89    6.10
   5   2 -15  113.79    5.70
   5   2 -15  123.59    6.80
   4  -2 -15  132.09    6.90
   4   2 -15  127.29    5.80
   4   2 -15  120.59    6.80
  -4   2  15  123.79    6.40
   3  -2 -15  183.48    8.80
   3  -2 -15  199.58    8.00
   3   2 -15  189.38    8.90
  -3   2  15  201.68    8.20
   3   2 -15  188.78    7.40
   3   2 -15  184.68    7.30
   2  -2 -15    1.80    1.80
   2  -2 -15    1.20    1.00
  -2   2  15    1.80    1.40
   2   2 -15    2.50    1.10
   2   2 -15    1.00    1.70
  -1  -2  15  530.15   16.90
   1  -2 -15  509.65   17.60
   1  -2 -15  550.04   19.10
   1   2 -15  523.95   19.00
   1   2 -15  510.05   16.80
  -1   2  15  514.95   17.60
   0  -2 -15   76.29    5.20
   0  -2 -15   78.59    4.30
   0  -2  15   82.49    3.70
   0   2  15   82.39    4.30
   0   2 -15   80.69    3.70
   0   2 -15   92.69    5.60
  -1  -2 -15  275.77   10.80
  -1  -2 -15  287.47   11.80
   1  -2  15  291.67    9.80
  -1   2 -15  282.67    9.90
   1   2  15  286.57   10.60
  -1   2 -15  295.37   11.90
  -2  -2 -15  101.39    5.90
  -2  -2 -15  106.49    6.10
   2  -2  15  104.09    4.60
   2   2  15  105.49    5.30
  -2   2 -15  104.69    4.70
  -2   2 -15  113.39    6.20
  -3  -2 -15  134.99    7.10
   3  -2  15  138.29    5.70
   3   2  15  137.69    6.40
  -3   2 -15  134.69    7.00
  -3   2 -15  126.79    5.70
  -4  -2 -15  284.67   11.70
   4  -2  15  289.67   10.60
  -4   2 -15  293.57   11.70
  -4   2 -15  269.77   10.60
   4   2  15  289.17   11.30
   5  -2  15   78.49    4.60
  -5  -2 -15   81.89    5.30
   5   2  15   78.79    5.10
  -5   2 -15   84.69    5.20
   6  -2  15   80.39    4.90
  -6  -2 -15   81.59    5.30
   6   2  15   86.99    5.60
  -6   2 -15   83.19    5.30
  -7  -2 -15   45.80    4.00
   7  -2  15   47.30    4.10
   7   2  15   44.30    4.90
  -7   2 -15   49.60    4.00
   8  -2  15   68.99    5.10
  -8  -2 -15   65.69    5.80
   8   2  15   60.09    5.20
  -9  -2 -15    0.70    1.50
   9  -2  15   -0.30    1.90
   9   2  15   -1.90    1.70
  -9   2 -15   -1.10    1.30
  11  -3 -15    7.40    3.60
  11   3 -15    2.00    3.10
  11   3 -15    3.80    2.10
  10  -3 -15   24.10    3.40
  10  -3 -15   16.80    4.00
  10   3 -15   16.30    4.00
  10   3 -15   16.20    3.10
   9  -3 -15    2.10    2.50
   9  -3 -15    1.10    2.10
   9   3 -15    2.40    2.30
   9   3 -15    5.60    2.90
   8  -3 -15   63.29    5.10
   8  -3 -15   66.79    5.80
   8   3 -15   59.29    5.10
   8   3 -15   68.59    5.60
   7  -3 -15   20.80    3.70
   7  -3 -15   20.70    3.60
   7   3 -15   18.30    3.20
   7   3 -15   22.70    3.60
   6  -3 -15   28.30    3.80
   6  -3 -15   34.20    4.10
   6   3 -15   29.60    3.80
   6   3 -15   28.40    3.50
   5  -3 -15   26.90    3.50
   5  -3 -15   26.30    3.70
   5   3 -15   30.80    3.30
   5   3 -15   28.10    3.80
   5   3 -15   28.30    3.00
   4  -3 -15   19.50    3.20
   4   3 -15   17.40    2.20
   4   3 -15   12.70    2.80
   4   3 -15   18.90    2.50
  -4   3  15   18.40    3.20
   3  -3 -15    8.80    2.40
   3   3 -15    8.20    1.60
   3   3 -15    8.40    1.60
   3   3 -15    7.50    2.40
  -3   3  15   12.00    2.30
   2  -3 -15  167.98    8.10
   2   3 -15  166.68    6.30
  -2   3  15  163.78    7.30
   2   3 -15  174.68    6.30
   2   3 -15  161.58    8.10
   1  -3 -15   -0.10    1.00
   1  -3 -15    1.20    1.70
   1   3 -15    2.10    2.00
   1   3 -15    2.50    0.90
  -1   3  15   -0.40    1.20
   0  -3 -15   20.70    2.70
   0  -3 -15   25.40    3.40
   0  -3  15   25.40    1.70
   0   3 -15   24.40    3.40
   0   3  15   25.80    2.90
   0   3 -15   23.60    1.70
  -1  -3 -15   26.80    3.50
   1  -3  15   20.70    1.60
   1   3  15   24.60    2.80
  -1   3 -15   19.90    1.70
  -1   3 -15   22.80    3.30
   2  -3  15   18.10    1.70
  -2  -3 -15   18.00    3.20
  -2   3 -15   17.20    1.90
   2   3  15   19.10    2.70
  -2   3 -15   21.80    3.30
   3  -3  15  111.99    4.80
  -3  -3 -15  114.19    6.40
  -3   3 -15  112.29    6.30
  -3   3 -15  104.69    4.80
   3   3  15  110.79    5.80
  -4  -3 -15   45.20    4.20
   4  -3  15   35.30    2.80
  -4   3 -15   41.00    3.90
   4   3  15   38.90    3.60
  -5  -3 -15    9.90    2.50
   5  -3  15    6.10    1.80
   5   3  15    4.80    2.00
  -5   3 -15    6.30    2.00
  -5   3 -15    4.30    1.60
  -6  -3 -15   65.79    4.80
   6  -3  15   62.39    4.30
   6   3  15   57.99    4.80
  -6   3 -15   65.89    4.70
  -7  -3 -15   59.59    4.60
   7  -3  15   58.79    4.40
  -7   3 -15   56.09    4.40
   7   3  15   60.99    5.00
  -8  -3 -15    6.30    2.30
   8  -3  15    9.10    2.40
  -8   3 -15    8.00    2.20
  -9  -3 -15   15.50    3.00
   9  -3  15   15.30    3.20
  -9   3 -15   12.20    2.30
   9   3  15   12.00    3.30
  11  -4 -15    4.10    2.20
  11  -4 -15    8.40    4.00
  11   4 -15    2.80    2.20
  11   4 -15    1.50    3.00
  10  -4 -15   45.20    4.30
  10  -4 -15   37.70    5.80
  10   4 -15   37.40    4.20
  10   4 -15   48.10    6.00
   9  -4 -15   10.40    2.80
   9  -4 -15   12.80    3.50
   9   4 -15   10.90    3.50
   9   4 -15   11.00    2.70
   8  -4 -15  282.27   11.90
   8  -4 -15  298.07   12.90
   8   4 -15  279.47   12.20
   8   4 -15  271.57   11.80
   7  -4 -15    9.70    2.90
   7  -4 -15    9.50    2.90
   7   4 -15   11.60    2.80
   7   4 -15   10.60    2.80
   6  -4 -15   49.40    4.60
   6  -4 -15   62.49    4.90
   6   4 -15   50.89    4.20
   6   4 -15   51.39    4.70
   5  -4 -15  164.08    7.90
   5   4 -15  148.09    6.50
   5   4 -15  161.38    6.90
  -5   4  15  154.38    7.90
   5   4 -15  147.79    7.90
   4  -4 -15   27.00    3.70
  -4   4  15   28.50    3.40
   4   4 -15   25.10    3.60
   4   4 -15   26.00    2.70
   4   4 -15   23.80    2.30
   3  -4 -15  353.26   13.60
  -3   4  15  358.76   14.00
   3   4 -15  336.07   11.50
   3   4 -15  323.07   13.50
   3   4 -15  337.47   11.60
   2  -4 -15   18.00    3.30
  -2   4  15   16.90    2.60
   2   4 -15   11.80    2.70
   2   4 -15   13.70    1.60
   2   4 -15   11.50    1.50
   1  -4 -15  329.97   12.90
   1   4 -15  307.47   12.70
  -1   4  15  317.77   11.90
   1   4 -15  314.07   10.20
   0  -4 -15   46.00    4.20
   0   4 -15   47.30    4.20
   0   4  15   49.60    3.60
   0   4 -15   46.70    2.10
   1  -4  15  178.98    6.00
  -1  -4 -15  176.48    8.50
   1   4  15  181.08    8.30
  -1   4 -15  174.68    8.50
   2  -4  15  287.27    9.40
  -2  -4 -15  281.57   11.80
  -2   4 -15  293.77   11.90
   2   4  15  289.37   11.10
  -2   4 -15  275.57    9.50
   3  -4  15  366.06   12.00
  -3  -4 -15  362.36   14.10
  -3   4 -15  353.26   12.00
  -3   4 -15  359.76   14.10
   3   4  15  351.86   13.50
  -4  -4 -15  343.37   13.60
   4  -4  15  347.97   11.90
   4   4  15  350.66   13.40
  -4   4 -15  333.97   11.90
  -4   4 -15  338.27   13.50
  -5  -4 -15   43.50    4.30
   5  -4  15   44.00    3.20
  -5   4 -15   47.90    3.20
   5   4  15   45.40    4.20
  -5   4 -15   47.70    4.10
   6  -4  15  121.79    6.10
  -6  -4 -15  126.99    6.90
  -6   4 -15  123.29    6.70
   6   4  15  124.69    7.10
   7  -4  15   20.50    3.00
  -7  -4 -15   13.30    2.90
   7   4  15   20.70    3.70
  -7   4 -15   19.80    3.20
  -8  -4 -15   21.60    3.30
   8  -4  15   19.90    3.30
  -8   4 -15   21.50    3.10
   8   4  15   21.40    3.90
  -9  -4 -15   14.80    2.90
   9  -4  15   19.20    3.50
   9   4  15   14.30    3.40
  11  -5 -15   36.60    4.10
  11  -5 -15   47.30    6.60
  11   5 -15   34.70    4.00
  11   5 -15   40.70    5.70
  10  -5 -15   24.60    5.20
  10  -5 -15   27.80    4.00
  10   5 -15   25.50    4.50
  10   5 -15   24.10    3.50
   9  -5 -15   96.49    6.40
   9   5 -15  106.39    7.00
   9   5 -15  100.89    6.30
   8  -5 -15   63.99    5.80
   8  -5 -15   59.19    5.20
   8   5 -15   61.09    5.30
   8   5 -15   61.99    5.30
   7  -5 -15  124.29    7.80
   7  -5 -15  142.79    7.60
   7   5 -15  143.39    7.70
   7   5 -15  141.29    7.30
   6  -5 -15   64.99    5.10
   6  -5 -15   64.59    5.20
   6   5 -15   59.39    4.40
   6   5 -15   65.59    5.20
   5  -5 -15   14.90    3.00
   5   5 -15   10.80    2.10
   5   5 -15    7.10    2.70
  -5   5  15   11.50    2.70
   5   5 -15    8.70    1.80
   4  -5 -15   97.39    6.10
   4   5 -15   91.69    4.60
   4   5 -15   89.59    4.30
  -4   5  15  100.19    5.80
   4   5 -15  106.99    6.30
   3  -5 -15    1.90    1.90
  -3   5  15    5.00    1.90
   3   5 -15    2.50    1.10
   3   5 -15    4.50    1.10
   3   5 -15    1.90    2.00
   2  -5 -15  186.98    8.90
  -2   5  15  200.08    8.50
   2   5 -15  183.08    9.00
   2   5 -15  188.88    6.50
   1  -5 -15   28.50    3.80
   1   5 -15   32.70    4.40
  -1   5  15   31.70    3.10
   0  -5 -15  221.28    9.90
   0   5  15  218.98    9.20
   0   5 -15  224.78   10.00
  -1  -5 -15   -0.80    1.70
  -1   5 -15    1.70    1.80
   1   5  15    0.90    1.50
  -2  -5 -15  362.06   14.40
   2  -5  15  369.76   11.50
  -2   5 -15  369.16   11.50
  -2   5 -15  366.96   14.50
   2   5  15  372.56   13.90
   3  -5  15  112.29    4.30
  -3  -5 -15  105.69    6.40
  -3   5 -15  116.19    6.60
  -3   5 -15  104.09    4.30
   3   5  15  106.39    6.00
  -4  -5 -15  231.38   10.40
   4  -5  15  240.88    8.50
  -4   5 -15  222.58    8.40
   4   5  15  240.38   10.20
  -4   5 -15  241.78   10.40
   5  -5  15   87.39    4.50
  -5  -5 -15   88.49    5.80
  -5   5 -15   89.29    5.70
   5   5  15   84.69    5.70
  -6  -5 -15   82.59    5.70
   6  -5  15   86.39    4.70
  -6   5 -15   80.79    5.40
   6   5  15   80.39    5.80
   7  -5  15  207.28    9.00
  -7  -5 -15  203.88    9.60
  -7   5 -15  212.28    9.40
   7   5  15  210.98   10.30
  -8  -5 -15    7.50    2.60
   8  -5  15   10.60    2.70
  -8   5 -15    9.50    2.30
   8   5  15    2.40    2.50
   9  -5  15   99.89    6.30
  -9  -5 -15   98.99    5.90
  -9   5 -15  103.99    5.70
   9   5  15   91.59    7.10
  11  -6 -15    8.80    3.90
  11  -6 -15    4.00    2.60
  11   6 -15    5.60    2.50
  11   6 -15    7.00    3.60
  10  -6 -15    3.80    2.50
  10  -6 -15    5.30    3.10
  10   6 -15    6.20    2.70
  10   6 -15   12.40    3.70
   9  -6 -15   -0.50    2.70
   9  -6 -15    2.60    2.60
   9   6 -15    4.40    2.80
   9   6 -15    3.40    2.50
   8  -6 -15   19.90    3.50
   8  -6 -15   26.60    4.40
   8   6 -15   18.80    3.70
   8   6 -15   20.60    3.60
   7  -6 -15   29.30    4.50
   7  -6 -15   21.80    3.70
   7   6 -15   30.70    4.00
   7   6 -15   25.20    4.10
   6  -6 -15    3.60    2.20
   6  -6 -15    2.00    2.40
   6   6 -15    0.30    1.60
   6   6 -15    2.30    2.30
   5  -6 -15   23.50    3.70
   5   6 -15   18.50    3.30
  -5   6  15   22.00    3.80
   5   6 -15   23.60    2.70
   4  -6 -15    4.10    2.20
   4   6 -15    3.70    2.20
   4   6 -15    2.40    1.30
   4   6 -15    4.30    1.30
  -4   6  15    2.00    2.00
   3  -6 -15   14.50    2.90
   3   6 -15    9.70    2.80
   3   6 -15   10.30    1.30
  -3   6  15   11.80    2.80
   3   6 -15   10.10    1.40
   2  -6 -15  112.09    6.60
   2   6 -15  104.59    6.50
  -2   6  15  111.19    6.10
   1  -6 -15  124.79    7.00
   1   6 -15  116.09    6.90
  -1   6  15  126.49    6.40
   0  -6 -15  117.29    6.90
   0   6  15  119.99    6.30
   0   6 -15  131.99    7.10
  -1  -6 -15   65.99    5.20
   1   6  15   66.69    4.50
  -1   6 -15   70.49    5.20
  -2  -6 -15  154.98    8.10
  -2   6 -15  148.49    7.90
   2   6  15  164.58    7.70
  -3  -6 -15  241.98   10.90
   3  -6  15  248.48    8.20
  -3   6 -15  266.37   11.20
   3   6  15  246.88   10.60
   4  -6  15  139.79    5.40
  -4  -6 -15  133.79    7.50
   4   6  15  143.99    7.40
  -4   6 -15  141.09    7.50
   5  -6  15   38.20    2.80
  -5  -6 -15   46.60    4.90
  -5   6 -15   35.80    2.70
   5   6  15   40.80    4.70
  -5   6 -15   45.40    4.20
   6  -6  15   60.09    3.90
  -6  -6 -15   65.49    5.20
  -6   6 -15   74.89    5.20
   6   6  15   64.39    5.40
  -6   6 -15   56.29    3.70
  -7  -6 -15   15.00    3.40
   7  -6  15   14.60    2.60
  -7   6 -15   11.20    2.70
   7   6  15   12.30    3.60
   8  -6  15   16.90    2.90
  -8  -6 -15   11.60    3.00
   8   6  15   10.90    3.30
  -8   6 -15   18.50    3.10
  10  -7 -15    0.60    2.40
  10  -7 -15    3.40    3.30
  10   7 -15    0.20    2.30
  10   7 -15    9.00    3.40
   9  -7 -15   72.09    6.50
   9  -7 -15   50.59    5.00
   9   7 -15   65.89    5.80
   9   7 -15   49.40    5.20
   8  -7 -15   20.10    4.40
   8  -7 -15   12.40    3.00
   8   7 -15   11.60    3.20
   8   7 -15   14.60    3.10
   7  -7 -15   36.50    5.00
   7  -7 -15   30.50    4.20
   7   7 -15   37.20    4.30
   7   7 -15   28.60    4.20
   6  -7 -15   47.70    4.60
   6   7 -15   41.30    3.60
   6   7 -15   38.20    4.70
  -6   7  15   45.40    5.20
   5  -7 -15   11.40    3.00
   5   7 -15    8.40    2.00
   5   7 -15   11.80    2.10
   5   7 -15   11.30    3.10
  -5   7  15   14.90    3.30
   4  -7 -15  120.89    7.00
  -4   7  15  120.79    6.80
   4   7 -15  104.69    4.80
   4   7 -15  128.29    7.20
   4   7 -15  116.09    5.00
   3  -7 -15   26.40    3.90
   3   7 -15   23.00    1.70
   3   7 -15   21.10    3.70
  -3   7  15   29.40    4.00
   3   7 -15   22.40    1.90
   2  -7 -15   89.59    5.90
  -2   7  15   88.99    5.50
   2   7 -15   85.29    6.00
   1  -7 -15   43.70    4.70
  -1   7  15   41.90    3.80
   1   7 -15   32.30    4.30
   0  -7 -15  289.47   12.20
   0   7 -15  293.87   12.40
   0   7  15  277.17   11.50
  -1  -7 -15    3.20    2.10
  -1   7 -15    4.60    2.30
   1   7  15    2.90    1.90
  -2  -7 -15  261.37   11.70
   2   7  15  285.77   11.50
  -2   7 -15  278.77   12.00
  -3  -7 -15  230.48   10.70
   3   7  15  242.08   10.50
  -3   7 -15  239.18   10.80
  -4  -7 -15  180.28    8.80
   4  -7  15  167.58    6.00
   4  -7  15  163.18    6.00
  -4   7 -15  171.28    8.60
   4   7  15  171.88    8.60
   5  -7  15  153.48    6.10
   5  -7  15  143.89    6.00
  -5  -7 -15  153.98    8.20
  -5   7 -15  155.18    8.00
   5   7  15  160.68    8.30
   6  -7  15   74.99    4.40
   6  -7  15   89.39    4.60
  -6  -7 -15  101.69    6.40
   6   7  15  100.89    6.60
  -6   7 -15   78.39    5.60
  -7  -7 -15  239.08   11.10
   7   7  15  235.78   11.70
  -7   7 -15  249.28   10.70
  -8  -7 -15   15.80    3.40
   8  -7  15   22.00    3.20
   8   7  15   21.80    4.10
  -8   7 -15   18.40    3.10
  10  -8 -15   17.10    4.20
  10  -8 -15   16.20    3.60
  10   8 -15   26.90    4.60
  10   8 -15   15.40    3.30
   9  -8 -15    7.20    3.40
   9  -8 -15    2.00    2.40
   9   8 -15    4.60    2.70
   9   8 -15    5.50    2.90
   8  -8 -15   15.70    3.40
   8  -8 -15   14.30    3.90
   8   8 -15   20.70    3.80
   8   8 -15   19.50    3.50
   7  -8 -15   43.30    5.40
   7  -8 -15   53.29    5.10
   7   8 -15   52.29    4.30
   7   8 -15   53.59    5.20
   6  -8 -15    4.20    2.50
   6   8 -15    8.00    2.90
   6   8 -15    4.60    1.80
   6   8 -15    2.40    1.90
  -6   8  15    3.20    2.50
   5  -8 -15   38.90    4.70
  -5   8  15   44.80    5.30
   5   8 -15   49.80    3.40
   5   8 -15   36.50    3.00
   5   8 -15   52.49    5.00
   4  -8 -15    3.90    2.50
   4   8 -15    4.50    1.30
   4   8 -15    4.70    1.30
   4   8 -15    5.10    2.50
  -4   8  15    8.70    3.00
   3  -8 -15   80.19    5.80
   3   8 -15   73.59    2.90
  -3   8  15   76.59    5.40
   3   8 -15   92.19    6.20
   3   8 -15   76.39    2.90
   2  -8 -15    9.00    2.70
   2   8 -15    3.00    2.20
  -2   8  15    6.40    2.40
   1  -8 -15  140.99    7.80
  -1   8  15  143.49    7.40
   1   8 -15  151.98    8.20
   0  -8 -15  142.69    7.70
   0   8  15  130.29    7.00
   0   8 -15  123.09    7.40
  -1  -8 -15   69.99    5.50
  -1   8 -15   70.69    5.40
   1   8  15   62.59    4.90
  -2  -8 -15   77.39    5.90
  -2   8 -15   88.99    6.10
   2   8  15   90.19    5.70
  -3  -8 -15   33.50    4.40
  -3   8 -15   39.50    4.70
   3   8  15   32.10    4.10
  -4  -8 -15  123.39    7.50
  -4   8 -15  126.69    7.30
   4   8  15  126.29    7.30
   5  -8  15   42.30    2.60
  -5  -8 -15   61.59    5.20
   5  -8  15   44.90    2.70
  -5   8 -15   56.79    4.80
   5   8  15   52.49    5.60
  -6  -8 -15   72.49    5.80
   6  -8  15   74.89    4.10
   6   8  15   77.19    6.30
  -6   8 -15   80.69    5.70
   7  -8  15   18.00    2.60
  -7  -8 -15   22.90    3.90
  -7   8 -15   20.50    3.40
   7   8  15   19.70    4.20
   8  -8  15   24.60    3.30
  -8  -8 -15   25.50    4.30
   8   8  15   22.00    4.40
  -8   8 -15   22.10    3.50
  10  -9 -15    4.50    3.80
  10  -9 -15    7.10    2.90
  10   9 -15   10.00    4.30
  10   9 -15    5.30    3.00
   9  -9 -15    6.40    3.00
   9  -9 -15    6.90    3.50
   9   9 -15    5.50    2.70
   9   9 -15    2.70    2.70
   8  -9 -15   -2.90    2.70
   8  -9 -15    5.30    2.60
   8   9 -15   -2.10    2.30
   8   9 -15    4.60    2.40
   7  -9 -15   -0.30    2.40
   7  -9 -15    6.60    4.20
   7   9 -15    3.50    2.10
   7   9 -15    0.90    2.60
   6  -9 -15   -1.00    2.20
   6   9 -15   -1.20    1.50
   6   9 -15   -0.10    1.60
   6   9 -15   -2.50    2.20
  -6   9  15    0.80    2.40
   5  -9 -15    3.80    2.60
   5   9 -15    2.80    1.50
   5   9 -15    1.10    2.30
   5   9 -15    3.60    1.50
  -5   9  15    3.70    2.60
   4  -9 -15   33.60    4.50
   4   9 -15   36.60    4.70
   4   9 -15   35.50    2.40
   4   9 -15   36.70    2.40
  -4   9  15   37.00    4.50
   3  -9 -15    4.10    2.50
   3   9 -15    2.60    2.30
  -3   9  15    8.20    2.80
   2  -9 -15  126.29    7.50
   2   9 -15  122.99    7.50
  -2   9  15  109.39    6.70
   1  -9 -15    1.40    2.10
   1   9 -15    0.50    2.10
  -1   9  15   -1.50    1.60
   0  -9 -15    5.40    2.80
   0   9 -15   13.50    3.30
   0   9  15    5.30    2.20
  -1  -9 -15   32.80    4.50
   1   9  15   47.40    4.30
  -1   9 -15   32.90    4.30
  -2  -9 -15    9.00    2.90
  -2   9 -15   12.50    3.10
   2   9  15   10.20    2.70
  -3  -9 -15  114.29    7.30
   3   9  15  120.69    7.10
  -3   9 -15  119.19    7.30
  -4  -9 -15    3.20    2.40
  -4   9 -15    3.00    2.20
   4   9  15    4.00    2.60
  -5  -9 -15   23.70    4.10
   5  -9  15   23.30    1.70
   5  -9  15   22.40    2.10
  -5   9 -15   24.50    4.10
   5   9  15   24.60    6.50
  -6  -9 -15    2.20    2.40
   6  -9  15    3.30    1.30
   6   9  15    5.20    2.90
  -6   9 -15   -1.00    1.80
   7  -9  15    2.40    1.60
  -7  -9 -15    2.90    2.60
   7   9  15    6.10    2.90
  -7   9 -15    5.10    2.30
   9 -10 -15    5.20    3.30
   9 -10 -15    3.40    2.40
   9  10 -15    4.60    3.00
   9  10 -15    1.40    2.50
   8 -10 -15   12.40    3.30
   8 -10 -15   22.50    4.70
   8  10 -15   20.30    3.70
   8  10 -15   16.10    3.60
   7 -10 -15   29.80    4.50
   7 -10 -15   20.30    4.30
   7  10 -15   24.00    4.10
   7  10 -15   35.80    4.00
   6 -10 -15    8.70    3.10
   6  10 -15   12.90    2.50
   6  10 -15   11.20    3.40
  -6  10  15   14.60    3.70
   6  10 -15    8.00    2.30
   5 -10 -15   26.30    4.10
   5  10 -15   27.60    2.70
   5  10 -15   30.90    4.50
   5  10 -15   18.30    2.30
  -5  10  15   28.40    4.50
   4 -10 -15    2.80    2.70
  -4  10  15    0.90    2.50
   4  10 -15    1.80    2.30
   4  10 -15    1.70    1.00
   4  10 -15    2.60    1.10
   3 -10 -15   31.50    4.50
   3  10 -15   34.30    4.90
  -3  10  15   29.20    4.10
   2 -10 -15    2.60    2.50
   2  10 -15    1.00    2.50
  -2  10  15    1.80    2.20
   1 -10 -15  114.29    7.40
   1  10 -15  110.89    7.30
  -1  10  15  115.69    6.80
   0 -10 -15    9.70    3.10
   0  10 -15   13.90    3.40
   0  10  15   13.70    2.90
  -1 -10 -15   32.70    4.80
  -1  10 -15   35.80    4.70
   1  10  15   36.30    4.70
  -2 -10 -15    2.00    2.40
  -2  10 -15    2.80    2.50
   2  10  15    2.20    2.40
  -3 -10 -15   20.70    4.10
  -3  10 -15   22.90    4.00
   3  10  15   20.70    3.90
  -4 -10 -15    0.30    2.50
  -4  10 -15    0.20    2.00
   4  10  15   -0.80    1.80
  -5 -10 -15    9.00    3.20
  -5  10 -15    7.00    2.60
   5  10  15    8.50    3.10
  -6 -10 -15   62.09    5.70
   6 -10  15   49.00    2.80
   6  10  15   42.00    5.30
  -6  10 -15   44.10    5.10
  -7 -10 -15    8.10    2.90
   7 -10  15    5.30    1.70
  -7  10 -15    6.80    2.90
   7  10  15    6.90    3.30
   9 -11 -15    2.10    2.50
   9 -11 -15    3.70    3.60
   9  11 -15    0.90    2.70
   8 -11 -15   -0.10    2.30
   8 -11 -15    0.00    3.00
   8  11 -15    1.40    2.40
   8  11 -15    1.70    2.90
   7 -11 -15    0.10    2.70
   7 -11 -15   -1.00    2.30
   7  11 -15    3.80    2.30
   7  11 -15    0.60    2.70
   6 -11 -15    4.60    2.80
   6  11 -15    0.60    1.80
  -6  11  15    5.40    2.90
   6  11 -15    5.00    2.80
   6  11 -15    0.90    1.90
   5 -11 -15    2.10    2.70
   5  11 -15    0.90    1.20
  -5  11  15    0.60    2.30
   5  11 -15   -0.50    1.20
   5  11 -15    0.00    2.40
   4 -11 -15   22.60    4.10
   4  11 -15   21.10    1.80
  -4  11  15   20.30    3.80
   4  11 -15   22.30    4.20
   3 -11 -15    7.90    3.30
  -3  11  15    7.70    2.90
   3  11 -15    5.00    2.70
   2 -11 -15    0.80    2.60
  -2  11  15    4.10    2.60
   2  11 -15    4.50    2.80
   1 -11 -15    3.40    2.70
  -1  11  15   -0.10    2.00
   1  11 -15   -0.60    2.60
   0 -11 -15    6.20    2.80
   0  11  15    2.00    2.20
   0  11 -15    8.00    2.90
  -1 -11 -15    7.00    3.10
  -1  11 -15    5.80    2.90
   1  11  15    3.50    2.50
  -2 -11 -15   27.10    4.70
   2  11  15   21.70    3.80
  -2  11 -15   28.10    4.40
  -3 -11 -15   36.50    5.00
   3  11  15   41.30    5.30
  -3  11 -15   38.30    5.00
  -4 -11 -15    6.10    2.90
  -4  11 -15    9.30    3.00
   4  11  15   12.50    3.50
  -5 -11 -15    2.50    2.60
  -5  11 -15   -1.60    1.80
   5  11  15    3.70    2.90
  -6 -11 -15    4.60    2.90
   6  11  15    3.80    3.00
  -6  11 -15    5.30    2.60
   8 -12 -15   -1.40    2.30
   8 -12 -15    5.10    3.30
   8  12 -15   -0.10    2.70
   8  12 -15   -1.50    2.30
   7 -12 -15    8.90    3.70
   7  12 -15   10.80    3.70
   7  12 -15    6.50    2.40
   6 -12 -15   17.30    4.20
  -6  12  15   11.40    3.90
   6  12 -15   11.30    2.20
   5 -12 -15    1.60    2.80
   5  12 -15    3.10    1.50
   5  12 -15    4.20    2.90
  -5  12  15    7.30    3.40
   5  12 -15    1.50    1.40
   4 -12 -15    0.80    2.50
   4  12 -15   -0.40    0.90
   4  12 -15   -0.30    2.40
   3 -12 -15    4.40    3.10
   3  12 -15    7.80    3.20
  -3  12  15    5.90    2.90
   2 -12 -15    9.70    3.30
   2  12 -15    4.10    2.80
  -2  12  15    8.80    3.20
   1 -12 -15   -0.10    2.50
   1  12 -15    4.20    2.80
  -1  12  15   -0.10    2.20
   0 -12 -15    2.00    2.70
   0  12  15   -0.60    2.10
   0  12 -15    6.60    3.00
  -1 -12 -15    0.90    2.70
   1  12  15   -0.50    2.10
  -1  12 -15   -1.50    2.40
  -2 -12 -15   18.60    4.10
   2  12  15   22.40    6.30
  -2  12 -15   13.20    3.50
  -3 -12 -15    0.90    2.60
   3  12  15    3.80    2.50
  -3  12 -15    4.70    2.90
  -4  12 -15   11.50    3.40
   4  12  15    8.20    3.10
  -5 -12 -15   -3.80    2.30
   5  12  15   -3.40    2.30
  -6 -12 -15    2.70    3.00
  -6  12 -15    0.00    2.60
   6  12  15    1.00    3.00
   7 -13 -15    5.60    3.40
   7 -13 -15    6.70    3.40
   7  13 -15   10.30    3.60
   7  13 -15    7.10    2.30
  -7  13  15    4.20    3.20
   6 -13 -15    7.00    3.30
  -6  13  15    5.80    3.60
   6  13 -15    1.00    3.00
   6  13 -15    3.50    1.80
   5 -13 -15    4.60    3.00
   5  13 -15    5.60    1.50
   5  13 -15    4.90    3.30
  -5  13  15    4.20    3.10
   4 -13 -15    1.60    2.70
  -4  13  15   -1.10    3.00
   4  13 -15    3.30    3.10
   3 -13 -15   14.70    4.10
   3  13 -15   18.30    4.10
  -3  13  15   16.50    4.10
   2 -13 -15   -2.20    2.90
  -2  13  15    5.10    3.10
   2  13 -15    3.00    3.40
   1 -13 -15   -2.30    2.80
   1  13 -15   -2.40    2.90
  -1  13  15   -0.30    2.70
   0 -13 -15    1.70    3.30
   0  13  15    3.10    2.60
   0  13 -15    1.50    3.30
  -1 -13 -15    2.80    2.70
   1  13  15    3.30    2.80
  -1  13 -15    4.90    3.10
  -2 -13 -15   12.60    3.70
   2  13  15   12.90    3.40
  -2  13 -15   16.40    3.80
  -3 -13 -15   11.20    4.00
   3  13  15   15.40    3.80
  -3  13 -15   12.40    3.60
  -4 -13 -15   -2.40    2.50
  -4  13 -15   -6.60    1.90
   4  13  15    6.90    3.30
  -5 -13 -15   -3.10    2.50
  -5  13 -15   -0.10    2.30
   5  13  15   -1.70    2.70
   6 -14 -15   43.80    5.80
  -6  14  15   35.20    5.80
   6  14 -15   27.30    3.10
   6  14 -15   36.40    5.60
   5 -14 -15    6.70    3.30
  -5  14  15    6.10    3.50
   5  14 -15    2.90    1.40
   5  14 -15    7.40    3.70
   4 -14 -15    8.90    3.60
   4  14 -15    9.00    3.50
  -4  14  15   -0.30    3.00
   3 -14 -15   19.80    4.50
  -3  14  15   29.50    5.00
   3  14 -15   18.80    4.50
   2 -14 -15    2.20    3.20
  -2  14  15    1.40    2.90
   2  14 -15    7.30    3.40
   1 -14 -15   52.69    6.30
   1  14 -15   42.20    5.60
  -1  14  15   49.99    5.70
   0 -14 -15    2.50    3.00
   0  14 -15    1.40    3.00
   0  14  15    3.10    2.80
  -1 -14 -15   11.40    3.90
   1  14  15   13.40    4.20
  -1  14 -15    8.00    3.30
  -2 -14 -15   39.60    5.80
  -2  14 -15   33.80    5.10
   2  14  15   34.10    5.00
  -3 -14 -15   34.00    5.30
  -3  14 -15   38.20    5.40
   3  14  15   31.50    5.20
  -4 -14 -15   41.30    5.90
   4  14  15   49.80    6.10
  -4  14 -15   62.99    6.80
   5 -15 -15    3.50    3.00
   5  15 -15    5.70    3.60
  -5  15  15   -2.50    3.20
   4 -15 -15    9.90    3.80
  -4  15  15   14.20    4.10
   4  15 -15   29.10    5.70
   3 -15 -15   15.60    4.30
   3  15 -15   13.50    4.50
  -3  15  15   10.30    3.70
   2 -15 -15   33.90    5.40
  -2  15  15   33.40    5.00
   2  15 -15   42.00    6.00
   1 -15 -15    7.60    3.50
  -1  15  15    8.40    3.40
   1  15 -15   10.70    3.90
   0 -15 -15    2.10    3.10
   0  15 -15    8.50    3.70
   0  15  15    2.00    2.60
  -1 -15 -15    0.80    2.90
  -1  15 -15    7.80    3.60
   1  15  15    6.90    3.30
  -2 -15 -15   14.60    4.10
  -2  15 -15   20.70    4.60
   2  15  15   22.00    4.50
  -3 -15 -15   30.10    5.30
  -3  15 -15   41.70    5.60
   3  15  15   33.60    5.10
   3 -16 -15   -2.30    2.80
  -3  16  15    0.80    3.50
   3  16 -15   -0.80    3.30
   2 -16 -15    7.60    3.70
  -2  16  15    5.90    3.50
   2  16 -15    7.30    3.90
   1 -16 -15   49.10    6.60
   1  16 -15   50.49    6.50
  -1  16  15   56.39    6.80
   0 -16 -15    6.70    3.60
   0  16  15    5.00    3.10
   0  16 -15   11.10    3.80
  -1 -16 -15    6.20    3.60
   1  16  15    5.40    3.50
  -1  16 -15    4.10    3.30
  11   0 -16   14.40    4.30
  11   0 -16    3.50    2.20
  10   0 -16   35.00    4.10
   9   0 -16   25.30    4.40
   9   0 -16   27.40    3.90
   8   0 -16  195.18    9.40
   8   0 -16  208.08   10.10
   7   0 -16   14.90    3.20
   7   0 -16   17.00    3.40
   6   0 -16  101.19    6.40
   6   0 -16  112.59    6.20
   5   0 -16   93.89    5.40
   5   0 -16   86.39    5.90
   4   0 -16    4.50    2.30
   4   0 -16    3.40    1.70
   4   0 -16    4.20    1.50
  -3   0  16  162.98    7.00
   3   0 -16  165.08    8.20
   3   0 -16  155.08    6.70
  -2   0  16   12.90    2.20
   2   0 -16   12.30    3.00
   1   0 -16  357.26   12.50
   1   0 -16  347.57   14.00
  -1   0  16  366.86   12.50
   0   0  16   33.60    2.60
   0   0 -16   32.40    2.60
   0   0 -16   35.60    4.40
  -1   0 -16  155.98    7.60
  -1   0 -16  183.08    8.60
   1   0  16  190.88    7.20
   2   0  16   26.90    2.80
  -2   0 -16   21.40    3.30
  -2   0 -16   23.40    2.80
  -3   0 -16    0.60    1.70
   3   0  16    3.30    1.50
  -3   0 -16    0.50    1.10
  -4   0 -16  441.56   16.70
   4   0  16  453.95   15.90
  -5   0 -16    7.70    2.30
   5   0  16    5.60    2.00
   6   0  16   39.80    4.30
  -6   0 -16   47.90    4.90
  -7   0 -16   40.90    3.90
   7   0  16   40.40    4.50
  -8   0 -16    7.00    2.20
   8   0  16    6.00    2.30
   9   0  16    3.60    2.20
  11  -1 -16    5.10    2.40
  11  -1 -16    5.90    3.20
  11   1 -16    7.50    3.50
  11   1 -16    1.00    2.10
  10  -1 -16   21.80    3.30
  10  -1 -16   16.30    3.90
  10   1 -16   18.90    5.40
  10   1 -16   13.50    2.90
   9  -1 -16   -4.20    2.20
   9  -1 -16    1.90    2.10
   9   1 -16    0.20    2.50
   9   1 -16    1.50    2.20
   8  -1 -16    3.00    2.30
   8  -1 -16    5.20    2.80
   8   1 -16    2.50    2.20
   8   1 -16   -0.50    2.10
   7  -1 -16   54.59    4.90
   7  -1 -16   47.90    4.60
   7   1 -16   59.69    5.00
   7   1 -16   52.79    4.80
   6  -1 -16    2.60    2.10
   6  -1 -16    4.80    2.40
   6   1 -16    5.10    2.10
   6   1 -16    0.40    2.20
   5  -1 -16  179.68    8.20
   5  -1 -16  186.48    8.90
   5   1 -16  170.68    8.60
   5   1 -16  178.38    8.00
   4  -1 -16    0.10    2.00
   4   1 -16    1.50    1.20
   4   1 -16    0.60    2.00
   4   1 -16    3.30    1.60
  -4   1  16    1.20    1.60
   3  -1 -16  321.87   11.80
   3  -1 -16  318.57   13.10
   3   1 -16  339.17   11.70
  -3   1  16  319.77   12.10
   3   1 -16  331.07   13.30
   2  -1 -16  182.18    7.80
  -2  -1  16  197.58    7.70
   2  -1 -16  208.98    9.30
  -2   1  16  192.68    8.00
   2   1 -16  187.88    7.50
   2   1 -16  211.98    9.40
  -1  -1  16  298.87   10.70
   1  -1 -16  303.17   11.20
   1  -1 -16  321.97   12.70
   1   1 -16  308.37   10.80
  -1   1  16  297.67   11.10
   1   1 -16  311.67   12.60
   0  -1 -16  509.85   17.80
   0  -1  16  531.15   17.20
   0  -1 -16  533.05   19.20
   0   1 -16  553.94   19.40
   0   1 -16  516.55   17.40
   0   1  16  525.75   17.70
   1  -1  16  368.46   12.50
  -1  -1 -16  357.06   13.10
  -1  -1 -16  369.46   14.40
   1   1  16  367.36   12.90
  -1   1 -16  372.16   12.70
  -1   1 -16  366.36   14.40
  -2  -1 -16  366.16   13.40
  -2  -1 -16  383.76   14.50
   2  -1  16  371.16   12.70
  -2   1 -16  354.56   12.80
   2   1  16  358.16   13.10
  -2   1 -16  370.46   14.40
  -3  -1 -16    0.00    1.70
   3  -1  16    3.40    1.40
  -3   1 -16    0.30    1.70
  -3   1 -16    0.70    1.20
   3   1  16    4.00    1.70
  -4  -1 -16  298.27   12.20
   4  -1  16  291.47   11.00
  -4   1 -16  281.27   12.00
   4   1  16  299.07   11.40
   5  -1  16   36.80    3.30
  -5  -1 -16   43.10    4.80
   5   1  16   38.90    4.20
  -5   1 -16   35.10    4.20
   6  -1  16  157.88    7.60
  -6  -1 -16  151.08    7.80
  -6   1 -16  162.98    7.90
   6   1  16  159.38    7.90
   7  -1  16   57.99    4.60
  -7  -1 -16   62.89    4.80
  -7   1 -16   73.79    4.90
   7   1  16   61.99    4.90
  -8  -1 -16   35.00    3.90
   8  -1  16   28.10    4.00
   8   1  16   26.40    4.10
  -8   1 -16   38.60    3.70
   9  -1  16   53.89    7.00
   9   1  16   57.29    5.30
  11  -2 -16    1.40    1.90
  11  -2 -16   -1.70    2.60
  11   2 -16   -0.80    1.80
  11   2 -16    3.10    3.20
  10  -2 -16   11.80    3.70
  10  -2 -16   17.50    3.30
  10   2 -16   10.60    3.00
  10   2 -16   19.30    4.20
   9  -2 -16   21.50    3.40
   9  -2 -16   18.80    4.00
   9   2 -16   23.30    4.10
   9   2 -16   15.50    3.20
   8  -2 -16  223.18   10.80
   8  -2 -16  218.68   10.20
   8   2 -16  236.08   10.60
   8   2 -16  221.38   10.30
   7  -2 -16   -3.50    1.80
   7  -2 -16    0.70    2.20
   7   2 -16    1.30    1.90
   7   2 -16   -2.30    2.00
   6  -2 -16  200.08    9.40
   6  -2 -16  209.78    9.80
   6   2 -16  214.88    9.80
   6   2 -16  206.18   10.00
   5  -2 -16   32.70    4.10
   5  -2 -16   32.90    3.80
   5   2 -16   29.50    4.00
   5   2 -16   25.50    3.50
   5   2 -16   31.30    3.40
   4  -2 -16  111.89    6.50
   4   2 -16   98.49    6.30
   4   2 -16  107.99    5.30
   4   2 -16   98.29    4.90
   3  -2 -16   54.19    4.60
   3   2 -16   52.19    4.60
   3   2 -16   53.89    3.30
   3   2 -16   44.50    3.00
  -3   2  16   47.50    3.70
   2  -2 -16   81.69    4.60
   2  -2 -16   92.19    5.80
   2   2 -16   87.39    4.10
  -2   2  16   84.79    4.70
   2   2 -16   92.49    5.80
   1  -2 -16  221.38    9.20
  -1  -2  16  247.98    8.60
   1  -2 -16  229.38   10.30
  -1   2  16  231.48    9.20
   1   2 -16  239.18    8.50
   1   2 -16  245.98   10.60
   0  -2 -16   31.20    3.30
   0  -2 -16   25.20    3.60
   0  -2  16   26.80    2.10
   0   2  16   29.00    2.80
   0   2 -16   28.30    2.10
   0   2 -16   25.10    3.60
  -1  -2 -16   20.50    3.40
  -1  -2 -16   20.30    2.70
   1  -2  16   20.30    1.90
   1   2  16   26.90    3.00
  -1   2 -16   24.30    3.50
  -1   2 -16   21.60    2.20
  -2  -2 -16    2.60    2.10
   2  -2  16    3.50    1.10
   2   2  16    0.40    1.30
  -2   2 -16    0.90    1.70
  -2   2 -16    1.00    1.00
   3  -2  16  106.19    4.80
  -3  -2 -16  104.19    6.20
  -3   2 -16   99.09    6.10
   3   2  16   98.99    6.00
  -3   2 -16   99.49    4.90
  -4  -2 -16   75.99    5.30
   4  -2  16   70.99    4.10
  -4   2 -16   67.19    4.10
  -4   2 -16   69.69    5.00
   4   2  16   69.69    4.60
  -5  -2 -16   45.50    4.80
   5  -2  16   39.50    3.30
  -5   2 -16   46.50    4.70
   5   2  16   38.70    3.80
   6  -2  16   65.99    4.50
  -6  -2 -16   63.89    5.00
  -6   2 -16   67.79    4.90
   6   2  16   61.89    4.90
  -7  -2 -16   33.60    4.20
   7  -2  16   31.00    3.90
   7   2  16   33.00    4.30
  -7   2 -16   43.00    4.60
   8  -2  16   68.19    5.10
  -8  -2 -16   67.59    4.90
   8   2  16   69.49    6.80
  -8   2 -16   66.39    4.70
  -9  -2 -16   14.20    2.80
   9  -2  16   12.40    3.20
   9   2  16   14.00    3.30
  11  -3 -16    2.90    2.10
  11  -3 -16    5.50    3.70
  11   3 -16   -0.50    1.90
  11   3 -16   -1.80    2.90
  10  -3 -16    1.50    2.80
  10  -3 -16    4.80    2.40
  10   3 -16    6.20    2.60
  10   3 -16   -0.70    2.90
   9  -3 -16    4.20    2.60
   9  -3 -16    0.30    2.50
   9   3 -16    2.00    2.90
   9   3 -16    2.30    2.40
   8  -3 -16   13.20    3.50
   8  -3 -16   15.40    3.80
   8   3 -16   17.10    3.40
   8   3 -16   13.70    3.40
   7  -3 -16   23.30    3.90
   7  -3 -16   14.10    3.20
   7   3 -16   23.60    3.70
   7   3 -16   21.10    3.50
   6  -3 -16    3.00    2.30
   6  -3 -16    6.90    2.60
   6   3 -16    4.60    2.00
   6   3 -16    4.90    2.50
   5  -3 -16   27.90    3.90
   5  -3 -16   22.40    3.60
   5   3 -16   25.40    3.80
   5   3 -16   21.40    2.70
   5   3 -16   32.00    3.40
   4  -3 -16  113.99    6.70
   4   3 -16  123.99    5.60
   4   3 -16  103.29    5.60
  -4   3  16  118.49    6.30
   4   3 -16  124.39    6.90
   3  -3 -16   77.39    5.40
   3   3 -16   70.19    3.60
   3   3 -16   73.49    3.90
   3   3 -16   67.09    5.20
   2  -3 -16   70.59    5.20
   2   3 -16   73.79    3.50
  -2   3  16   74.49    4.50
   2   3 -16   66.19    5.10
   2   3 -16   80.09    3.60
   1  -3 -16   11.80    2.90
  -1  -3  16   14.60    1.70
   1   3 -16   18.80    3.20
  -1   3  16   13.40    2.30
   1   3 -16   15.20    1.70
   0  -3  16   88.49    3.70
   0  -3 -16   92.09    5.80
   0   3  16   87.09    4.80
   0   3 -16   90.29    5.80
   0   3 -16   83.19    3.70
  -1  -3 -16   85.49    5.70
   1  -3  16   85.69    3.70
  -1   3 -16   85.99    3.70
   1   3  16   80.79    4.70
  -1   3 -16   89.09    5.70
   2  -3  16   11.70    1.60
  -2  -3 -16    8.40    2.70
  -2   3 -16    6.20    2.30
  -2   3 -16   10.70    1.60
   2   3  16   11.20    2.70
  -3  -3 -16    6.40    2.50
   3  -3  16    8.20    1.70
   3   3  16    7.10    2.10
  -3   3 -16    7.80    1.50
  -3   3 -16    8.80    2.60
   4  -3  16   14.00    2.10
  -4  -3 -16    5.90    2.50
   4   3  16    9.10    2.30
  -4   3 -16    8.90    2.50
  -4   3 -16    7.30    1.70
  -5  -3 -16   32.60    4.20
   5  -3  16   36.60    3.10
   5   3  16   41.00    4.70
  -5   3 -16   40.50    4.50
  -6  -3 -16    2.60    2.10
   6  -3  16    3.80    1.70
  -6   3 -16    5.50    2.30
   6   3  16    1.40    1.80
   7  -3  16   76.59    4.90
  -7  -3 -16   67.69    5.20
   7   3  16   67.39    5.50
  -7   3 -16   72.69    5.10
  -8  -3 -16    2.10    1.90
   8  -3  16    4.90    2.10
   8   3  16    1.60    2.00
  -8   3 -16    3.80    2.00
  11  -4 -16    7.50    3.60
  11  -4 -16    6.60    2.60
  11   4 -16    3.70    2.20
  11   4 -16    8.20    3.70
  10  -4 -16   11.20    3.00
  10  -4 -16   10.40    3.90
  10   4 -16   20.00    4.20
  10   4 -16   16.20    3.30
   9  -4 -16    2.30    3.10
   9  -4 -16    3.30    2.50
   9   4 -16    3.60    2.90
   9   4 -16    3.00    2.50
   8  -4 -16  101.79    6.70
   8  -4 -16  108.89    7.40
   8   4 -16  119.49    7.10
   8   4 -16  113.39    6.80
   7  -4 -16   16.50    3.40
   7  -4 -16   21.40    3.70
   7   4 -16   17.30    3.10
   7   4 -16   14.80    3.20
   6  -4 -16  106.59    6.50
   6  -4 -16   99.99    6.50
   6   4 -16  101.19    5.80
   6   4 -16  110.09    6.70
   5  -4 -16   17.20    3.20
  -5   4  16   14.50    3.00
   5   4 -16   14.70    2.30
   5   4 -16   13.30    3.10
   5   4 -16   16.90    2.50
   4  -4 -16   11.80    2.80
   4   4 -16   13.90    3.10
   4   4 -16   13.90    2.10
  -4   4  16   11.80    2.60
   4   4 -16   13.70    2.00
   3  -4 -16  158.78    8.00
   3   4 -16  146.59    5.90
   3   4 -16  157.78    6.20
   3   4 -16  159.08    8.10
  -3   4  16  151.58    7.40
   2  -4 -16  184.48    8.70
   2   4 -16  171.98    6.30
  -2   4  16  175.18    7.90
   2   4 -16  174.48    6.30
   2   4 -16  167.18    8.60
   1  -4 -16   48.50    4.50
   1   4 -16   52.79    2.60
   1   4 -16   55.19    2.90
   1   4 -16   59.89    4.80
   0  -4 -16   87.09    5.80
   0   4 -16   83.79    5.60
  -1  -4 -16    0.00    1.70
  -1   4 -16    0.20    1.70
  -1   4 -16    1.20    0.80
   1   4  16    2.20    1.50
   2  -4  16   61.39    2.90
  -2  -4 -16   63.99    5.00
  -2   4 -16   63.09    4.90
  -2   4 -16   61.09    2.90
   2   4  16   66.69    4.40
   3  -4  16    1.10    1.00
  -3  -4 -16   -0.40    1.80
  -3   4 -16    1.60    1.90
   3   4  16   -0.80    1.40
  -3   4 -16    2.50    1.00
  -4  -4 -16   25.70    3.90
   4  -4  16   19.80    2.30
   4   4  16   21.60    3.20
  -4   4 -16   17.40    3.20
  -4   4 -16   20.50    2.30
   5  -4  16   73.49    4.10
  -5  -4 -16   73.69    5.40
  -5   4 -16   66.49    4.00
  -5   4 -16   80.89    5.40
   5   4  16   69.89    5.10
  -6  -4 -16   13.90    3.10
   6   4  16   11.10    2.70
  -6   4 -16    8.20    2.50
   7  -4  16   26.90    3.50
  -7  -4 -16   21.20    3.60
  -7   4 -16   18.80    3.20
   7   4  16   16.60    3.60
   8  -4  16   57.09    4.50
  -8  -4 -16   46.50    4.90
  -8   4 -16   47.50    4.20
   8   4  16   44.50    5.40
  11  -5 -16    2.90    3.40
  11  -5 -16    3.00    2.40
  11   5 -16    5.80    2.60
  11   5 -16    6.90    3.40
  10  -5 -16   -0.10    2.20
  10  -5 -16    0.50    3.00
  10   5 -16    1.40    2.30
  10   5 -16    4.70    3.00
   9  -5 -16    8.80    3.10
   9  -5 -16   10.10    3.60
   9   5 -16   11.90    3.30
   9   5 -16   12.30    3.40
   8  -5 -16    7.70    3.20
   8  -5 -16    6.00    2.80
   8   5 -16    7.60    2.70
   8   5 -16    4.30    2.60
   7  -5 -16    7.40    3.20
   7  -5 -16    6.30    2.70
   7   5 -16   11.00    2.70
   7   5 -16   10.60    2.90
   6  -5 -16    8.40    2.70
   6  -5 -16    6.10    2.40
   6   5 -16    6.70    2.30
   6   5 -16    4.00    2.50
   5  -5 -16   27.50    3.90
   5   5 -16   23.60    2.90
  -5   5  16   25.10    3.80
   5   5 -16   20.30    3.60
   5   5 -16   17.90    2.40
   4  -5 -16   26.90    3.90
   4   5 -16   27.90    2.50
   4   5 -16   30.10    4.10
   4   5 -16   24.80    2.20
  -4   5  16   27.50    3.70
   3  -5 -16  155.68    8.10
  -3   5  16  152.88    7.50
   3   5 -16  153.08    8.20
   3   5 -16  157.88    6.00
   3   5 -16  147.99    5.70
   2  -5 -16   34.20    4.30
   2   5 -16   35.70    4.40
  -2   5  16   37.90    4.00
   2   5 -16   36.40    2.00
   2   5 -16   41.10    2.90
   1  -5 -16   70.79    5.30
  -1   5  16   75.79    4.70
   1   5 -16   64.59    5.20
   0  -5 -16   28.00    3.90
   0   5 -16   34.90    4.20
   0   5  16   31.50    3.50
  -1  -5 -16   18.30    3.30
   1   5  16   17.40    2.80
  -1   5 -16   12.80    2.90
  -2  -5 -16  132.79    7.60
   2  -5  16  145.69    4.80
   2   5  16  150.58    7.20
  -2   5 -16  135.99    4.80
  -2   5 -16  142.19    7.70
   3  -5  16   40.70    2.20
  -3  -5 -16   46.80    5.10
  -3   5 -16   42.30    2.30
  -3   5 -16   36.30    4.40
   3   5  16   39.40    4.20
   4  -5  16   88.99    4.00
  -4  -5 -16   91.49    6.00
   4   5  16   81.59    5.50
  -4   5 -16   80.79    5.70
  -4   5 -16   81.79    3.90
  -5  -5 -16    4.10    2.30
   5  -5  16    4.30    1.50
  -5   5 -16    5.50    1.90
  -5   5 -16    3.40    2.00
   5   5  16    4.40    2.10
  -6  -5 -16    0.60    2.10
   6  -5  16    3.50    1.60
  -6   5 -16    1.30    1.90
   6   5  16    7.60    2.60
  -7  -5 -16   -1.60    2.00
   7  -5  16   -0.10    1.40
  -7   5 -16    1.10    1.90
   8  -5  16    1.90    1.90
  -8  -5 -16    5.10    2.40
  -8   5 -16    1.90    1.90
   8   5  16    3.70    2.40
  10  -6 -16    5.30    3.40
  10  -6 -16    3.90    2.80
  10   6 -16    1.50    2.30
  10   6 -16    1.20    2.80
   9  -6 -16   -3.60    2.60
   9  -6 -16   -2.00    2.10
   9   6 -16    0.80    2.30
   9   6 -16   -2.50    2.10
   8  -6 -16    1.90    2.30
   8  -6 -16    7.00    3.00
   8   6 -16    4.00    2.50
   8   6 -16    4.40    2.60
   7  -6 -16   20.60    3.80
   7  -6 -16   20.90    3.60
   7   6 -16   20.90    3.80
   7   6 -16   19.40    3.20
   6  -6 -16   19.40    3.60
   6  -6 -16   16.10    3.30
   6   6 -16   13.10    3.40
  -6   6  16   19.50    3.60
   6   6 -16   15.10    2.60
   5  -6 -16   51.19    5.00
  -5   6  16   59.29    5.00
   5   6 -16   56.79    5.20
   5   6 -16   55.49    3.70
   4  -6 -16    1.90    2.10
   4   6 -16   -0.70    1.00
   4   6 -16    1.30    1.00
  -4   6  16    0.00    1.70
   4   6 -16    1.00    2.10
   3  -6 -16  135.39    7.40
   3   6 -16  125.29    4.90
   3   6 -16  123.79    7.40
  -3   6  16  128.89    6.80
   3   6 -16  121.39    4.70
   2  -6 -16   26.00    3.80
   2   6 -16   21.70    3.80
  -2   6  16   17.70    2.90
   1  -6 -16    7.60    2.60
   1   6 -16    7.70    2.50
  -1   6  16    4.60    2.10
   0  -6 -16   10.60    2.80
   0   6  16    8.30    2.40
   0   6 -16    4.60    2.30
  -1  -6 -16   78.29    5.80
  -1   6 -16   98.79    6.20
   1   6  16   88.69    5.40
  -2  -6 -16   38.90    4.60
  -2   6 -16   34.50    4.40
   2   6  16   37.80    4.20
   3  -6  16    0.90    0.60
  -3  -6 -16    3.00    2.30
   3   6  16    1.70    1.80
  -3   6 -16    0.60    2.00
   4  -6  16    8.50    1.40
  -4  -6 -16    6.10    2.50
   4   6  16    9.00    2.60
  -4   6 -16    6.10    2.40
   5  -6  16    5.30    1.40
  -5  -6 -16    2.30    2.30
   5   6  16    0.60    1.80
  -5   6 -16    3.80    1.30
  -5   6 -16    2.40    2.10
  -6  -6 -16    1.50    2.20
   6  -6  16    0.70    1.30
  -6   6 -16    1.10    2.00
   6   6  16    0.40    1.80
  -6   6 -16   -0.60    1.20
   7  -6  16    1.10    1.60
  -7  -6 -16   -1.90    2.20
   7   6  16    1.50    2.30
  -7   6 -16    2.80    2.10
  -8  -6 -16   10.10    2.90
   8  -6  16   11.50    2.70
  -8   6 -16   17.00    3.10
   8   6  16   14.50    3.40
  10  -7 -16    2.60    3.20
  10  -7 -16   -0.90    2.40
  10   7 -16    5.80    3.20
  10   7 -16    0.80    2.30
   9  -7 -16   13.70    3.80
   9  -7 -16   13.40    3.40
   9   7 -16   15.30    3.50
   9   7 -16   10.10    3.20
   8  -7 -16    7.50    4.20
   8  -7 -16    7.90    2.90
   8   7 -16    6.40    2.80
   8   7 -16    7.80    2.90
   7  -7 -16    3.10    2.50
   7  -7 -16    2.20    2.50
   7   7 -16    1.00    1.90
   7   7 -16    0.40    2.50
   6  -7 -16    5.20    2.60
   6   7 -16    4.10    1.90
   6   7 -16    2.50    2.40
  -6   7  16    1.40    2.20
   5  -7 -16    3.60    2.30
   5   7 -16    3.00    1.40
   5   7 -16    1.00    2.30
   5   7 -16    5.90    1.60
  -5   7  16    6.80    2.80
   4  -7 -16   20.20    3.60
   4   7 -16   11.80    1.80
   4   7 -16   12.80    3.30
  -4   7  16   14.30    3.50
   4   7 -16   13.90    1.80
   3  -7 -16   77.19    5.70
   3   7 -16   73.29    5.80
  -3   7  16   67.39    5.10
   3   7 -16   69.49    2.90
   2  -7 -16   68.79    5.50
   2   7 -16   64.39    5.40
  -2   7  16   79.09    5.20
   1  -7 -16   38.60    4.80
  -1   7  16   32.70    3.90
   1   7 -16   33.50    4.30
   0  -7 -16    4.00    2.20
   0   7 -16    4.10    2.20
   0   7  16    3.10    1.80
  -1  -7 -16    5.80    2.80
  -1   7 -16    8.20    2.80
   1   7  16    9.10    2.60
  -2  -7 -16    4.10    2.40
   2   7  16    4.80    2.10
  -2   7 -16    4.10    2.30
  -3  -7 -16   -0.30    2.10
  -3   7 -16    0.90    1.80
   3   7  16    0.80    2.00
   4  -7  16   19.80    2.40
  -4  -7 -16   20.70    3.80
   4   7  16   23.00    3.50
  -4   7 -16   22.30    3.70
  -5  -7 -16   -0.40    2.00
   5  -7  16    0.30    1.00
   5  -7  16   -0.50    1.00
   5   7  16   -1.10    1.70
  -5   7 -16    2.80    2.00
  -6  -7 -16    1.40    2.30
   6  -7  16    2.20    1.40
  -6   7 -16    2.20    2.20
  -7  -7 -16   11.20    3.20
  -7   7 -16   19.80    3.40
   7   7  16   16.80    3.80
  -8  -7 -16   -0.80    2.30
   8  -7  16    2.50    1.90
  -8   7 -16    1.00    2.00
   8   7  16    5.10    2.90
  10  -8 -16    4.50    2.90
  10  -8 -16    7.00    3.80
  10   8 -16    3.00    2.90
  10   8 -16    5.90    2.70
   9  -8 -16    0.10    2.40
   9  -8 -16    1.00    2.70
   9   8 -16    1.70    2.50
   9   8 -16    0.60    2.50
   8  -8 -16   64.79    5.60
   8  -8 -16   53.99    6.20
   8   8 -16   51.09    5.60
   8   8 -16   67.29    5.20
   7  -8 -16   -0.90    2.20
   7  -8 -16    0.00    2.50
   7   8 -16    0.10    1.80
   7   8 -16    1.30    2.30
   6  -8 -16  103.59    6.80
   6   8 -16  101.39    6.90
  -6   8  16  100.19    6.90
   6   8 -16   88.29    5.10
   6   8 -16   73.59    4.70
   5  -8 -16   49.30    5.30
   5   8 -16   39.50    3.00
   5   8 -16   49.60    3.30
  -5   8  16   52.39    5.10
   5   8 -16   52.79    5.60
   4  -8 -16   74.69    5.90
   4   8 -16   71.09    3.40
   4   8 -16   68.19    5.80
   4   8 -16   66.49    3.30
  -4   8  16   77.89    5.60
   3  -8 -16   48.70    5.30
  -3   8  16   51.49    4.70
   3   8 -16   44.50    5.40
   2  -8 -16   32.90    4.50
   2   8 -16   23.10    3.80
  -2   8  16   29.60    3.90
   1  -8 -16  250.47   11.50
   1   8 -16  264.37   11.80
  -1   8  16  252.77   10.90
   0  -8 -16   28.70    4.40
   0   8  16   18.70    3.40
   0   8 -16   22.60    3.90
  -1  -8 -16  122.69    7.30
   1   8  16  122.79    6.80
  -1   8 -16  108.69    7.10
  -2  -8 -16   21.90    4.00
  -2   8 -16   33.20    4.50
   2   8  16   29.90    4.20
  -3  -8 -16   82.09    6.20
   3   8  16   90.69    6.00
  -3   8 -16   98.99    6.50
  -4  -8 -16    2.10    2.30
  -4   8 -16    2.80    2.20
   4   8  16    1.00    2.00
  -5  -8 -16   98.69    6.70
   5  -8  16   75.59    3.60
   5  -8  16   86.09    3.60
  -5   8 -16   96.49    6.30
   5   8  16   90.59    6.40
  -6  -8 -16   -0.10    2.30
   6  -8  16   -0.10    1.10
  -6   8 -16    1.10    2.00
   6   8  16    0.20    2.30
  -7  -8 -16  102.99    7.00
   7  -8  16   95.29    5.10
  -7   8 -16  105.59    6.50
   7   8  16  106.69    7.40
   9  -9 -16    0.80    3.30
   9  -9 -16    3.60    2.60
   9   9 -16    2.90    2.70
   9   9 -16    2.80    2.70
   8  -9 -16    2.30    3.30
   8  -9 -16    6.00    2.90
   8   9 -16    1.90    2.40
   8   9 -16   -0.80    2.50
   7  -9 -16   10.00    3.40
   7  -9 -16   10.40    3.30
   7   9 -16    7.90    3.10
   7   9 -16    4.50    2.20
   6  -9 -16   15.00    3.50
   6   9 -16   12.30    2.20
   6   9 -16   17.20    2.70
  -6   9  16   16.20    4.00
   6   9 -16   18.00    3.90
   5  -9 -16   14.60    3.60
   5   9 -16   13.90    2.10
   5   9 -16   17.70    3.70
   5   9 -16   11.80    1.90
  -5   9  16   14.30    3.50
   4  -9 -16   65.29    5.50
   4   9 -16   56.99    2.80
  -4   9  16   54.99    5.20
   4   9 -16   53.39    2.80
   4   9 -16   72.89    5.90
   3  -9 -16  104.09    7.10
   3   9 -16  105.29    7.20
  -3   9  16  105.29    6.70
   2  -9 -16   15.00    3.40
  -2   9  16   24.00    3.80
   2   9 -16   24.30    4.20
   1  -9 -16    1.70    2.40
   1   9 -16    0.10    2.00
  -1   9  16    2.90    2.40
   0  -9 -16  113.09    7.30
   0   9  16  114.69    6.80
   0   9 -16  114.89    7.30
  -1  -9 -16   39.50    4.90
  -1   9 -16   43.70    5.10
   1   9  16   47.90    4.50
  -2  -9 -16   80.99    6.20
  -2   9 -16   83.19    6.30
   2   9  16   74.59    5.60
  -3  -9 -16    2.50    2.50
   3   9  16    8.00    2.90
  -3   9 -16    6.80    2.80
  -4  -9 -16   52.29    5.80
   4   9  16   43.20    5.00
  -4   9 -16   50.39    4.90
  -5  -9 -16    7.90    3.00
   5   9  16   13.80    3.40
  -5   9 -16    8.70    2.80
  -6  -9 -16    9.40    2.90
   6  -9  16    9.20    1.60
   6   9  16    7.00    2.90
  -6   9 -16   10.10    3.00
   7  -9  16   42.70    3.20
  -7  -9 -16   43.80    5.50
  -7   9 -16   42.60    5.00
   7   9  16   39.90    5.50
   9 -10 -16   12.70    4.00
   9 -10 -16   15.40    3.70
   9  10 -16   17.90    4.20
   9  10 -16   11.40    3.30
   8 -10 -16   26.20    4.40
   8 -10 -16   23.60    4.80
   8  10 -16   22.10    3.60
   8  10 -16   20.30    4.20
   7 -10 -16   -1.40    2.60
   7 -10 -16   -0.10    2.50
   7  10 -16    0.40    2.00
   7  10 -16    1.60    2.70
   6 -10 -16   65.29    5.90
  -6  10  16   57.79    8.10
   6  10 -16   48.00    3.70
   6  10 -16   69.39    6.20
   6  10 -16   65.59    4.20
   5 -10 -16   18.20    3.70
   5  10 -16   14.40    3.60
   5  10 -16   11.40    1.90
  -5  10  16   19.80    4.00
   5  10 -16   13.80    2.00
   4 -10 -16   47.60    5.70
  -4  10  16   44.90    5.40
   4  10 -16   41.90    3.00
   4  10 -16   46.90    3.20
   4  10 -16   49.60    5.90
   3 -10 -16    9.10    3.10
   3  10 -16   12.10    3.50
  -3  10  16   13.20    3.20
   2 -10 -16   51.59    5.80
   2  10 -16   44.40    5.20
  -2  10  16   55.59    5.10
   1 -10 -16  167.78    9.20
  -1  10  16  176.18    8.80
   1  10 -16  167.28    9.30
   0 -10 -16   52.39    5.80
   0  10  16   35.80    4.40
   0  10 -16   44.80    5.30
  -1 -10 -16   37.40    4.90
   1  10  16   58.09    5.10
  -1  10 -16   55.99    5.40
  -2 -10 -16   15.10    3.70
  -2  10 -16   12.80    3.40
   2  10  16   13.40    3.10
  -3 -10 -16  117.59    7.70
   3  10  16  108.69    7.10
  -3  10 -16  108.99    7.30
  -4 -10 -16    0.50    2.40
   4  10  16    4.50    2.50
  -4  10 -16    6.40    2.70
  -5 -10 -16   49.50    6.00
   5  10  16   44.30    5.50
  -5  10 -16   42.90    5.10
  -6 -10 -16    1.00    2.30
  -6  10 -16   -2.20    1.70
   6  10  16   -0.90    2.40
   8 -11 -16    3.20    3.40
   8  11 -16   -1.80    2.00
   8  11 -16    2.80    2.90
   7 -11 -16   90.49    7.50
   7 -11 -16   95.69    7.50
   7  11 -16   89.69    5.50
   6 -11 -16    4.90    2.70
   6  11 -16    0.30    1.60
   6  11 -16    6.10    3.40
   6  11 -16    1.50    1.60
  -6  11  16    2.80    2.70
   5 -11 -16   60.19    5.80
  -5  11  16   52.79    6.40
   5  11 -16   44.40    2.90
   5  11 -16   56.59    6.20
   5  11 -16   46.10    3.00
   4 -11 -16   51.49    5.70
  -4  11  16   42.60    5.50
   4  11 -16   49.30    5.80
   3 -11 -16  111.49    7.80
   3  11 -16  132.49    8.30
  -3  11  16  119.49    7.60
   2 -11 -16   54.59    6.00
  -2  11  16   48.00    5.80
   2  11 -16   51.59    6.00
   1 -11 -16  109.39    7.50
   1  11 -16  116.19    7.80
  -1  11  16  114.39    7.20
   0 -11 -16  109.39    7.50
   0  11 -16  110.49    7.50
   0  11  16  104.99    6.90
  -1 -11 -16  112.59    7.60
  -1  11 -16  115.19    7.70
   1  11  16  108.09    7.10
  -2 -11 -16   83.89    6.80
  -2  11 -16   89.09    6.80
   2  11  16   91.89    6.60
  -3 -11 -16    9.00    3.10
  -3  11 -16    0.80    2.50
   3  11  16    5.00    2.80
  -4 -11 -16   41.90    5.40
  -4  11 -16   57.09    5.50
   4  11  16   48.90    5.60
  -5  11 -16    4.30    2.60
   5  11  16    4.00    2.70
  -6 -11 -16   29.80    5.00
   6  11  16   23.90    4.50
   8 -12 -16   21.50    4.40
   8 -12 -16   30.10    5.50
   8  12 -16   20.40    3.60
   8  12 -16   27.40    4.70
   7 -12 -16   12.40    3.70
   7 -12 -16    4.70    3.20
   7  12 -16    1.10    2.90
   7  12 -16    8.80    2.50
  -7  12  16   10.00    3.80
   6 -12 -16    2.70    2.90
   6  12 -16    4.90    3.20
  -6  12  16   -4.90    2.40
   6  12 -16    6.20    1.90
   5 -12 -16   33.10    6.40
   5  12 -16   26.90    2.30
   5  12 -16   24.30    2.20
  -5  12  16   21.90    4.60
   5  12 -16   29.00    4.90
  -4  12  16   40.90    5.40
   4  12 -16   49.20    9.10
   3 -12 -16    1.80    3.50
   2 -12 -16   19.60    4.50
  -2  12  16   23.90    5.20
   2  12 -16   26.90    5.30
   1 -12 -16   46.30    6.30
  -1  12  16   42.70    5.30
   1  12 -16   43.30    5.90
   0 -12 -16    0.70    3.30
   0  12  16    2.20    3.20
   0  12 -16    3.10    3.20
   1  12  16   15.30    3.80
  -1  12 -16   10.40    4.40
  -2 -12 -16   -5.40    3.90
   2  12  16   -1.00    3.30
  -3 -12 -16   19.20    4.50
  -3  12 -16   38.70    5.80
   3  12  16   35.00    5.10
  -4 -12 -16    1.00    2.90
   4  12  16   -1.20    2.60
  -4  12 -16    0.20    2.20
  -5 -12 -16    2.10    2.80
  -5  12 -16   -1.50    2.20
   5  12  16   -0.30    2.70
   7 -13 -16   19.50    4.50
  -7  13  16   20.70    4.70
   7  13 -16   23.20    4.60
   7  13 -16   17.30    2.80
   6 -13 -16    5.10    3.20
   6  13 -16    0.70    1.50
  -6  13  16   -2.90    2.60
   6  13 -16    4.90    3.40
   5 -13 -16   58.99    6.70
   5  13 -16   42.40    2.60
   5  13 -16   43.60    5.80
  -5  13  16   52.89    6.40
   4 -13 -16    9.20    3.50
   4  13 -16   10.10    3.80
  -4  13  16   11.50    3.80
   3 -13 -16   34.50    5.30
   3  13 -16   28.40    5.00
  -3  13  16   31.70    4.80
   2 -13 -16   19.50    4.70
   2  13 -16   25.20    4.90
  -2  13  16   28.10    4.80
   1 -13 -16   65.39    6.30
   1  13 -16   70.99    6.60
  -1  13  16   57.69    5.70
   0 -13 -16   34.00    5.30
   0  13 -16   31.00    4.90
   0  13  16   40.90    5.30
  -1 -13 -16   40.60    5.80
   1  13  16   37.60    5.50
  -1  13 -16   41.30    5.60
  -2 -13 -16   50.29    6.20
   2  13  16   62.09    5.90
  -2  13 -16   49.00    5.80
  -3 -13 -16    5.60    3.40
  -3  13 -16    6.80    3.30
   3  13  16    4.00    3.10
  -4 -13 -16   25.10    4.70
  -4  13 -16   31.20    4.80
   4  13  16   29.90    4.80
   6 -14 -16   10.40    3.80
   6  14 -16    4.10    3.50
   6  14 -16    5.40    1.70
  -6  14  16    9.90    4.00
   5 -14 -16    4.80    3.20
   5  14 -16   10.30    3.80
  -5  14  16    4.90    3.40
   4 -14 -16   20.80    4.40
   4  14 -16   35.40    5.40
  -4  14  16   19.10    4.70
   3 -14 -16   18.90    4.40
  -3  14  16   20.10    4.30
   3  14 -16   22.30    4.50
   2 -14 -16   33.10    5.30
   2  14 -16   30.70    5.10
  -2  14  16   35.30    5.00
   1 -14 -16   33.30    5.20
  -1  14  16   27.40    4.70
   1  14 -16   25.40    4.60
   0 -14 -16   -1.60    2.50
   0  14  16   -0.70    2.40
   0  14 -16    2.40    2.90
  -1 -14 -16   81.69    7.20
  -1  14 -16   95.89    7.50
   1  14  16   75.29    6.60
  -2 -14 -16   40.20    6.10
  -2  14 -16   41.60    5.80
   2  14  16   33.80    5.20
  -3 -14 -16   17.50    4.30
  -3  14 -16   23.40    4.50
   3  14  16   19.50    4.50
   4 -15 -16    7.00    3.60
   4  15 -16    8.60    3.60
  -4  15  16    2.80    3.30
   3 -15 -16    4.20    3.00
   3  15 -16   -0.90    2.90
  -3  15  16    0.20    3.00
   2 -15 -16    5.00    3.30
  -2  15  16    5.10    3.40
   2  15 -16    4.40    3.60
   1 -15 -16    1.80    3.10
  -1  15  16   -1.70    2.90
   1  15 -16    0.80    2.90
   0 -15 -16    6.00    3.70
   0  15 -16    6.50    3.40
   0  15  16    4.90    3.20
  -1 -15 -16    4.30    3.30
   1  15  16    4.80    3.10
  -1  15 -16    6.30    3.50
  -2 -15 -16    1.20    3.20
   2  15  16    2.50    2.90
  -2  15 -16    3.90    3.20
  11   0 -17    0.00    2.00
  11   0 -17    0.90    3.00
  10   0 -17    2.00    2.90
  10   0 -17    2.70    2.30
   9   0 -17    2.70    2.80
   9   0 -17   -2.10    1.80
   8   0 -17    1.90    2.10
   8   0 -17    2.00    2.50
   7   0 -17    0.80    2.00
   7   0 -17   -1.30    1.90
   6   0 -17    3.40    2.30
   6   0 -17    3.40    2.10
   5   0 -17   -0.50    1.80
   5   0 -17    0.20    1.90
   4   0 -17    1.00    1.60
   4   0 -17   -1.50    1.70
  -3   0  17   -2.10    1.20
   3   0 -17   -0.10    1.90
   3   0 -17    0.50    1.10
   2   0 -17    0.80    1.10
   2   0 -17    0.10    1.90
  -2   0  17    1.10    1.40
   1   0 -17    1.70    1.80
  -1   0  17    1.70    1.30
   1   0 -17    1.10    2.00
   0   0  17    3.20    1.30
   0   0 -17    3.30    2.10
  -1   0 -17   -0.80    1.10
   1   0  17   -0.80    0.90
  -1   0 -17   -0.10    1.70
  -2   0 -17   -2.80    1.60
   2   0  17    1.30    1.20
  -2   0 -17    0.00    1.10
   3   0  17    0.00    1.20
  -3   0 -17   -2.60    1.60
  -4   0 -17    1.00    1.90
   4   0  17   -0.90    1.20
  -5   0 -17   -1.50    1.60
   5   0  17   -2.20    1.10
   6   0  17    0.60    1.50
  -6   0 -17   -0.70    1.60
  -7   0 -17   -1.60    1.50
   7   0  17   -0.20    1.60
  -8   0 -17   -0.20    1.70
   8   0  17    2.20    1.90
  11  -1 -17    7.10    2.60
  11  -1 -17    4.40    3.50
  11   1 -17   -1.60    2.90
  11   1 -17    5.70    2.50
  10  -1 -17    4.50    2.90
  10  -1 -17    7.90    2.60
  10   1 -17    9.40    4.30
  10   1 -17    8.30    2.80
   9  -1 -17    1.80    2.40
   9  -1 -17    2.00    2.90
   9   1 -17    2.70    2.20
   9   1 -17   -0.20    2.50
   8  -1 -17    1.10    2.30
   8  -1 -17    0.60    2.00
   8   1 -17   -1.90    2.10
   8   1 -17   -0.30    2.00
   7  -1 -17   10.70    2.80
   7  -1 -17    6.80    2.60
   7   1 -17    6.40    2.60
   7   1 -17    8.10    2.70
   6  -1 -17    0.90    2.20
   6  -1 -17    0.70    2.10
   6   1 -17   -0.70    2.10
   6   1 -17    4.70    2.20
   5  -1 -17    3.30    2.10
   5  -1 -17    5.20    2.40
   5   1 -17    1.60    2.00
   5   1 -17    3.80    1.80
   4  -1 -17   87.39    6.00
   4   1 -17   94.49    5.10
  -4   1  17   90.89    5.40
   4   1 -17   83.99    4.70
   4   1 -17  102.59    6.30
   3  -1 -17    4.90    2.30
   3   1 -17    6.30    1.50
   3   1 -17    5.50    2.60
  -3   1  17    8.60    2.10
   3   1 -17    7.20    1.80
  -2  -1  17   67.99    3.80
   2  -1 -17   66.39    5.10
   2  -1 -17   59.29    3.80
   2   1 -17   59.29    5.00
   2   1 -17   62.09    3.50
  -2   1  17   65.39    4.10
   1  -1 -17    2.10    1.30
  -1  -1  17    5.80    1.50
   1  -1 -17    4.90    2.10
   1   1 -17    4.20    1.30
  -1   1  17    4.60    1.50
   1   1 -17    3.70    2.10
   0  -1 -17   14.10    3.00
   0  -1  17   14.80    2.00
   0  -1 -17   13.00    2.20
   0   1 -17   14.10    2.90
   0   1 -17   12.30    1.90
   0   1  17    8.70    1.90
  -1  -1 -17    4.50    1.50
  -1  -1 -17    3.80    2.10
   1  -1  17    3.10    1.20
  -1   1 -17    2.40    1.20
  -1   1 -17    5.50    2.10
   1   1  17    2.10    1.30
  -2  -1 -17   13.20    3.00
   2  -1  17   16.20    2.20
  -2   1 -17   11.90    2.80
   2   1  17   20.40    2.60
   3  -1  17    0.40    1.20
  -3  -1 -17    1.40    2.00
  -3   1 -17    1.00    1.20
  -3   1 -17   -0.60    1.80
   3   1  17   -2.40    1.30
  -4  -1 -17   14.40    3.10
   4  -1  17   14.40    2.40
  -4   1 -17   14.20    3.10
   4   1  17   14.50    2.50
  -5  -1 -17   20.00    3.60
   5  -1  17   18.20    2.80
  -5   1 -17   16.10    3.20
   5   1  17   16.90    2.90
   6  -1  17   17.90    3.00
  -6  -1 -17   15.20    2.90
  -6   1 -17   14.10    2.90
   6   1  17   17.90    3.10
   7  -1  17    4.30    2.10
  -7  -1 -17    5.30    2.20
  -7   1 -17    5.40    2.30
   7   1  17    4.30    2.10
  -8  -1 -17    3.90    2.10
   8  -1  17    4.50    2.20
  -8   1 -17    2.20    1.90
   8   1  17    2.80    2.40
  11  -2 -17   15.30    4.10
  11  -2 -17    9.40    2.70
  11   2 -17   17.70    4.60
  11   2 -17    7.80    2.70
  10  -2 -17    3.10    2.40
  10  -2 -17    3.40    3.00
  10   2 -17    2.40    2.30
   9  -2 -17  119.19    7.10
   9  -2 -17  124.89    8.10
   9   2 -17  109.59    7.00
   9   2 -17  124.49    7.90
   8  -2 -17    7.40    2.90
   8  -2 -17    6.90    2.70
   8   2 -17   15.30    3.40
   8   2 -17    8.60    2.80
   7  -2 -17    7.20    2.70
   7  -2 -17   11.30    3.10
   7   2 -17   11.40    3.00
   7   2 -17    9.50    2.90
   6  -2 -17   97.09    6.30
   6  -2 -17   78.69    5.70
   6   2 -17   84.69    6.10
   6   2 -17   81.99    5.40
   5  -2 -17   54.19    4.40
   5  -2 -17   60.39    5.00
   5   2 -17   52.59    4.80
   5   2 -17   54.29    4.10
   4  -2 -17    4.40    2.30
  -4   2  17    4.80    2.10
   4   2 -17    1.70    1.50
   4   2 -17    5.90    1.70
   4   2 -17    1.90    2.00
   3  -2 -17    0.10    1.90
   3   2 -17   -0.50    1.10
  -3   2  17    0.00    1.50
   3   2 -17    2.10    2.20
   3   2 -17   -0.90    0.90
   2  -2 -17   72.99    5.30
  -2   2  17   61.49    4.10
   2   2 -17   56.89    3.30
   2   2 -17   69.89    5.30
  -1  -2  17    2.80    1.20
   1  -2 -17    0.00    1.70
   1   2 -17    1.10    1.90
  -1   2  17    1.00    1.30
   1   2 -17    0.20    0.90
   0  -2  17    0.80    1.00
   0  -2 -17    1.00    1.90
   0   2 -17    2.30    1.10
   0   2  17    3.30    1.50
   0   2 -17    1.80    1.90
   1  -2  17  128.49    5.20
  -1  -2 -17  127.59    7.20
  -1   2 -17  120.29    5.30
   1   2  17  124.29    6.00
  -1   2 -17  130.99    7.20
   2  -2  17  229.88    8.50
  -2  -2 -17  246.08   10.70
  -2   2 -17  223.68    8.70
  -2   2 -17  227.78   10.50
   2   2  17  238.88   10.20
  -3  -2 -17   36.70    4.40
   3  -2  17   29.40    2.50
  -3   2 -17   38.50    4.50
   3   2  17   39.00    4.00
   4  -2  17   21.40    2.70
  -4  -2 -17   26.40    4.10
  -4   2 -17   21.50    2.70
   4   2  17   25.50    3.30
  -4   2 -17   28.70    4.10
  -5  -2 -17   92.09    6.10
   5   2  17   89.29    5.60
  -5   2 -17   96.19    6.00
   6  -2  17   51.89    4.10
  -6  -2 -17   50.79    4.60
  -6   2 -17   48.80    4.50
   6   2  17   53.49    4.50
   7  -2  17   37.00    4.20
  -7  -2 -17   37.50    4.40
   7   2  17   42.00    4.80
  -7   2 -17   33.60    4.10
  -8  -2 -17    2.90    2.20
   8  -2  17    1.10    1.80
  -8   2 -17    0.30    1.80
   8   2  17   -2.50    1.60
  11  -3 -17   10.10    2.90
  11  -3 -17   11.30    3.90
  11   3 -17   18.30    4.70
  11   3 -17   17.20    3.50
  10  -3 -17    8.60    2.70
  10  -3 -17    1.30    2.90
  10   3 -17    9.60    4.10
  10   3 -17    5.30    2.70
   9  -3 -17   28.50    4.10
   9  -3 -17   21.10    4.60
   9   3 -17   23.70    4.10
   9   3 -17   15.70    3.80
   8  -3 -17    4.00    2.70
   8  -3 -17    3.00    2.50
   8   3 -17    1.70    2.50
   8   3 -17    4.70    2.50
   7  -3 -17   51.69    5.60
   7  -3 -17   47.80    5.20
   7   3 -17   47.10    5.20
   7   3 -17   56.99    4.70
   6  -3 -17   20.70    3.60
   6  -3 -17   21.50    3.70
   6   3 -17   19.70    3.50
   5  -3 -17   14.20    3.00
   5  -3 -17   13.50    3.00
   5   3 -17   11.50    3.00
   5   3 -17   10.10    1.90
   5   3 -17   15.20    2.60
   4  -3 -17   -1.00    1.70
   4   3 -17   -1.70    1.20
   4   3 -17    4.50    2.30
  -4   3  17    1.90    1.80
   4   3 -17    0.70    1.20
   3  -3 -17    8.20    2.70
   3   3 -17    8.70    2.60
   3   3 -17    8.50    1.60
  -3   3  17   11.20    2.40
   3   3 -17   12.50    2.00
   2  -3 -17  175.48    8.60
   2   3 -17  159.88    8.50
   2   3 -17  171.58    6.50
   2   3 -17  161.38    6.30
   1  -3 -17   33.30    4.10
   1   3 -17   31.50    2.20
   1   3 -17   34.90    4.20
  -1   3  17   31.80    3.50
   0  -3 -17    6.20    2.40
   0  -3  17    7.50    1.30
   0   3  17    9.80    2.10
   0   3 -17    8.90    2.60
   0   3 -17    7.20    1.30
   1  -3  17   54.59    2.80
  -1  -3 -17   58.29    4.90
   1   3  17   61.39    4.60
  -1   3 -17   56.79    2.90
  -1   3 -17   51.29    4.70
   2  -3  17   57.59    3.00
  -2  -3 -17   61.99    5.10
  -2   3 -17   58.39    4.90
   2   3  17   60.39    4.10
  -2   3 -17   54.49    3.10
  -3  -3 -17   51.39    4.90
   3  -3  17   67.69    3.50
  -3   3 -17   63.19    5.00
   3   3  17   63.79    4.40
  -3   3 -17   60.99    3.50
  -4  -3 -17   57.49    5.00
   4  -3  17   65.89    3.70
  -4   3 -17   59.89    3.70
  -4   3 -17   63.49    5.00
   4   3  17   61.89    4.60
  -5  -3 -17   -0.80    1.80
   5  -3  17    0.30    1.20
  -5   3 -17    0.50    1.70
   5   3  17   -0.20    1.50
  -6  -3 -17   89.39    6.00
   6  -3  17   87.39    5.10
  -6   3 -17   90.89    5.90
   6   3  17   84.59    5.80
  -7  -3 -17    0.40    1.90
   7  -3  17    3.30    2.00
  -7   3 -17    3.40    2.00
   7   3  17    6.10    2.40
  -8  -3 -17   39.70    4.50
   8  -3  17   37.80    4.50
   8   3  17   42.80    5.20
  -8   3 -17   45.40    4.10
  10  -4 -17   11.80    3.70
  10  -4 -17    4.30    2.60
  10   4 -17    6.10    2.80
  10   4 -17    8.30    3.60
   9  -4 -17   14.90    3.90
   9  -4 -17   13.40    3.30
   9   4 -17   12.70    3.40
   9   4 -17   11.00    3.20
   8  -4 -17   61.09    5.80
   8  -4 -17   46.80    5.30
   8   4 -17   42.80    5.00
   8   4 -17   55.99    5.10
   7  -4 -17   13.30    3.10
   7  -4 -17   19.20    3.70
   7   4 -17   18.20    3.30
   7   4 -17   16.90    3.60
   6  -4 -17   98.69    6.50
   6  -4 -17   93.39    6.40
   6   4 -17  105.19    5.70
   6   4 -17  100.59    6.60
   5  -4 -17   18.50    3.60
   5   4 -17   15.40    2.60
  -5   4  17   18.00    3.30
   5   4 -17   14.70    3.20
   5   4 -17   12.90    2.10
   4  -4 -17   16.60    3.20
  -4   4  17   17.70    3.10
   4   4 -17   15.60    3.10
   4   4 -17   14.50    2.20
   4   4 -17   11.80    1.90
   3  -4 -17   50.69    4.70
   3   4 -17   48.50    4.80
   3   4 -17   46.90    2.80
  -3   4  17   54.19    4.30
   3   4 -17   52.49    3.10
   2  -4 -17   57.69    4.80
   2   4 -17   53.09    2.80
   2   4 -17   54.49    4.90
  -2   4  17   56.49    4.20
   2   4 -17   50.59    2.70
   1  -4 -17    2.10    1.90
  -1   4  17    2.50    1.60
   1   4 -17    0.30    2.00
   1   4 -17    2.80    0.80
   0  -4 -17   25.10    3.80
   0   4 -17   30.90    4.10
   0   4 -17   27.00    2.50
   0   4  17   30.00    3.50
  -1  -4 -17  146.19    7.80
   1  -4  17  158.18    6.40
   1   4  17  148.09    7.00
  -1   4 -17  135.59    5.20
  -1   4 -17  140.49    7.80
   2  -4  17   98.19    4.00
  -2  -4 -17   94.59    6.30
   2   4  17  106.69    5.70
  -2   4 -17  102.09    6.40
  -2   4 -17   88.79    3.90
  -3  -4 -17   28.40    4.30
   3  -4  17   28.70    2.20
  -3   4 -17   25.60    3.80
  -3   4 -17   27.50    2.20
   3   4  17   37.80    4.10
   4  -4  17    6.70    1.50
  -4  -4 -17    5.20    2.50
  -4   4 -17    6.10    1.50
  -4   4 -17    6.90    2.40
   4   4  17   11.50    2.60
  -5  -4 -17   48.20    4.70
   5  -4  17   47.60    3.30
  -5   4 -17   49.70    4.50
   5   4  17   46.90    4.30
  -5   4 -17   38.70    3.10
   6  -4  17    6.20    2.20
  -6  -4 -17    9.70    3.00
  -6   4 -17    8.30    2.50
   6   4  17    9.10    2.60
  -7  -4 -17  140.99    7.80
   7  -4  17  137.89    6.90
  -7   4 -17  136.39    7.40
  -8  -4 -17    2.50    2.10
   8  -4  17    2.50    1.90
  -8   4 -17    1.70    2.00
   8   4  17    5.40    2.70
  10  -5 -17   35.10    4.70
  10  -5 -17   28.50    5.40
  10   5 -17   22.50    3.80
  10   5 -17   39.00    5.40
   9  -5 -17    7.00    3.50
   9  -5 -17    4.40    2.80
   9   5 -17   10.40    3.20
   9   5 -17    9.40    3.20
   8  -5 -17   36.40    5.10
   8  -5 -17   25.30    4.20
   8   5 -17   44.60    5.00
   8   5 -17   49.99    5.30
   7  -5 -17   60.69    5.50
   7  -5 -17   56.39    5.50
   7   5 -17   68.79    5.10
   7   5 -17   69.79    5.70
   6  -5 -17  125.19    7.40
   6  -5 -17  124.99    7.50
   6   5 -17  132.89    7.70
   6   5 -17  128.69    6.50
   5  -5 -17   95.99    6.50
   5   5 -17  110.39    6.90
  -5   5  17   89.89    6.20
   5   5 -17   92.59    4.90
   5   5 -17  105.29    5.30
   4  -5 -17    9.20    2.90
   4   5 -17    7.90    1.80
  -4   5  17    4.30    2.20
   4   5 -17   13.30    3.20
   4   5 -17    7.30    1.60
   3  -5 -17  369.36   14.70
  -3   5  17  360.56   13.90
   3   5 -17  362.16   14.80
   3   5 -17  355.76   11.90
   3   5 -17  351.56   12.00
   2  -5 -17   53.59    4.90
   2   5 -17   48.10    2.60
   2   5 -17   50.99    2.60
   2   5 -17   46.90    5.20
  -2   5  17   47.10    4.10
   1  -5 -17  134.29    7.60
  -1   5  17  137.49    6.80
   1   5 -17  124.59    7.50
   0  -5 -17   28.70    4.40
   0   5 -17   26.80    4.10
   0   5  17   30.60    3.80
  -1  -5 -17  123.69    7.30
  -1   5 -17  122.99    7.30
   1   5  17  121.39    6.40
  -2  -5 -17   71.69    5.50
   2  -5  17   64.89    2.60
  -2   5 -17   66.79    2.70
   2   5  17   68.09    4.70
  -2   5 -17   65.99    5.30
   3  -5  17   43.90    2.40
  -3  -5 -17   56.29    4.90
  -3   5 -17   55.59    4.90
  -3   5 -17   45.80    2.50
   3   5  17   49.90    4.20
  -4  -5 -17  142.39    8.10
   4  -5  17  151.58    5.80
  -4   5 -17  139.19    5.80
   4   5  17  150.98    7.70
  -4   5 -17  147.39    8.00
   5  -5  17   45.20    3.10
  -5  -5 -17   48.00    5.20
  -5   5 -17   34.70    3.30
  -5   5 -17   48.40    4.50
   5   5  17   48.50    4.50
  -6  -5 -17  146.39    8.20
   6  -5  17  156.68    6.80
   6   5  17  152.68    8.30
  -6   5 -17  144.79    8.00
  -7  -5 -17    2.50    2.20
   7  -5  17    1.00    1.60
   7   5  17    3.10    2.20
  -7   5 -17    1.40    1.90
   8  -5  17  219.68    9.80
  -8  -5 -17  230.38   10.50
  -8   5 -17  227.28   10.10
   8   5  17  215.98   11.20
  10  -6 -17    6.30    3.10
  10  -6 -17   10.50    3.90
  10   6 -17    6.00    2.80
  10   6 -17   14.50    3.80
   9  -6 -17    2.90    2.60
   9  -6 -17    6.90    3.60
   9   6 -17    6.30    3.00
   9   6 -17    6.70    2.90
   8  -6 -17   44.00    5.20
   8   6 -17   53.99    5.00
   8   6 -17   55.99    5.30
   7  -6 -17   -0.70    2.20
   7  -6 -17    0.70    2.40
   7   6 -17    3.40    2.00
   7   6 -17    1.50    2.40
   6  -6 -17   93.29    6.40
   6   6 -17   89.39    6.60
  -6   6  17   84.79    6.40
   6   6 -17   86.49    5.10
   5  -6 -17    1.30    2.10
   5   6 -17   -1.20    2.10
   5   6 -17   -2.00    1.20
  -5   6  17    3.20    2.20
   5   6 -17    1.60    2.30
   4  -6 -17  122.09    7.30
  -4   6  17  119.99    6.90
   4   6 -17  119.29    5.10
   4   6 -17  110.89    4.90
   4   6 -17  122.69    7.40
   3  -6 -17    5.10    2.60
   3   6 -17    9.10    3.00
   3   6 -17    7.20    1.30
   3   6 -17    6.60    1.20
  -3   6  17    8.90    2.40
   2  -6 -17   32.30    4.50
   2   6 -17   33.30    4.60
  -2   6  17   43.60    4.00
   1  -6 -17  243.98   11.10
   1   6 -17  243.68   11.20
  -1   6  17  244.88   10.40
   0  -6 -17    3.20    2.20
   0   6 -17    1.80    2.00
   0   6  17    0.70    1.60
  -1  -6 -17   50.19    4.90
   1   6  17   55.29    4.40
  -1   6 -17   58.19    5.00
  -2  -6 -17   14.30    3.20
  -2   6 -17   14.90    3.10
   2   6  17   23.70    3.30
  -3  -6 -17  224.98   10.60
   3   6  17  222.38    9.90
  -3   6 -17  210.28   10.30
  -4  -6 -17    1.00    2.20
   4  -6  17    1.30    0.90
   4   6  17    1.50    2.20
  -4   6 -17    3.40    2.00
   5  -6  17   46.20    2.90
  -5  -6 -17   44.40    5.20
  -5   6 -17   41.10    4.90
   5   6  17   42.70    4.70
  -5   6 -17   32.80    2.60
  -6  -6 -17    8.00    3.00
   6  -6  17    5.00    1.70
  -6   6 -17    6.70    2.00
   6   6  17    3.90    4.20
  -6   6 -17    7.90    2.70
   7  -6  17   15.50    2.60
  -7  -6 -17    9.00    3.00
   7   6  17   11.60    3.30
  -7   6 -17   15.90    3.10
  10  -7 -17   39.60    6.00
  10  -7 -17   26.90    4.50
  10   7 -17   29.20    4.90
  10   7 -17   27.90    4.40
   9  -7 -17   -1.00    2.40
   9  -7 -17    1.50    2.90
   9   7 -17    1.40    2.50
   9   7 -17   -0.10    2.40
   8  -7 -17   82.49    6.30
   8  -7 -17   71.79    6.60
   8   7 -17   78.49    6.30
   8   7 -17   81.39    5.80
   7  -7 -17    7.80    3.20
   7  -7 -17    6.10    3.00
   7   7 -17    6.00    2.40
   7   7 -17    1.30    2.40
   6  -7 -17   53.99    5.30
  -6   7  17   54.79    5.40
   6   7 -17   48.50    3.90
   6   7 -17   55.79    6.00
   5  -7 -17   82.49    6.20
   5   7 -17   71.09    4.00
   5   7 -17   86.79    6.40
   5   7 -17   77.99    4.30
  -5   7  17   83.09    6.10
   4  -7 -17   26.80    4.20
   4   7 -17   20.30    2.10
   4   7 -17   19.60    2.10
  -4   7  17   26.90    3.90
   4   7 -17   20.50    3.80
   3  -7 -17  134.39    7.80
   3   7 -17  129.09    4.50
   3   7 -17  129.69    7.80
   3   7 -17  127.89    4.60
  -3   7  17  139.59    7.40
   2  -7 -17   27.10    4.30
  -2   7  17   18.60    3.20
   2   7 -17   15.50    3.30
   1  -7 -17   54.69    5.00
  -1   7  17   46.40    4.30
   1   7 -17   48.00    5.40
   0  -7 -17   90.69    6.40
   0   7 -17   84.59    6.20
   0   7  17   85.19    5.60
  -1  -7 -17  130.59    7.70
  -1   7 -17  122.79    7.50
   1   7  17  126.29    7.00
  -2  -7 -17  106.09    6.90
  -2   7 -17  105.29    6.80
   2   7  17   94.89    6.10
  -3  -7 -17   81.59    6.20
  -3   7 -17   76.19    5.90
   3   7  17   79.09    5.60
   4  -7  17   98.69    3.90
  -4  -7 -17  119.99    7.30
  -4   7 -17  104.89    6.80
   4   7  17  111.19    6.80
   5  -7  17  114.19    4.70
   5  -7  17  101.09    4.60
  -5  -7 -17  124.49    7.50
  -5   7 -17  120.09    7.10
   5   7  17  119.69    7.20
   6  -7  17   40.60    3.00
  -6  -7 -17   44.20    5.50
  -6   7 -17   47.80    5.10
   6   7  17   40.80    5.00
  -7  -7 -17    0.90    2.50
   7   7  17    5.00    2.80
  -7   7 -17    4.40    2.30
   9  -8 -17   22.80    5.00
   9  -8 -17   21.00    4.20
   9   8 -17   10.10    3.30
   9   8 -17   16.00    3.50
   8  -8 -17   13.00    3.80
   8  -8 -17   13.40    3.40
   8   8 -17   10.60    3.20
   8   8 -17   11.20    3.20
   7  -8 -17   16.40    6.40
   7  -8 -17    7.60    3.30
   7   8 -17   11.40    3.40
   7   8 -17   12.80    2.80
   6  -8 -17   46.20    5.40
   6   8 -17   47.40    5.50
   6   8 -17   45.00    3.60
   6   8 -17   37.40    3.30
  -6   8  17   45.70    5.40
   5  -8 -17   23.00    4.20
   5   8 -17   19.70    3.90
   5   8 -17   18.50    2.20
   5   8 -17   16.10    2.20
  -5   8  17   18.20    3.70
   4  -8 -17   21.20    3.80
   4   8 -17   20.70    4.10
   4   8 -17   24.30    2.00
   4   8 -17   17.90    1.80
  -4   8  17   22.40    3.80
   3  -8 -17   -0.70    2.10
  -3   8  17    3.10    2.20
   3   8 -17   -0.10    2.30
   2  -8 -17   29.00    4.40
  -2   8  17   24.40    3.60
   2   8 -17   24.40    4.20
   1  -8 -17   56.89    5.80
   1   8 -17   62.89    5.50
  -1   8  17   56.29    4.70
   0  -8 -17   56.89    6.20
   0   8  17   46.00    4.40
   0   8 -17   43.20    5.10
  -1  -8 -17   35.10    4.70
   1   8  17   33.60    4.10
  -1   8 -17   26.40    4.30
  -2  -8 -17  149.49    8.40
  -2   8 -17  137.49    8.20
   2   8  17  136.59    7.60
  -3  -8 -17   83.09    6.30
  -3   8 -17   75.89    6.00
   3   8  17   71.49    5.60
  -4  -8 -17   12.10    3.40
   4   8  17   15.50    3.40
  -4   8 -17   13.30    3.30
  -5  -8 -17   93.89    6.80
   5  -8  17   86.39    4.00
   5   8  17   95.49    6.90
  -5   8 -17   95.39    6.50
  -6  -8 -17   25.90    4.30
   6  -8  17   27.20    2.40
   6   8  17   25.30    4.40
  -6   8 -17   29.30    4.20
   7  -8  17   13.70    2.20
  -7  -8 -17   14.90    3.80
  -7   8 -17   21.50    3.70
   7   8  17   19.80    4.00
   9  -9 -17    2.30    2.60
   9  -9 -17   -0.70    3.10
   9   9 -17    1.30    2.70
   9   9 -17   -0.50    2.50
   8  -9 -17    2.60    2.80
   8  -9 -17    0.00    2.70
   8   9 -17   -0.30    2.00
   8   9 -17    2.80    2.70
   7  -9 -17   18.30    4.20
   7  -9 -17   10.90    3.30
   7   9 -17    8.50    2.60
   7   9 -17   13.40    3.60
   6  -9 -17    1.30    2.50
   6   9 -17    2.30    2.60
  -6   9  17    1.50    4.40
   6   9 -17    2.10    1.50
   6   9 -17   -0.40    1.50
   5  -9 -17   13.90    3.50
   5   9 -17    9.90    1.80
   5   9 -17    6.80    1.50
   5   9 -17    9.30    3.10
  -5   9  17    7.20    3.00
   4  -9 -17    5.80    2.90
  -4   9  17    8.30    2.90
   4   9 -17   11.80    3.30
   4   9 -17    5.00    1.60
   4   9 -17    5.50    1.60
   3  -9 -17    1.30    2.30
  -3   9  17    5.20    2.60
   3   9 -17    4.70    2.80
   2  -9 -17   18.80    3.80
  -2   9  17   12.80    3.00
   2   9 -17   15.60    3.70
   1  -9 -17    7.00    3.00
  -1   9  17    5.40    2.30
   1   9 -17    4.10    2.80
   0  -9 -17   -0.40    2.20
   0   9  17    0.90    1.90
   0   9 -17    3.30    2.40
  -1  -9 -17    7.20    2.80
  -1   9 -17    7.50    2.90
   1   9  17    2.30    2.20
  -2  -9 -17   16.10    3.70
   2   9  17   20.90    3.70
  -2   9 -17   20.50    3.80
  -3  -9 -17    0.30    2.40
   3   9  17    3.20    2.30
  -3   9 -17    3.50    2.50
  -4  -9 -17    3.70    2.70
  -4   9 -17    7.90    2.80
  -5  -9 -17    6.90    3.10
   5   9  17    4.40    2.60
  -5   9 -17   10.40    3.10
  -6  -9 -17    2.40    2.50
   6  -9  17    1.10    1.20
  -6   9 -17    0.70    2.20
   6   9  17    3.50    2.70
   8 -10 -17    0.90    2.80
   8 -10 -17    1.80    3.40
   8  10 -17    2.30    2.40
   7 -10 -17   10.70    3.50
   7 -10 -17   13.30    3.80
   7  10 -17    8.30    2.50
   7  10 -17    8.90    3.70
   6 -10 -17    5.90    2.90
   6  10 -17    4.30    1.70
   6  10 -17   13.00    3.90
  -6  10  17   12.00    3.80
   6  10 -17    6.60    2.00
   5 -10 -17   19.10    4.10
   5  10 -17   18.90    2.10
  -5  10  17   18.70    5.10
   5  10 -17   19.50    2.10
   5  10 -17   16.40    3.90
   4 -10 -17   14.20    3.70
   4  10 -17   16.10    4.00
  -4  10  17   13.00    3.40
   3 -10 -17   -1.40    2.30
   3  10 -17    3.40    2.80
  -3  10  17    0.80    2.40
   2 -10 -17   60.79    5.90
   2  10 -17   53.59    6.00
  -2  10  17   58.59    5.40
   1 -10 -17   16.40    3.80
   1  10 -17   22.00    4.10
  -1  10  17   22.50    3.70
   0 -10 -17   46.70    5.40
   0  10  17   29.60    4.20
   0  10 -17   38.70    5.10
  -1 -10 -17    3.50    2.60
   1  10  17    2.30    2.20
  -1  10 -17    1.90    2.50
  -2 -10 -17  109.49    7.60
  -2  10 -17  111.89    7.50
   2  10  17  114.79    7.20
  -3 -10 -17    2.50    2.60
   3  10  17   -3.00    2.20
  -3  10 -17    8.70    3.10
  -4 -10 -17    8.90    3.40
  -4  10 -17   16.70    3.70
   4  10  17   12.40    3.20
  -5 -10 -17   33.40    5.80
  -5  10 -17   33.70    4.80
   5  10  17   26.40    4.30
  -6  10 -17    5.00    3.00
   6  10  17    7.70    3.10
   8 -11 -17    5.10    3.40
   8 -11 -17    0.40    2.70
   8  11 -17   -1.40    2.60
   8  11 -17   -3.50    2.00
   7 -11 -17    1.60    2.60
   7 -11 -17    2.90    3.10
   7  11 -17    1.30    2.40
   7  11 -17    2.00    3.00
   6 -11 -17   -0.90    3.10
   6  11 -17   -1.20    1.40
   6  11 -17   -2.40    2.70
  -6  11  17    0.60    2.90
   5  11 -17    1.60    1.10
  -5  11  17   -1.90    2.30
   5  11 -17   -0.10    1.10
   4 -11 -17    3.10    3.00
  -4  11  17    3.00    3.10
   4  11 -17   -0.40    2.70
   3 -11 -17    1.80    2.90
   3  11 -17    4.80    3.10
  -3  11  17    3.30    2.80
   2 -11 -17    0.00    2.40
  -2  11  17    1.30    2.60
   2  11 -17   -1.50    2.20
   1 -11 -17    2.80    2.70
  -1  11  17   -0.30    2.20
   1  11 -17    5.10    3.10
   0 -11 -17    0.40    2.50
   0  11 -17   -0.80    2.30
   0  11  17   -0.60    2.10
  -1 -11 -17   55.99    6.50
  -1  11 -17   51.39    5.90
   1  11  17   70.29    9.40
   2  11  17   10.70    2.90
  -2  11 -17   11.70    3.70
   3  11  17   10.30    3.20
  -4 -11 -17    9.20    3.50
  -4  11 -17    6.60    3.40
   4  11  17    5.80    3.00
  -5 -11 -17   10.20    3.50
   5  11  17    6.90    3.00
  -5  11 -17   10.90    3.10
   7 -12 -17    7.20    3.20
  -7  12  17   11.10    4.10
   7  12 -17   13.00    3.80
   6 -12 -17   10.90    3.80
   6  12 -17   12.60    4.00
  -6  12  17    8.80    3.50
   6  12 -17    7.70    1.90
   5 -12 -17    2.60    2.80
  -5  12  17   -2.10    2.70
   5  12 -17    0.10    2.80
   5  12 -17    3.50    1.90
   5  12 -17    2.60    1.40
   4 -12 -17   22.10    4.70
   4  12 -17   21.30    4.40
  -4  12  17   20.90    4.30
   3 -12 -17    2.00    2.80
  -3  12  17   -0.60    2.40
   3  12 -17    3.50    3.00
   2 -12 -17    5.20    3.40
  -2  12  17   17.60    4.10
   2  12 -17    9.60    3.80
   1 -12 -17    8.00    3.10
   1  12 -17    4.40    3.30
  -1  12  17    7.80    3.00
   0 -12 -17    0.80    2.60
   0  12 -17   -4.40    2.10
   0  12  17    0.20    2.60
  -1 -12 -17    5.00    3.00
  -1  12 -17    7.70    3.30
   1  12  17    4.80    2.60
  -2 -12 -17    3.20    3.00
   2  12  17    0.40    2.50
  -2  12 -17    3.50    2.80
  -3 -12 -17   34.00    5.30
   3  12  17   40.10    5.10
  -3  12 -17   54.39    6.10
  -4 -12 -17    3.40    3.10
   4  12  17    2.20    2.80
  -4  12 -17   -0.10    2.30
  -5 -12 -17   -0.50    2.70
   6 -13 -17    5.10    3.40
   6  13 -17   -0.50    1.40
   6  13 -17    2.10    3.10
  -6  13  17    0.00    3.00
   5 -13 -17    7.10    3.30
   5  13 -17   11.50    3.80
  -5  13  17    4.50    3.40
   4 -13 -17    7.90    3.20
  -4  13  17    7.90    3.30
   4  13 -17   11.90    3.80
   3 -13 -17   13.90    4.20
  -3  13  17   16.70    3.90
   3  13 -17    9.10    3.60
   2 -13 -17   -0.30    2.60
   2  13 -17    1.10    3.00
  -2  13  17    0.80    2.90
   1 -13 -17   -0.60    2.60
  -1  13  17    1.10    2.50
   1  13 -17    5.20    3.20
   0 -13 -17   12.90    3.70
   0  13  17   11.60    3.40
   0  13 -17    6.50    3.20
  -1 -13 -17   -1.10    2.60
   1  13  17    3.20    2.80
  -1  13 -17    6.60    3.20
  -2 -13 -17   27.80    5.10
   2  13  17   18.80    4.30
  -2  13 -17   23.20    4.70
  -3 -13 -17   16.40    4.20
   3  13  17   14.00    3.60
  -3  13 -17   11.80    3.70
  -4 -13 -17   -1.80    2.80
  -4  13 -17    0.20    2.50
   4  13  17   -5.70    2.30
   5 -14 -17   27.50    5.10
   5  14 -17   38.60    5.60
  -5  14  17   34.00    5.40
   4 -14 -17   10.50    3.90
  -4  14  17   10.40    3.90
   4  14 -17   10.90    3.80
   3 -14 -17   11.80    3.90
  -3  14  17   11.80    3.80
   3  14 -17    4.20    3.50
   2 -14 -17   36.90    5.70
  -2  14  17   29.90    4.80
   2  14 -17   39.50    5.70
   1 -14 -17   -3.50    3.00
  -1  14  17   -2.60    2.50
   1  14 -17   -1.90    2.60
   0 -14 -17    6.20    3.20
   0  14 -17    9.90    3.90
   0  14  17    8.90    3.50
  -1 -14 -17    1.50    3.00
  -1  14 -17    3.60    3.20
   1  14  17    6.40    3.20
  -2 -14 -17   26.60    5.10
   2  14  17   24.70    4.60
  -2  14 -17   22.20    4.60
   3 -15 -17    6.00    3.70
  -3  15  17    3.80    3.20
   3  15 -17   -2.30    2.90
   2 -15 -17   -1.30    3.00
  -2  15  17    5.00    3.40
   2  15 -17    4.60    3.40
   1 -15 -17   10.70    4.00
  -1  15  17    5.70    3.70
   1  15 -17    6.70    3.60
   0 -15 -17   26.70    5.40
   0  15  17   28.70    5.00
   0  15 -17   34.50    5.60
  -1 -15 -17   20.10    4.70
  -1  15 -17   25.50    4.80
   1  15  17   16.10    4.30
  11   0 -18    7.20    2.70
  11   0 -18   15.40    4.50
  10   0 -18    8.20    3.40
  10   0 -18   11.60    3.20
   9   0 -18   86.79    6.80
   9   0 -18   80.69    6.10
   8   0 -18    1.80    2.40
   8   0 -18    0.30    2.30
   7   0 -18    0.90    2.30
   7   0 -18    1.50    2.30
   6   0 -18   85.99    6.10
   6   0 -18   76.79    5.50
   5   0 -18    5.90    2.60
   5   0 -18    2.50    2.00
   4   0 -18  137.29    6.60
   4   0 -18  138.69    7.80
  -3   0  18   35.40    3.20
   3   0 -18   25.70    3.00
   3   0 -18   33.70    4.40
   2   0 -18  278.57   12.30
  -2   0  18  287.47   10.70
   2   0 -18  280.87   10.60
   1   0 -18   48.50    3.30
   1   0 -18   54.09    4.90
  -1   0  18   53.39    3.50
   0   0 -18  118.39    7.00
   0   0  18  108.29    5.20
   0   0 -18  107.49    5.30
  -1   0 -18   26.30    2.60
  -1   0 -18   33.10    4.50
   1   0  18   33.20    2.70
   2   0  18   73.39    4.10
  -2   0 -18   59.79    5.20
  -2   0 -18   72.19    4.30
   3   0  18   22.40    2.80
  -3   0 -18   21.90    3.70
  -4   0 -18  102.89    6.50
   4   0  18  100.19    5.40
  -5   0 -18   46.90    4.50
   5   0  18   49.70    4.00
   6   0  18   83.49    5.40
  -6   0 -18   83.69    5.90
   7   0  18   42.80    4.70
  -7   0 -18   23.90    3.80
  -8   0 -18    4.40    2.20
   8   0  18    1.00    1.90
  11  -1 -18   30.70    5.40
  11  -1 -18   22.30    3.70
  11   1 -18   19.90    3.70
  11   1 -18   22.10    4.90
  10  -1 -18   11.90    3.80
  10  -1 -18   14.30    3.20
  10   1 -18   12.90    3.80
  10   1 -18    9.70    3.10
   9  -1 -18  154.98    9.20
   9  -1 -18  154.58    8.50
   9   1 -18  163.28    8.60
   9   1 -18  153.88    9.00
   8  -1 -18   -1.20    2.20
   8  -1 -18    1.00    2.50
   8   1 -18   -1.10    2.20
   8   1 -18    3.70    2.60
   7  -1 -18   20.80    3.70
   7  -1 -18   14.00    3.20
   7   1 -18   11.30    3.10
   7   1 -18   10.40    2.90
   6  -1 -18   58.09    4.80
   6  -1 -18   50.39    5.50
   6   1 -18   55.09    5.20
   6   1 -18   57.39    4.60
   5  -1 -18   76.79    5.90
   5  -1 -18   76.49    5.20
   5   1 -18   76.99    5.80
   4  -1 -18   83.79    5.90
   4   1 -18   77.89    5.80
   4   1 -18   71.69    4.50
  -4   1  18   69.19    4.90
   3  -1 -18  122.49    7.30
   3   1 -18  116.79    7.20
   3   1 -18  125.39    5.70
  -3   1  18  120.19    6.10
   3   1 -18  114.09    5.50
   2  -1 -18  115.99    6.90
  -2  -1  18  103.69    5.20
  -2   1  18  109.29    5.60
   2   1 -18  101.69    6.70
   1  -1 -18  359.06   13.20
   1  -1 -18  374.76   14.90
  -1  -1  18  344.67   12.60
  -1   1  18  365.16   13.10
   1   1 -18  373.56   14.80
   1   1 -18  363.16   12.70
   0  -1 -18  129.49    7.20
   0  -1  18  108.79    5.00
   0  -1 -18  111.09    5.50
   0   1 -18  103.29    6.70
   0   1 -18  101.89    5.00
   0   1  18  117.99    5.50
  -1  -1 -18  270.67   11.90
   1  -1  18  269.17    9.80
  -1   1 -18  244.68   10.50
   1   1  18  280.17   10.30
  -1   1 -18  274.17   11.90
  -2  -1 -18    5.00    2.40
   2  -1  18    3.90    1.30
  -2   1 -18    3.20    2.40
   2   1  18    2.40    1.50
  -2   1 -18    2.40    1.30
   3  -1  18  340.27   12.30
  -3  -1 -18  346.77   14.10
   3   1  18  349.67   12.70
  -3   1 -18  347.87   14.10
  -3   1 -18  317.27   12.40
  -4  -1 -18    3.70    2.30
   4  -1  18    6.50    1.90
   4   1  18    9.50    2.20
  -4   1 -18    5.40    2.30
  -5  -1 -18  171.78    8.60
   5  -1  18  165.48    7.60
  -5   1 -18  165.18    8.50
   5   1  18  160.78    7.80
  -6  -1 -18    8.00    2.70
   6  -1  18   10.40    2.40
   6   1  18   10.60    2.70
  -6   1 -18    6.60    2.50
  -7  -1 -18   44.80    5.00
   7  -1  18   42.40    4.00
   7   1  18   44.10    4.90
  -7   1 -18   45.10    4.40
   8  -1  18   21.30    3.60
  -8  -1 -18   28.20    4.00
  -8   1 -18   27.90    3.80
   8   1  18   25.20    4.10
  10  -2 -18   16.10    4.10
  10  -2 -18   13.50    3.50
  10   2 -18   16.30    4.30
  10   2 -18   22.10    4.00
   9  -2 -18  102.29    6.80
   9  -2 -18   96.49    8.10
   9   2 -18  105.89    6.90
   9   2 -18  101.49    7.30
   8  -2 -18    6.80    3.20
   8  -2 -18   -0.60    2.30
   8   2 -18    1.90    2.50
   8   2 -18   -1.70    2.10
   7  -2 -18    5.20    2.70
   7  -2 -18    9.20    3.00
   7   2 -18    4.00    2.40
   7   2 -18    3.60    2.70
   6  -2 -18    4.60    2.70
   6  -2 -18    1.00    2.20
   6   2 -18    2.80    2.20
   6   2 -18   -1.40    2.00
   5  -2 -18    1.60    2.30
   5  -2 -18   10.00    2.60
   5   2 -18    5.20    2.60
   5   2 -18    6.60    2.10
   4  -2 -18   23.80    3.80
  -4   2  18   19.90    3.20
   4   2 -18   18.20    3.50
   4   2 -18   24.70    3.00
   4   2 -18   21.70    2.70
   3  -2 -18   22.80    3.80
   3   2 -18   23.70    3.80
   3   2 -18   29.50    3.00
  -3   2  18   16.50    2.80
   2  -2 -18  141.59    7.80
  -2   2  18  137.59    6.70
   2   2 -18  137.29    5.80
   2   2 -18  141.19    7.80
   1  -2 -18  115.99    7.10
  -1  -2  18  112.79    5.00
   1   2 -18  113.19    7.00
   1   2 -18  114.39    5.00
  -1   2  18  120.59    5.90
   0  -2 -18   15.90    3.50
   0  -2  18   13.70    1.80
   0   2 -18    8.20    1.60
   0   2  18   11.60    2.20
   0   2 -18    9.20    2.70
   1  -2  18   30.70    2.40
  -1  -2 -18   36.60    4.50
  -1   2 -18   33.00    2.50
   1   2  18   34.40    3.90
  -1   2 -18   36.00    4.50
  -2  -2 -18   33.90    4.40
   2  -2  18   34.80    2.50
   2   2  18   33.90    3.20
  -2   2 -18   30.70    2.60
  -2   2 -18   38.30    4.60
  -3  -2 -18    7.30    2.70
   3  -2  18    8.20    1.70
  -3   2 -18    9.80    1.90
  -3   2 -18    7.30    2.70
   3   2  18    6.50    2.00
   4  -2  18  104.39    5.20
  -4  -2 -18   99.89    6.60
   4   2  18  107.09    5.90
  -4   2 -18  108.59    6.70
   5  -2  18    1.50    1.50
  -5  -2 -18   -2.40    1.60
   5   2  18    0.50    1.70
  -5   2 -18    2.70    1.90
   6  -2  18   64.89    4.50
  -6  -2 -18   67.09    5.40
  -6   2 -18   69.79    5.40
   6   2  18   68.79    5.10
   7  -2  18    9.60    2.50
  -7  -2 -18    6.90    2.60
   7   2  18    6.10    2.50
  -7   2 -18    9.00    2.50
  -8  -2 -18   16.50    3.20
   8  -2  18   21.10    3.40
   8   2  18   18.80    3.60
  -8   2 -18   22.30    3.50
  10  -3 -18   -0.80    2.70
  10  -3 -18    3.10    2.40
  10   3 -18    2.20    2.50
   9  -3 -18    4.50    2.60
   9  -3 -18   -0.40    2.70
   9   3 -18   -0.50    2.30
   9   3 -18    1.70    2.60
   8  -3 -18   -0.10    2.40
   8  -3 -18    3.00    2.70
   8   3 -18    6.90    2.90
   8   3 -18    7.20    2.70
   7  -3 -18   -1.10    2.20
   7  -3 -18   -1.60    2.10
   7   3 -18    1.20    2.50
   7   3 -18    1.50    2.00
   6  -3 -18   10.40    3.00
   6  -3 -18   10.90    3.20
   6   3 -18    6.70    2.20
   6   3 -18   11.10    3.20
   5  -3 -18    5.50    2.60
   5   3 -18    8.00    2.10
   5   3 -18    7.70    2.70
   4  -3 -18   24.90    3.80
   4   3 -18   28.30    3.10
   4   3 -18   21.90    2.60
  -4   3  18   25.40    3.70
   4   3 -18   29.20    4.20
   3  -3 -18   43.40    5.00
   3   3 -18   38.20    4.80
   3   3 -18   32.20    2.60
   3   3 -18   41.40    3.00
  -3   3  18   39.00    3.80
   2  -3 -18   30.30    4.20
   2   3 -18   34.70    4.40
   2   3 -18   32.50    2.40
  -2   3  18   38.10    3.50
   2   3 -18   28.90    2.30
   1  -3 -18   99.69    6.60
  -1   3  18   96.69    5.40
   1   3 -18  100.69    4.30
   1   3 -18  100.69    6.60
   0  -3 -18    1.80    2.20
   0  -3  18    4.10    1.20
   0   3 -18    1.60    1.00
   0   3  18    2.90    1.70
   0   3 -18    2.80    2.20
  -1  -3 -18   75.19    5.70
   1  -3  18   79.89    3.60
   1   3  18   74.39    4.70
  -1   3 -18   73.99    3.60
  -1   3 -18   81.89    5.80
   2  -3  18   24.80    2.10
  -2  -3 -18   27.80    4.10
  -2   3 -18   21.70    2.10
  -2   3 -18   25.00    3.90
   2   3  18   27.10    3.30
   3  -3  18   85.89    4.10
  -3  -3 -18   79.29    5.90
  -3   3 -18   90.49    6.00
   3   3  18   85.39    5.20
  -3   3 -18   74.09    4.10
  -4  -3 -18    4.50    2.50
   4  -3  18    6.80    1.70
   4   3  18    4.50    2.10
  -4   3 -18    3.50    1.40
  -4   3 -18    6.10    2.60
  -5  -3 -18    0.80    2.00
   5  -3  18    3.80    1.60
  -5   3 -18    3.80    2.30
   5   3  18    3.90    2.10
  -6  -3 -18   19.60    3.60
   6  -3  18   20.30    3.00
  -6   3 -18   23.30    3.60
   6   3  18   23.50    3.80
   7  -3  18    9.20    2.40
  -7  -3 -18    8.80    2.70
   7   3  18    8.40    3.40
  -7   3 -18    7.60    2.60
  -8  -3 -18    4.20    2.30
   8  -3  18    1.70    1.80
  -8   3 -18    4.10    2.20
   8   3  18    3.50    2.40
  10  -4 -18    2.50    3.10
  10  -4 -18    6.10    2.90
  10   4 -18    4.90    2.80
   9  -4 -18    2.40    2.70
   9  -4 -18    6.90    3.60
   9   4 -18    9.90    3.50
   9   4 -18   10.60    3.30
   8  -4 -18    2.80    2.70
   8  -4 -18    4.60    3.20
   8   4 -18    2.20    2.50
   8   4 -18    5.00    2.70
   7  -4 -18   18.70    3.60
   7  -4 -18   19.40    3.70
   7   4 -18   25.40    4.30
   7   4 -18   19.20    3.30
   6  -4 -18   16.10    3.60
   6  -4 -18   12.80    3.40
   6   4 -18   10.00    3.10
   6   4 -18   11.30    3.30
   5  -4 -18   30.00    4.20
  -5   4  18   31.50    4.30
   5   4 -18   27.80    3.10
   5   4 -18   32.10    4.40
   5   4 -18   38.30    3.30
   4  -4 -18    0.10    2.00
   4   4 -18    1.00    1.20
   4   4 -18    0.00    1.40
  -4   4  18    3.20    2.10
   4   4 -18    2.70    2.50
   3  -4 -18  133.69    7.60
   3   4 -18  118.49    7.30
   3   4 -18  121.39    5.20
  -3   4  18  114.79    6.50
   3   4 -18  113.49    5.00
   2  -4 -18    1.80    2.10
   2   4 -18    2.20    1.00
   2   4 -18    0.60    0.90
  -2   4  18    2.00    1.80
   2   4 -18    3.10    2.30
   1  -4 -18   83.89    6.00
   1   4 -18   86.49    3.70
  -1   4  18   82.79    5.10
   1   4 -18   83.29    3.50
   1   4 -18   90.09    6.20
   0  -4 -18    1.60    2.20
   0   4 -18    0.60    2.00
   0   4  18    0.80    1.60
   0   4 -18   -0.10    0.60
  -1  -4 -18   -1.50    1.80
   1  -4  18   -0.80    0.70
   1   4  18    1.60    1.60
  -1   4 -18    0.90    1.80
  -1   4 -18   -0.10    0.70
   2  -4  18  109.19    4.40
  -2  -4 -18  123.39    7.20
   2   4  18  108.59    6.00
  -2   4 -18  114.99    7.00
  -2   4 -18  108.89    4.50
   3  -4  18   14.90    1.80
  -3  -4 -18   15.50    3.40
  -3   4 -18   13.40    1.80
   3   4  18   16.30    2.80
  -3   4 -18   15.30    3.30
   4  -4  18   66.69    3.60
  -4  -4 -18   75.69    5.80
  -4   4 -18   64.09    3.70
   4   4  18   68.59    5.00
  -4   4 -18   73.39    5.50
   5  -4  18    0.40    1.20
  -5  -4 -18    1.00    2.10
  -5   4 -18   -0.20    1.90
   5   4  18    3.90    2.10
  -5   4 -18    1.20    1.20
   6  -4  18   53.49    3.90
  -6  -4 -18   61.69    5.30
   6   4  18   52.59    4.90
  -6   4 -18   52.69    4.80
  -7  -4 -18    2.60    2.40
   7  -4  18    1.20    1.50
   7   4  18    3.60    2.30
  -7   4 -18    4.20    2.20
  10  -5 -18    1.60    2.50
  10  -5 -18    0.30    3.00
  10   5 -18    2.40    4.50
  10   5 -18   -1.80    2.20
   9  -5 -18    0.00    2.90
   9  -5 -18   -1.00    2.50
   9   5 -18   -2.30    2.10
   9   5 -18   -0.40    2.40
   8  -5 -18   17.00    4.80
   8  -5 -18   16.00    3.70
   8   5 -18   17.70    3.60
   8   5 -18   13.10    3.10
   7  -5 -18    1.60    2.40
   7  -5 -18   -2.20    2.30
   7   5 -18   -0.20    2.00
   7   5 -18   -2.40    2.10
   6  -5 -18   49.10    5.50
   6  -5 -18   53.49    5.10
   6   5 -18   43.50    4.00
   6   5 -18   47.70    5.50
   5  -5 -18   10.10    3.10
  -5   5  18   12.90    3.20
   5   5 -18    9.10    2.00
   5   5 -18    2.80    2.50
   5   5 -18    5.70    2.00
   4  -5 -18    4.60    2.60
   4   5 -18    7.70    3.00
   4   5 -18    4.30    1.60
  -4   5  18    7.30    2.40
   4   5 -18    4.00    1.30
   3  -5 -18   -1.60    1.90
  -3   5  18    0.60    2.00
   3   5 -18    3.30    2.40
   3   5 -18    1.40    1.10
   3   5 -18    0.80    1.00
   2  -5 -18   47.10    5.30
   2   5 -18   40.60    2.50
   2   5 -18   32.30    4.40
   2   5 -18   35.10    2.10
  -2   5  18   40.50    3.90
   1  -5 -18    2.40    2.20
   1   5 -18    5.10    2.40
  -1   5  18    9.40    2.30
   0  -5 -18   65.09    5.50
   0   5 -18   64.09    5.40
   0   5  18   64.59    4.70
  -1  -5 -18   13.50    3.40
  -1   5 -18   11.00    2.90
   1   5  18   19.20    3.10
   2  -5  18   15.50    1.20
  -2  -5 -18   14.20    3.20
   2   5  18   14.50    2.80
  -2   5 -18   15.70    3.30
  -2   5 -18   13.40    1.20
   3  -5  18    3.50    1.00
  -3  -5 -18    2.10    2.20
  -3   5 -18    1.10    1.90
  -3   5 -18    3.00    1.00
   3   5  18    3.50    2.00
  -4  -5 -18   13.50    3.50
   4  -5  18   19.20    2.00
  -4   5 -18   16.20    1.90
   4   5  18   17.20    3.30
  -4   5 -18   11.80    3.10
  -5  -5 -18   14.50    3.50
   5  -5  18   16.50    2.20
  -5   5 -18   17.00    3.30
   5   5  18   14.50    3.10
  -5   5 -18    9.70    2.10
  -6  -5 -18   -0.40    2.20
   6  -5  18    2.30    1.50
  -6   5 -18    2.50    2.10
   6   5  18    1.20    2.20
   7  -5  18    7.40    2.20
  -7  -5 -18    5.00    2.70
  -7   5 -18    6.20    2.50
   7   5  18   -0.30    2.00
  10  -6 -18    5.30    3.00
  10  -6 -18    0.80    3.30
  10   6 -18    1.20    2.40
  10   6 -18    2.20    3.40
   9  -6 -18   28.60    5.00
   9  -6 -18   25.70    4.50
   9   6 -18   27.40    4.40
   9   6 -18   28.10    4.50
   8  -6 -18    1.60    2.70
   8  -6 -18    6.50    3.40
   8   6 -18    2.80    2.50
   8   6 -18    3.60    2.80
   7  -6 -18    7.80    3.30
   7  -6 -18   -0.20    2.40
   7   6 -18    3.20    2.20
   7   6 -18    2.80    2.70
   6  -6 -18   31.30    4.50
  -6   6  18   29.30    4.60
   6   6 -18   23.50    3.20
   6   6 -18   25.20    4.50
   5  -6 -18    6.40    2.80
  -5   6  18   13.70    3.30
   5   6 -18    5.50    2.80
   5   6 -18    5.20    1.90
   5   6 -18    8.70    2.00
   4  -6 -18   10.20    3.00
   4   6 -18   10.30    3.10
   4   6 -18    8.30    1.70
   4   6 -18   10.70    1.70
  -4   6  18    8.40    2.60
   3  -6 -18    5.30    2.60
  -3   6  18    1.60    2.00
   3   6 -18    3.80    1.00
   3   6 -18    0.50    2.20
   3   6 -18    4.10    1.30
   2  -6 -18   22.30    3.80
   2   6 -18   16.70    3.60
  -2   6  18   23.10    3.50
   1  -6 -18   40.60    5.20
   1   6 -18   37.60    5.00
  -1   6  18   41.50    4.00
   0  -6 -18   18.60    3.80
   0   6  18   11.90    2.80
   0   6 -18   10.50    3.00
  -1  -6 -18    1.70    2.30
  -1   6 -18   -0.20    1.90
   1   6  18   -0.20    1.60
  -2  -6 -18    5.60    2.90
  -2   6 -18    5.50    2.60
   2   6  18    5.90    2.30
  -3  -6 -18   39.90    5.10
   3   6  18   44.50    4.30
  -3   6 -18   52.79    5.80
  -4  -6 -18    3.10    2.50
   4  -6  18    1.10    0.80
  -4   6 -18    3.50    2.30
   4   6  18    5.60    2.50
  -5  -6 -18   -0.70    2.30
   5  -6  18    2.30    1.20
  -5   6 -18    1.00    2.00
   5   6  18    1.20    2.20
   6  -6  18   27.70    2.70
  -6  -6 -18   31.10    4.70
  -6   6 -18   28.70    4.10
   6   6  18   34.80    4.80
  -7  -6 -18   -0.40    2.20
   7  -6  18    0.90    1.40
  -7   6 -18    0.10    1.80
   7   6  18    2.40    2.40
   9  -7 -18    0.20    2.60
   9  -7 -18    0.20    2.80
   9   7 -18    0.30    2.50
   9   7 -18   -5.30    2.10
   8  -7 -18    4.70    3.40
   8  -7 -18    5.80    3.10
   8   7 -18    4.30    2.40
   8   7 -18    5.50    3.00
   7  -7 -18    8.40    5.40
   7  -7 -18    9.20    3.30
   7   7 -18    8.70    2.60
   7   7 -18   12.80    3.70
   6  -7 -18   24.40    4.10
   6   7 -18   18.60    4.00
   6   7 -18   18.90    2.80
  -6   7  18   17.60    4.10
   5  -7 -18   24.90    4.10
   5   7 -18   30.90    4.70
   5   7 -18   25.20    2.80
   5   7 -18   24.30    2.60
  -5   7  18   32.50    4.50
   4  -7 -18   67.79    5.80
   4   7 -18   62.29    3.20
   4   7 -18   62.99    5.90
   4   7 -18   53.19    2.90
  -4   7  18   65.99    5.30
   3  -7 -18    4.50    2.90
  -3   7  18   -1.60    1.80
   3   7 -18   -2.50    2.10
   2  -7 -18   13.40    3.20
  -2   7  18   22.00    3.70
   2   7 -18   18.50    3.70
   1  -7 -18   39.10    5.10
  -1   7  18   46.20    4.30
   1   7 -18   39.50    5.00
   0  -7 -18    3.40    2.60
   0   7 -18   -0.80    1.90
   0   7  18    0.30    1.90
  -1  -7 -18   90.29    6.60
  -1   7 -18   93.39    6.60
   1   7  18   98.59    6.20
  -2  -7 -18   31.40    4.70
  -2   7 -18   29.30    4.40
   2   7  18   30.60    4.00
  -3  -7 -18   39.60    5.00
   3   7  18   47.80    4.60
  -3   7 -18   45.10    5.30
  -4  -7 -18    9.60    3.00
  -4   7 -18    3.50    2.30
   4   7  18    8.00    2.80
   5  -7  18   19.30    1.70
  -5  -7 -18   20.30    4.00
  -5   7 -18   22.10    3.90
   6  -7  18    9.60    1.80
  -6  -7 -18   14.80    3.80
  -6   7 -18   12.40    3.20
   6   7  18   12.10    3.40
  -7  -7 -18    0.70    2.70
   7  -7  18    5.50    2.10
   7   7  18    0.30    2.30
  -7   7 -18    4.30    2.60
   9  -8 -18    7.40    3.60
   9  -8 -18    2.30    2.70
   9   8 -18    7.00    2.90
   9   8 -18    5.40    3.10
   8  -8 -18   -0.20    2.60
   8  -8 -18    0.80    2.60
   8   8 -18    0.00    2.10
   8   8 -18   -0.60    2.50
   7  -8 -18   17.10    3.80
   7  -8 -18   26.40    4.60
   7   8 -18   21.70    3.40
   7   8 -18   14.40    3.60
   6  -8 -18    0.70    2.40
   6   8 -18    0.60    1.30
   6   8 -18   -1.60    2.40
  -6   8  18   -0.10    2.40
   6   8 -18    0.50    1.60
   5  -8 -18   23.70    4.30
   5   8 -18   26.00    2.50
   5   8 -18   21.40    4.30
   5   8 -18   23.90    2.40
  -5   8  18   27.30    4.60
   4  -8 -18    7.10    3.30
   4   8 -18    5.90    2.00
   4   8 -18    3.00    1.00
   4   8 -18    5.80    3.20
  -4   8  18    4.20    2.80
   3  -8 -18   55.79    6.00
   3   8 -18   55.69    6.30
  -3   8  18   53.99    4.90
   2  -8 -18   39.00    5.00
   2   8 -18   43.50    5.40
  -2   8  18   42.90    4.90
   1  -8 -18   28.80    4.40
   1   8 -18   19.30    3.80
  -1   8  18   19.50    3.50
   0  -8 -18   92.39    6.80
   0   8  18   95.39    6.20
   0   8 -18   87.79    6.60
  -1  -8 -18  140.19    8.30
  -1   8 -18  126.49    8.00
   1   8  18  134.49    7.50
  -2  -8 -18  104.49    7.30
   2   8  18  111.99    6.80
  -2   8 -18  107.79    7.30
  -3  -8 -18   41.60    5.30
   3   8  18   39.70    4.70
  -3   8 -18   41.30    5.10
  -4  -8 -18   79.19    6.40
   4   8  18   71.79    7.10
  -4   8 -18   74.29    6.00
  -5  -8 -18   -0.10    2.40
   5   8  18    1.00    2.50
  -5   8 -18    0.70    2.20
  -6  -8 -18   85.29    6.70
   6  -8  18   80.89    3.80
   6   8  18   83.89    6.50
  -6   8 -18   86.79    6.40
   9  -9 -18    1.90    3.10
   9   9 -18   -1.50    2.50
   9   9 -18    1.00    2.70
   8  -9 -18   15.30    4.40
   8  -9 -18   12.70    3.70
   8   9 -18    8.10    2.70
   7  -9 -18    6.30    3.30
   7  -9 -18   -0.50    2.60
   7   9 -18    1.50    2.70
   7   9 -18    1.80    2.10
   6  -9 -18   24.30    4.40
   6   9 -18   17.50    4.10
  -6   9  18   22.10    4.30
   6   9 -18   17.30    2.50
   6   9 -18   15.60    2.30
   5  -9 -18   18.90    4.00
  -5   9  18   16.80    3.60
   5   9 -18   19.00    2.10
   5   9 -18   23.30    4.30
   5   9 -18   15.70    2.00
   4  -9 -18    0.50    2.40
   4   9 -18    5.00    2.90
  -4   9  18    1.10    2.50
   3  -9 -18   60.39    6.50
   3   9 -18   73.59    6.40
  -3   9  18   67.39    5.60
   2  -9 -18   21.30    4.40
  -2   9  18   29.60    4.20
   2   9 -18   21.50    4.00
   1  -9 -18  149.19    8.80
   1   9 -18  150.38    9.00
  -1   9  18  158.08    8.30
   0  -9 -18    0.50    2.40
   0   9 -18   -0.30    2.40
   0   9  18   -1.00    1.90
  -1  -9 -18  165.78    9.50
   1   9  18  177.08    9.00
  -1   9 -18  180.38    9.80
  -2  -9 -18    4.50    2.80
  -2   9 -18    5.50    2.60
   2   9  18    5.10    2.80
  -3  -9 -18   86.79    6.70
  -3   9 -18   76.49    6.40
   3   9  18   80.89    7.40
  -4  -9 -18   18.50    4.30
  -4   9 -18   12.20    3.30
   4   9  18   13.30    3.40
  -5  -9 -18    2.10    2.70
  -5   9 -18    3.10    2.50
   5   9  18    4.80    2.80
   6   9  18   37.80    5.20
  -6   9 -18   35.40    5.00
   8 -10 -18   18.40    4.50
   8 -10 -18   12.00    3.70
   8  10 -18    8.00    2.70
   8  10 -18   12.00    3.80
   7 -10 -18    8.80    3.50
   7 -10 -18   11.90    4.00
   7  10 -18    6.60    3.40
  -6  10  18   20.20    4.60
   6  10 -18   15.30    6.60
   6  10 -18   12.90    2.30
   5 -10 -18   25.00    5.00
   5  10 -18   15.10    1.80
   5  10 -18   22.30    2.00
  -5  10  18   24.90    4.50
   5  10 -18   22.30    5.80
   4 -10 -18   10.50    3.60
   4  10 -18   15.30    4.00
  -4  10  18   14.30    4.50
   3 -10 -18   33.40    5.10
   3  10 -18   29.10    4.90
  -3  10  18   29.00    4.80
   2 -10 -18   29.90    4.90
   2  10 -18   29.20    4.80
  -2  10  18   43.80    5.40
   1 -10 -18    0.60    2.40
   1  10 -18    1.90    2.70
  -1  10  18    5.10    2.80
   0 -10 -18   69.79    6.30
   0  10 -18   79.79    6.60
   0  10  18   75.89    5.90
  -1 -10 -18  123.39    8.20
   1  10  18  126.29    7.70
  -1  10 -18  131.19    8.30
  -2 -10 -18   57.59    6.90
  -2  10 -18   48.10    5.90
  -3  10 -18    1.20    2.60
   3  10  18    2.80    2.50
  -4 -10 -18   62.59    7.40
   4  10  18   59.09    5.70
  -5 -10 -18    3.90    3.00
   5  10  18    4.20    2.70
  -5  10 -18    2.00    2.40
   7 -11 -18   -1.00    3.10
   7 -11 -18    1.20    2.70
   7  11 -18   -1.00    2.00
   7  11 -18   -1.20    3.00
  -7  11  18   -2.90    2.70
   6 -11 -18   32.60    5.20
  -6  11  18   35.60    5.30
   6  11 -18   32.20    5.10
   6  11 -18   29.20    2.90
   5 -11 -18   32.90    4.90
   5  11 -18   22.10    2.60
   5  11 -18   39.90    5.90
  -5  11  18   26.40    4.60
   4 -11 -18   44.50    5.80
   4  11 -18   67.69    6.40
  -4  11  18   56.29    6.40
   3 -11 -18   92.89    7.30
   3  11 -18   97.39    7.50
  -3  11  18   93.29    7.00
   2 -11 -18  134.49    9.40
   2  11 -18  143.99    9.30
  -2  11  18  143.29   12.20
   1 -11 -18   93.69    7.50
   1  11 -18   92.09    8.00
   0 -11 -18   47.60    5.90
   0  11 -18   42.60    6.10
   0  11  18   46.50    6.20
  -1 -11 -18   87.29    7.20
  -1  11 -18  102.89    7.50
  -2 -11 -18   19.20    4.30
   2  11  18   13.10    3.50
  -2  11 -18   20.70    4.30
  -3 -11 -18  110.99    8.20
   3  11  18  128.09    8.00
  -3  11 -18  138.49    8.50
  -4 -11 -18    0.90    2.90
   4  11  18    1.50    2.60
  -4  11 -18    1.90    2.50
  -5 -11 -18   52.79    6.30
  -5  11 -18   44.90    5.70
   5  11  18   47.00    5.80
   7 -12 -18    7.90    3.40
  -7  12  18    4.00    3.30
   7  12 -18   11.70    4.00
   7  12 -18    7.30    2.30
   6 -12 -18   47.20    6.10
  -6  12  18   43.70    5.90
   6  12 -18   36.50    2.90
   6  12 -18   38.40    5.40
   5 -12 -18    5.10    3.30
  -5  12  18    8.30    3.40
   5  12 -18   10.60    3.50
   4 -12 -18  107.09    7.90
   4  12 -18  102.79    7.90
  -4  12  18   96.19    7.50
   3 -12 -18   14.50    4.00
  -3  12  18    9.10    3.30
   3  12 -18   18.90    4.30
   2 -12 -18   80.99    7.00
  -2  12  18   81.69    6.60
   2  12 -18   76.79    7.00
   1 -12 -18   -2.60    2.30
  -1  12  18    2.00    2.70
   1  12 -18    0.80    2.90
   0 -12 -18   27.90    4.70
   0  12 -18   30.50    5.10
   0  12  18   32.80    4.60
  -1 -12 -18    5.80    3.20
   1  12  18    1.80    2.60
  -1  12 -18    1.70    2.70
  -2 -12 -18  114.69    8.20
   2  12  18  113.19    7.70
  -2  12 -18  102.59    7.90
  -3 -12 -18    2.90    2.90
   3  12  18    1.50    2.70
  -3  12 -18    1.10    2.50
  -4 -12 -18    7.10    3.60
  -4  12 -18    4.20    2.80
   4  12  18    2.10    2.60
   6 -13 -18   18.30    4.50
   6  13 -18    5.40    3.60
  -6  13  18   10.50    4.10
   5 -13 -18    2.50    2.80
  -5  13  18    0.90    3.00
   5  13 -18    2.60    3.10
   4 -13 -18    2.10    3.10
  -4  13  18    9.00    3.70
   4  13 -18    4.10    3.10
   3 -13 -18   12.90    4.20
   3  13 -18   24.30    5.00
  -3  13  18   17.20    4.50
   2 -13 -18   30.00    5.20
   2  13 -18   33.40    5.30
  -2  13  18   39.60    5.40
   1 -13 -18   50.19    6.30
   1  13 -18   61.49    7.10
  -1  13  18   50.69    5.80
   0 -13 -18   25.70    4.90
   0  13 -18   29.80    5.00
   0  13  18   20.00    3.90
  -1 -13 -18    5.20    3.20
  -1  13 -18   18.80    4.30
   1  13  18    9.60    3.40
  -2 -13 -18   16.20    4.30
  -2  13 -18   11.40    3.70
   2  13  18   13.10    4.10
  -3 -13 -18   34.00    5.50
  -3  13 -18   45.80    5.80
   3  13  18   36.90    5.40
   4 -14 -18    2.80    3.30
  -4  14  18   -1.20    2.90
   4  14 -18    3.00    3.50
   3 -14 -18    2.30    2.90
   3  14 -18   -2.30    2.90
  -3  14  18   -5.90    2.50
   2 -14 -18   60.79    7.30
  -2  14  18   71.49    6.70
   2  14 -18   50.39    6.40
   1 -14 -18    8.80    3.80
   1  14 -18    9.90    3.80
  -1  14  18   12.20    4.00
   0 -14 -18   12.00    4.30
   0  14 -18   18.80    4.30
   0  14  18   11.90    3.70
  -1 -14 -18    4.20    3.30
   1  14  18   12.30    3.60
  -1  14 -18    6.70    3.30
  10   0 -19    6.40    2.70
  10   0 -19    0.30    2.70
   9   0 -19    1.50    2.50
   9   0 -19    3.00    2.90
   8   0 -19    0.20    2.30
   8   0 -19    0.50    2.20
   7   0 -19   -0.20    2.40
   7   0 -19   -1.30    2.00
   6   0 -19    1.70    2.20
   6   0 -19   -1.80    2.10
   5   0 -19    1.70    1.70
   5   0 -19   -1.20    2.30
   4   0 -19    2.80    2.40
   4   0 -19    3.60    2.30
  -3   0  19    0.50    1.50
   3   0 -19    1.80    2.30
   2   0 -19   -0.70    1.10
   2   0 -19   -0.80    2.10
  -2   0  19    0.90    1.40
  -1   0  19    1.40    1.30
   1   0 -19   -0.40    1.00
   1   0 -19    0.80    2.10
   0   0 -19    1.60    2.20
   0   0  19   -0.50    1.10
   0   0 -19    0.00    1.10
   1   0  19    1.40    1.30
  -1   0 -19    0.50    1.20
  -1   0 -19    1.30    2.00
  -2   0 -19   -2.70    1.70
   2   0  19    0.30    1.30
  -3   0 -19   -0.40    2.00
  -4   0 -19   -1.00    1.60
   4   0  19    1.20    1.40
   5   0  19    1.20    1.50
  -5   0 -19   -2.10    1.70
   6   0  19    2.40    1.90
  -6   0 -19   -0.20    1.70
  -7   0 -19    0.30    1.80
   7   0  19    1.20    1.70
  10  -1 -19    1.80    3.10
  10  -1 -19    6.60    2.90
  10   1 -19    8.30    3.90
  10   1 -19   11.20    3.20
   9  -1 -19    2.90    2.90
   9  -1 -19    5.30    2.60
   9   1 -19    7.40    3.20
   9   1 -19    3.70    2.60
   8  -1 -19   10.30    3.20
   8  -1 -19    7.80    3.00
   8   1 -19    7.50    2.90
   8   1 -19    7.70    2.90
   7  -1 -19    3.70    2.60
   7  -1 -19    3.80    2.60
   7   1 -19    4.40    2.60
   7   1 -19    3.10    2.30
   6  -1 -19   65.79    5.80
   6  -1 -19   61.59    5.20
   6   1 -19   57.19    5.50
   6   1 -19   74.19    5.10
   5  -1 -19   20.30    3.90
   5  -1 -19   27.40    3.70
   5   1 -19   25.10    3.50
   5   1 -19   26.20    4.10
   4  -1 -19    0.70    2.30
   4   1 -19    3.30    1.70
   4   1 -19   -1.30    2.20
   3  -1 -19    5.80    2.70
   3   1 -19    6.40    1.70
   3   1 -19    8.10    2.00
   3   1 -19    5.60    2.70
   2  -1 -19    5.70    2.50
  -2  -1  19    5.30    1.70
  -2   1  19    6.60    2.00
   2   1 -19    3.70    2.30
   2   1 -19    2.90    1.40
   1  -1 -19   70.59    5.70
  -1  -1  19   71.99    4.00
   1   1 -19   70.29    4.60
  -1   1  19   70.89    4.30
   1   1 -19   73.39    5.70
   0  -1  19    2.30    1.30
   0  -1 -19    6.30    2.60
   0   1 -19    0.60    2.00
   0   1  19    1.80    1.40
  -1  -1 -19   49.50    5.40
   1  -1  19   45.70    3.00
   1   1  19   42.90    3.30
  -1   1 -19   39.50    4.80
  -1   1 -19   37.40    3.00
   2  -1  19    2.20    1.30
  -2  -1 -19    5.90    2.70
  -2   1 -19    1.80    2.10
  -2   1 -19    2.60    1.40
  -3  -1 -19   31.80    4.50
   3  -1  19   30.50    3.10
   3   1  19   35.30    3.70
  -3   1 -19   33.20    4.50
  -4  -1 -19    3.90    2.40
   4  -1  19    8.40    2.20
   4   1  19    4.60    1.90
  -4   1 -19    4.90    2.20
  -5  -1 -19   30.70    4.50
   5  -1  19   23.60    3.20
  -5   1 -19   24.80    3.90
   5   1  19   27.80    3.60
  -6  -1 -19   -0.20    1.70
   6  -1  19   -0.70    1.50
  -6   1 -19    0.90    1.90
   6   1  19    0.50    1.70
  -7  -1 -19    9.60    2.80
   7  -1  19   11.90    2.80
  -7   1 -19   11.90    2.90
   7   1  19    8.00    2.50
  10  -2 -19    2.60    2.80
  10  -2 -19   -0.10    2.30
  10   2 -19    3.10    2.70
  10   2 -19    3.70    3.20
   9  -2 -19   -0.50    2.20
   9  -2 -19    2.10    3.30
   9   2 -19    0.70    2.40
   9   2 -19   -0.20    2.50
   8  -2 -19   30.30    4.50
   8  -2 -19   39.50    5.20
   8   2 -19   38.50    4.90
   8   2 -19   25.60    4.20
   7  -2 -19    1.30    2.30
   7  -2 -19    2.00    2.50
   7   2 -19    0.90    2.20
   7   2 -19    0.60    2.20
   6  -2 -19   77.69    5.60
   6  -2 -19   72.79    6.10
   6   2 -19   67.59    6.00
   6   2 -19   78.39    5.30
   5  -2 -19  170.68    9.00
   5  -2 -19  165.28    8.10
   5   2 -19  155.88    8.70
   5   2 -19  148.49    7.40
   4  -2 -19  321.17   13.40
   4   2 -19  280.17   11.00
   4   2 -19  295.27   11.30
  -4   2  19  305.27   12.20
   4   2 -19  312.37   13.30
   3  -2 -19   42.80    5.00
   3   2 -19   40.40    3.10
   3   2 -19   46.40    5.30
   3   2 -19   45.00    3.30
  -3   2  19   49.40    4.00
   2  -2 -19   -1.90    1.80
  -2   2  19   -0.70    1.50
   2   2 -19    1.30    2.10
   2   2 -19    1.60    1.10
   1  -2 -19   73.99    5.70
  -1  -2  19   63.59    3.60
   1   2 -19   55.49    5.20
   1   2 -19   58.59    3.40
   0  -2 -19    0.30    2.00
   0  -2  19    1.80    1.20
   0   2 -19    3.60    2.30
   0   2 -19   -0.70    0.90
   1  -2  19   80.69    4.00
  -1  -2 -19   82.99    6.10
  -1   2 -19   72.39    4.00
  -1   2 -19   85.09    6.00
   1   2  19   85.79    4.80
  -2  -2 -19   60.89    5.40
   2  -2  19   60.59    3.50
  -2   2 -19   55.99    4.40
   2   2  19   68.49    4.30
  -2   2 -19   69.69    5.50
  -3  -2 -19   97.39    6.70
   3  -2  19  105.19    4.90
  -3   2 -19  104.29    6.70
   3   2  19  101.59    5.60
  -3   2 -19   92.19    4.90
   4  -2  19   43.30    3.20
  -4  -2 -19   46.30    5.30
  -4   2 -19   47.00    5.20
   4   2  19   44.80    3.90
  -5  -2 -19   16.80    3.70
   5  -2  19   16.40    2.70
   5   2  19   17.00    3.00
  -5   2 -19   16.20    3.40
   6  -2  19   75.49    4.90
  -6  -2 -19   82.09    5.90
   6   2  19   76.79    5.50
  -6   2 -19   79.39    5.80
  -7  -2 -19   17.10    3.60
   7  -2  19   10.90    2.70
   7   2  19   14.00    3.20
  -7   2 -19   14.70    3.10
  10  -3 -19   33.10    5.70
  10  -3 -19   33.10    4.70
  10   3 -19   33.50    5.50
  10   3 -19   38.50    5.20
   9  -3 -19   21.50    4.30
   9  -3 -19   15.00    3.90
   9   3 -19   19.90    3.90
   9   3 -19   12.80    3.50
   8  -3 -19   48.30    5.60
   8  -3 -19   53.29    5.90
   8   3 -19   53.19    5.20
   8   3 -19   42.80    5.30
   7  -3 -19    2.50    2.60
   7  -3 -19    5.20    3.00
   7   3 -19    3.50    2.30
   7   3 -19    8.70    3.10
   6  -3 -19  102.19    7.10
   6  -3 -19  113.29    6.90
   6   3 -19   96.99    5.90
   6   3 -19   94.09    6.90
   5  -3 -19   33.90    4.70
   5  -3 -19   40.10    4.50
   5   3 -19   44.50    5.20
   5   3 -19   34.40    3.70
   4  -3 -19  124.29    7.60
   4   3 -19  106.19    5.40
  -4   3  19  135.49    7.10
   4   3 -19  118.09    5.80
   4   3 -19  134.69    7.80
   3  -3 -19    2.10    2.50
  -3   3  19    1.70    1.90
   3   3 -19    4.10    2.70
   3   3 -19    2.60    1.40
   3   3 -19    4.70    1.50
   2  -3 -19   73.89    5.90
  -2   3  19   88.89    5.20
   2   3 -19   78.89    4.00
   2   3 -19   76.09    6.00
   2   3 -19   74.99    3.80
   1  -3 -19  148.29    8.40
   1   3 -19  142.39    5.90
  -1   3  19  156.88    7.30
   1   3 -19  169.78    8.80
   0  -3 -19   35.90    4.70
   0  -3  19   38.10    2.50
   0   3  19   40.20    3.50
   0   3 -19   37.20    4.60
   0   3 -19   33.20    2.40
  -1  -3 -19   23.40    4.30
   1  -3  19   25.20    2.10
  -1   3 -19   21.20    2.20
  -1   3 -19   25.50    4.10
   1   3  19   19.20    2.80
   2  -3  19   53.79    3.00
  -2  -3 -19   64.49    5.40
   2   3  19   56.69    4.20
  -2   3 -19   45.60    3.00
  -2   3 -19   59.89    5.20
   3  -3  19  105.49    4.70
  -3  -3 -19   99.19    6.70
  -3   3 -19   96.59    6.60
   3   3  19  104.49    5.80
  -3   3 -19   86.59    4.60
  -4  -3 -19    4.50    2.40
   4  -3  19    3.80    1.40
  -4   3 -19    2.10    2.20
   4   3  19    4.20    1.90
  -5  -3 -19   34.00    4.50
   5  -3  19   32.40    3.80
  -5   3 -19   22.30    3.80
   5   3  19   27.20    3.80
   6  -3  19    3.60    1.70
  -6  -3 -19    2.20    2.30
   6   3  19    4.20    2.30
  -6   3 -19    3.00    2.10
  -7  -3 -19   34.10    4.50
   7  -3  19   32.40    3.90
   7   3  19   33.20    4.60
  -7   3 -19   31.50    4.30
  10  -4 -19    0.80    2.80
  10  -4 -19   -1.40    2.40
  10   4 -19   -1.70    2.50
  10   4 -19    4.30    3.50
   9  -4 -19   22.30    4.40
   9  -4 -19   21.90    4.20
   9   4 -19   23.50    4.30
   9   4 -19   31.00    4.70
   8  -4 -19   11.90    3.60
   8  -4 -19   16.60    4.10
   8   4 -19    7.10    3.00
   8   4 -19   12.40    3.60
   7  -4 -19   53.09    5.90
   7  -4 -19   58.59    6.30
   7   4 -19   49.30    5.90
   7   4 -19   53.49    4.80
   6  -4 -19   41.90    5.10
   6  -4 -19   41.60    5.20
   6   4 -19   39.70    5.10
   6   4 -19   41.00    5.30
   5  -4 -19   93.99    6.70
   5   4 -19   94.99    5.20
  -5   4  19   98.99    6.40
   5   4 -19   85.69    6.50
   5   4 -19   78.89    4.70
   4  -4 -19   32.60    4.70
  -4   4  19   31.20    4.10
   4   4 -19   28.60    4.50
   4   4 -19   26.10    2.90
   3  -4 -19  198.08   10.00
   3   4 -19  182.48    7.20
   3   4 -19  200.28    7.50
   3   4 -19  187.18    9.80
  -3   4  19  199.88    9.00
   2  -4 -19    2.10    2.30
  -2   4  19    2.00    1.80
   2   4 -19   -0.50    2.00
   2   4 -19    1.60    1.00
   2   4 -19    1.60    1.10
   1  -4 -19   94.69    6.60
  -1   4  19   96.79    5.60
   1   4 -19   87.99    6.40
   1   4 -19   85.09    3.70
   1   4 -19   86.19    3.70
   0  -4 -19    2.10    2.40
   0   4 -19    3.40    0.90
   0   4  19    2.20    1.90
   0   4 -19    3.20    2.50
  -1  -4 -19   52.89    5.80
   1  -4  19   54.89    2.60
  -1   4 -19   50.49    2.60
   1   4  19   55.29    4.20
  -1   4 -19   55.69    5.10
  -2  -4 -19  118.79    7.40
   2  -4  19  120.49    4.60
  -2   4 -19  122.49    7.40
   2   4  19  111.89    6.30
  -2   4 -19  109.89    4.60
  -3  -4 -19   41.40    5.10
   3  -4  19   37.60    2.40
  -3   4 -19   32.80    2.50
   3   4  19   42.50    4.50
  -3   4 -19   39.10    4.90
  -4  -4 -19   64.39    6.60
   4  -4  19   49.20    3.10
  -4   4 -19   42.80    3.60
   4   4  19   51.79    4.50
  -4   4 -19   53.59    4.90
   5  -4  19    0.10    1.20
  -5  -4 -19   -1.60    2.10
   5   4  19    0.30    1.80
  -5   4 -19    2.20    1.50
  -5   4 -19    0.50    1.80
  -6  -4 -19   23.20    4.00
   6  -4  19   26.20    3.10
  -6   4 -19   23.30    3.80
   6   4  19   29.00    4.30
  -7  -4 -19    3.90    2.50
   7  -4  19    0.60    1.60
   7   4  19    0.90    2.10
  -7   4 -19    3.10    2.40
  10  -5 -19   11.60    3.50
  10  -5 -19   12.20    4.10
  10   5 -19    7.50    2.90
  10   5 -19    7.80    5.60
   9  -5 -19   47.70    6.00
   9  -5 -19   54.79    6.70
   9   5 -19   57.49    5.50
   9   5 -19   47.30    5.70
   8  -5 -19   84.69    6.60
   8  -5 -19   77.39    6.70
   8   5 -19   67.39    6.20
   8   5 -19   75.19    5.90
   7  -5 -19  125.99    7.90
   7  -5 -19  108.09    7.50
   7   5 -19  115.89    6.70
   7   5 -19  106.59    7.50
   6  -5 -19   83.99    6.70
   6  -5 -19   94.19    6.60
   6   5 -19   85.59    6.80
   6   5 -19   88.89    5.40
   5  -5 -19    6.60    2.80
   5   5 -19    7.90    1.80
   5   5 -19    9.10    3.20
  -5   5  19    8.70    2.80
   5   5 -19    5.50    1.90
   4  -5 -19   46.20    5.30
   4   5 -19   41.10    3.10
   4   5 -19   37.20    5.00
  -4   5  19   49.10    4.60
   4   5 -19   29.70    2.50
   3  -5 -19   17.90    3.90
   3   5 -19   14.40    3.50
  -3   5  19   10.90    2.90
   3   5 -19   15.80    1.90
   3   5 -19   13.60    1.70
   2  -5 -19  270.07   12.10
   2   5 -19  245.78    8.70
   2   5 -19  268.97   12.20
   2   5 -19  259.97    9.70
  -2   5  19  259.87   11.00
   1  -5 -19    3.00    2.30
   1   5 -19   -0.80    2.10
  -1   5  19    3.40    1.90
   0  -5 -19  108.99    7.10
   0   5 -19  112.39    7.20
   0   5  19  114.59    6.30
  -1  -5 -19   29.50    4.60
  -1   5 -19   24.60    4.00
   1   5  19   26.70    3.50
   2  -5  19   87.39    3.30
  -2  -5 -19   95.29    6.70
  -2   5 -19   93.59    6.50
   2   5  19   87.09    5.60
  -3  -5 -19   86.59    6.40
   3  -5  19   76.89    3.40
  -3   5 -19   83.99    6.20
  -3   5 -19   76.59    3.40
   3   5  19   86.39    5.60
   4  -5  19   34.50    2.30
  -4  -5 -19   39.00    5.10
   4   5  19   38.10    4.40
  -4   5 -19   40.60    5.10
  -4   5 -19   26.30    2.20
  -5  -5 -19   68.79    5.80
   5  -5  19   62.79    3.60
  -5   5 -19   63.09    5.40
   5   5  19   59.89    5.10
  -5   5 -19   57.69    4.10
   6  -5  19   18.40    2.60
  -6  -5 -19   18.30    3.90
  -6   5 -19   18.20    3.70
   6   5  19   14.70    3.40
   7  -5  19   64.29    4.40
  -7  -5 -19   55.09    5.50
  -7   5 -19   67.09    5.50
   7   5  19   69.79    5.80
   9  -6 -19   19.00    4.20
   9  -6 -19   26.10    5.10
   9   6 -19   28.70    4.80
   9   6 -19   27.80    4.40
   8  -6 -19    2.70    2.80
   8  -6 -19    1.40    2.80
   8   6 -19    4.70    2.50
   8   6 -19    0.10    2.60
   7  -6 -19   80.89    6.90
   7  -6 -19   86.69    6.70
   7   6 -19   80.99    5.40
   7   6 -19   84.09    7.00
   6  -6 -19    8.90    3.20
   6   6 -19    7.20    3.30
   6   6 -19    7.60    2.20
  -6   6  19    6.40    3.10
   5  -6 -19   86.39    6.50
   5   6 -19   84.19    6.60
  -5   6  19   83.29    6.20
   5   6 -19   67.19    4.60
   5   6 -19   79.79    4.40
   4  -6 -19    8.30    3.30
   4   6 -19    7.00    1.60
   4   6 -19    8.70    1.60
  -4   6  19   12.40    3.20
   4   6 -19    5.10    3.00
   3  -6 -19   37.70    5.00
   3   6 -19   36.00    4.90
  -3   6  19   45.30    4.30
   3   6 -19   33.50    2.10
   2  -6 -19   16.20    3.60
   2   6 -19   14.40    3.50
  -2   6  19   19.20    3.30
   1  -6 -19   42.40    5.20
   1   6 -19   41.90    5.10
  -1   6  19   45.60    4.30
   0  -6 -19   42.00    5.60
   0   6  19   41.60    4.70
   0   6 -19   36.10    4.90
  -1  -6 -19  201.08   10.20
  -1   6 -19  204.88   10.30
   1   6  19  192.38    9.20
  -2  -6 -19   32.50    4.70
  -2   6 -19   26.90    4.10
   2   6  19   34.40    4.20
  -3  -6 -19   13.50    3.40
   3   6  19    8.70    2.60
  -3   6 -19    9.20    2.80
   4  -6  19  138.09    5.20
  -4  -6 -19  149.19    8.60
  -4   6 -19  136.99    8.20
   4   6  19  153.48    8.00
  -5  -6 -19   13.70    3.60
   5  -6  19   11.20    1.60
  -5   6 -19   12.00    3.20
   5   6  19    9.80    5.10
  -6  -6 -19  110.19    7.60
   6  -6  19  113.39    5.30
   6   6  19  118.69    7.40
  -6   6 -19  120.39    7.40
   9  -7 -19   12.50    4.10
   9  -7 -19   20.50    4.20
   9   7 -19   26.70    4.50
   9   7 -19   16.00    4.00
   8  -7 -19   29.00    4.80
   8  -7 -19   28.90    4.80
   8   7 -19   25.00    4.60
   8   7 -19   24.60    3.80
   7  -7 -19   97.59    7.30
   7  -7 -19   98.79    7.40
   7   7 -19  101.69    5.90
   7   7 -19   98.79    7.40
   6  -7 -19    4.60    2.80
  -6   7  19    5.30    3.30
   6   7 -19    4.60    3.00
   6   7 -19    5.10    1.90
   5  -7 -19    5.50    2.90
  -5   7  19   10.30    3.20
   5   7 -19    8.40    1.80
   5   7 -19    5.00    1.50
   5   7 -19    7.60    3.30
   4  -7 -19   43.00    5.30
   4   7 -19   38.90    2.50
   4   7 -19   47.00    5.80
   4   7 -19   47.50    2.70
  -4   7  19   42.90    5.10
   3  -7 -19   43.50    5.40
   3   7 -19   37.20    5.00
  -3   7  19   34.90    4.40
   2  -7 -19  104.89    7.20
   2   7 -19   99.09    7.30
  -2   7  19  108.19    6.60
   1  -7 -19    1.60    2.40
   1   7 -19    3.40    2.50
  -1   7  19   -2.50    1.60
   0  -7 -19  127.59    8.00
   0   7  19  132.29    7.30
   0   7 -19  131.89    8.10
  -1  -7 -19   16.50    3.90
  -1   7 -19    9.80    3.10
   1   7  19   13.40    3.20
  -2  -7 -19   43.20    5.40
   2   7  19   48.60    4.60
  -2   7 -19   41.00    5.30
  -3  -7 -19   62.79    5.90
   3   7  19   60.69    5.10
  -3   7 -19   62.29    5.60
  -4  -7 -19   56.39    5.50
   4   7  19   54.99    5.00
  -4   7 -19   47.70    5.50
  -5  -7 -19   50.19    5.70
   5  -7  19   44.90    2.50
  -5   7 -19   57.09    5.30
   5   7  19   54.79    5.20
  -6  -7 -19    3.40    2.80
   6  -7  19    5.50    1.50
   6   7  19    0.60    2.40
  -6   7 -19    4.30    2.40
   9  -8 -19   18.30    4.80
   9  -8 -19   17.30    6.50
   9   8 -19   15.90    4.00
   9   8 -19   21.40    4.00
   8  -8 -19   12.70    4.00
   8  -8 -19    8.00    3.70
   8   8 -19    5.80    2.70
   7  -8 -19   14.80    4.20
   7  -8 -19   19.60    4.20
   7   8 -19   15.50    3.00
   7   8 -19   20.30    4.20
   6  -8 -19    6.90    2.90
   6   8 -19    2.50    1.60
   6   8 -19    5.30    3.20
   6   8 -19    6.80    2.00
  -6   8  19    8.30    3.50
   5  -8 -19   31.00    4.70
   5   8 -19   25.80    4.70
   5   8 -19   21.80    2.30
  -5   8  19   23.70    4.20
   5   8 -19   27.10    2.50
   4  -8 -19    1.80    2.60
   4   8 -19    1.70    2.70
  -4   8  19    0.60    2.60
   4   8 -19    2.20    1.00
   3  -8 -19   44.70    5.60
  -3   8  19   34.60    4.50
   3   8 -19   38.20    5.10
   2  -8 -19    2.30    2.80
   2   8 -19    0.30    2.30
  -2   8  19   -0.90    1.90
   1  -8 -19   67.09    6.00
   1   8 -19   68.59    6.20
  -1   8  19   57.99    5.10
   0  -8 -19    3.70    2.70
   0   8 -19    3.20    2.70
   0   8  19    1.10    2.20
  -1  -8 -19   18.90    4.00
   1   8  19   11.50    3.00
  -1   8 -19   16.60    4.00
  -2  -8 -19    0.60    2.50
   2   8  19    0.20    2.00
  -2   8 -19    4.20    2.40
  -3  -8 -19    5.90    3.10
   3   8  19    2.70    2.40
  -3   8 -19    4.30    2.60
  -4  -8 -19   31.40    4.90
  -4   8 -19   37.60    5.20
   4   8  19   35.90    4.70
  -5  -8 -19    1.60    2.70
  -5   8 -19    1.20    2.20
   5   8  19    5.10    2.70
  -6   8 -19  112.59    9.00
   6   8  19  112.39    7.70
   8  -9 -19    5.10    3.60
   8  -9 -19    8.70    3.40
   8   9 -19    8.50    3.40
   8   9 -19   12.20    2.90
   7  -9 -19    5.70    3.40
   7  -9 -19    6.00    3.40
   7   9 -19    9.90    3.70
   6   9 -19   14.50    2.30
   6   9 -19    8.90    6.40
  -6   9  19   17.90    4.20
   5  -9 -19   15.90    3.90
  -5   9  19   16.60    4.20
   5   9 -19   11.00    1.60
   5   9 -19   17.10    5.30
   5   9 -19    7.80    1.50
   4  -9 -19   25.10    4.50
   4   9 -19   17.50    4.10
  -4   9  19   21.00    4.20
   3  -9 -19    6.50    3.30
   3   9 -19    4.30    3.00
  -3   9  19   10.50    3.20
   2  -9 -19   24.30    4.20
  -2   9  19   23.40    3.80
   2   9 -19   19.40    4.20
   1  -9 -19    3.00    2.70
   1   9 -19   -1.50    2.30
  -1   9  19   -0.50    2.00
   0  -9 -19    5.60    3.00
   0   9  19    5.80    2.70
   0   9 -19    6.10    3.20
  -1  -9 -19    0.00    2.30
  -1   9 -19   -0.10    2.30
   1   9  19    2.60    2.50
  -2  -9 -19    2.30    2.60
   2   9  19   -1.30    2.10
  -2   9 -19   -0.20    2.40
  -3   9 -19    8.30    3.40
   3   9  19   11.20    3.10
  -4  -9 -19   -2.40    2.40
   4   9  19    1.30    2.10
  -5  -9 -19    9.30    3.40
  -5   9 -19   12.10    3.30
   5   9  19    7.70    3.00
   8 -10 -19   11.70    4.20
   8 -10 -19    7.40    3.60
   8  10 -19    3.90    3.20
   8  10 -19    3.40    2.30
   7 -10 -19    1.10    3.30
   7 -10 -19   -0.30    2.40
   7  10 -19   -4.10    2.70
   7  10 -19   -2.10    1.80
   6 -10 -19    9.30    3.60
   6  10 -19   11.40    2.10
   6  10 -19   13.10    3.80
  -6  10  19   11.40    3.60
   5 -10 -19    8.50    3.30
  -5  10  19   11.90    3.60
   5  10 -19    7.70    3.30
   5  10 -19    5.50    1.20
   4 -10 -19   31.20    5.00
   4  10 -19   34.10    5.20
  -4  10  19   26.50    4.80
   3 -10 -19    8.40    3.40
   3  10 -19    4.70    3.30
   2 -10 -19   24.80    6.90
   2  10 -19   16.50    5.00
  -2  10  19   24.20    4.70
   1 -10 -19   23.20    5.60
  -1  10  19   24.50    4.30
   1  10 -19   25.80    7.20
   0 -10 -19   23.30    4.80
   0  10 -19   18.70    5.10
   0  10  19   13.50    5.60
  -1 -10 -19   21.70    4.40
  -1  10 -19   23.80    4.50
   1  10  19   20.90    3.80
  -2 -10 -19    2.50    2.70
  -2  10 -19    0.80    2.40
   2  10  19    3.70    2.50
  -3 -10 -19   24.50    4.60
  -3  10 -19   20.50    4.20
   3  10  19   24.10    4.40
  -4 -10 -19    3.10    2.80
  -4  10 -19   -1.40    2.10
   4  10  19    2.30    2.40
  -5 -10 -19   19.30    4.30
  -5  10 -19   11.80    3.60
   5  10  19   19.90    4.40
   7 -11 -19   -1.00    2.60
   7 -11 -19    3.30    3.20
   7  11 -19    2.10    3.20
   7  11 -19   -1.60    1.60
  -7  11  19   -0.30    3.00
   6 -11 -19    6.50    3.30
  -6  11  19    5.00    3.30
   6  11 -19   -0.10    3.10
   6  11 -19    1.90    1.30
   5 -11 -19   -2.40    2.40
  -5  11  19    1.50    2.90
   5  11 -19    0.40    2.70
   4 -11 -19    7.60    3.50
   4  11 -19   11.80    3.80
  -4  11  19   11.70    3.60
   3 -11 -19   -0.90    2.60
   3  11 -19    5.80    3.30
  -3  11  19   -0.80    2.40
   2 -11 -19    5.60    3.20
   2  11 -19   10.10    3.80
  -2  11  19    6.10    2.90
   1 -11 -19   -2.10    2.50
   1  11 -19    6.60    3.50
  -1  11  19    2.00    2.40
   0 -11 -19    7.50    3.10
   0  11 -19   11.40    3.80
   0  11  19   10.20    3.30
  -1 -11 -19    1.90    2.80
  -1  11 -19   -2.30    2.30
   1  11  19    1.90    2.50
  -2 -11 -19   -1.30    2.40
   2  11  19    2.10    2.60
  -2  11 -19    1.20    2.70
  -3 -11 -19   -3.20    2.10
   3  11  19   -0.50    2.20
  -3  11 -19   -1.00    2.30
  -4 -11 -19    0.00    2.70
   4  11  19    3.40    2.70
  -4  11 -19    1.40    2.60
   6 -12 -19    4.40    3.20
  -6  12  19    6.70    3.60
   6  12 -19    6.30    3.50
   5 -12 -19   10.10    3.70
   5  12 -19    6.10    3.60
  -5  12  19    6.90    3.50
   4 -12 -19    5.20    3.20
  -4  12  19   -0.70    2.60
   4  12 -19    7.60    3.70
   3 -12 -19   23.20    4.60
   3  12 -19   11.40    4.00
  -3  12  19    9.20    3.40
   2 -12 -19    1.70    2.90
   2  12 -19   -0.50    2.90
  -2  12  19    2.10    2.70
   1 -12 -19    2.20    2.90
  -1  12  19   -0.20    2.60
   1  12 -19    1.30    3.00
   0 -12 -19    3.20    2.80
   0  12  19   -0.70    2.20
   0  12 -19    0.60    2.80
  -1 -12 -19   -1.00    2.90
   1  12  19   -0.40    2.50
  -1  12 -19   -0.40    2.50
  -2 -12 -19    2.70    3.00
   2  12  19   13.70    3.80
  -2  12 -19   13.80    4.00
  -3 -12 -19    6.30    3.30
   3  12  19   -2.20    2.20
  -3  12 -19    4.50    3.30
   5 -13 -19    2.60    3.20
  -5  13  19   -2.10    2.60
   5  13 -19    1.70    3.00
   4 -13 -19    3.40    3.20
  -4  13  19    1.30    3.40
   4  13 -19    1.90    3.20
   3 -13 -19    6.10    3.20
   3  13 -19    4.70    3.30
  -3  13  19    3.50    3.40
   2 -13 -19    5.40    3.50
  -2  13  19    8.90    3.50
   2  13 -19   12.30    4.00
   1 -13 -19   18.90    4.60
   1  13 -19   27.70    5.10
  -1  13  19   32.70    5.30
   0 -13 -19    0.10    3.00
   0  13 -19   -1.30    2.70
   0  13  19    3.90    3.00
  -1 -13 -19    5.70    3.50
   1  13  19    7.10    3.80
  -1  13 -19    6.80    3.50
  -2 -13 -19   -0.70    2.90
  -2  13 -19   -0.70    2.60
   2  13  19   -2.30    2.30
   3 -14 -19   22.60    4.70
  -3  14  19   26.90    5.10
   3  14 -19   22.00    4.90
   2 -14 -19    8.00    3.40
   2  14 -19    6.90    4.10
  -2  14  19   12.20    3.90
   1 -14 -19   19.40    4.60
   1  14 -19   29.80    5.50
  -1  14  19   23.90    4.70
   0 -14 -19    0.50    2.90
   0  14  19   -0.90    2.50
   0  14 -19    2.40    3.20
  10   0 -20   70.29    6.70
  10   0 -20   49.40    5.70
   9   0 -20    4.70    3.70
   9   0 -20    5.10    2.90
   8   0 -20    9.40    3.40
   8   0 -20   10.20    3.10
   7   0 -20    7.10    2.90
   7   0 -20    4.20    2.80
   6   0 -20   38.60    5.20
   6   0 -20   37.30    4.60
   5   0 -20    0.60    1.90
   5   0 -20   -1.10    2.10
   4   0 -20   20.30    3.00
   4   0 -20   19.20    3.80
   3   0 -20  179.98    9.70
  -3   0  20  185.08    8.10
   2   0 -20   16.60    4.00
  -2   0  20   15.90    2.60
   1   0 -20  120.99    7.50
  -1   0  20  112.39    5.60
   1   0 -20  107.79    6.10
   0   0 -20    9.00    2.90
   0   0  20    9.10    2.00
   0   0 -20    4.90    1.70
  -1   0 -20  463.15   18.20
   1   0  20  454.75   15.90
   2   0  20   34.70    3.10
  -2   0 -20   28.40    4.30
   3   0  20  185.78    8.00
  -3   0 -20  190.28    9.70
  -4   0 -20   94.99    6.70
   4   0  20  100.39    5.50
   5   0  20  166.38    8.00
  -5   0 -20  172.38    9.10
   6   0  20   39.10    3.90
  -6   0 -20   37.20    5.00
  -7   0 -20   13.00    3.20
   7   0  20   11.10    2.60
  10  -1 -20   60.19    6.90
  10  -1 -20   59.59    5.70
  10   1 -20   54.19    6.40
  10   1 -20   47.30    5.70
   9  -1 -20    6.20    3.60
   9  -1 -20    4.90    2.90
   9   1 -20    8.30    3.50
   9   1 -20    2.90    2.60
   8  -1 -20   11.20    3.50
   8  -1 -20    7.70    3.30
   8   1 -20    7.00    3.10
   8   1 -20    7.00    3.10
   7  -1 -20   15.50    3.80
   7  -1 -20   12.00    3.20
   7   1 -20   12.30    3.20
   7   1 -20   10.20    3.40
   6  -1 -20    4.90    2.50
   6  -1 -20    2.50    2.80
   6   1 -20    3.00    2.10
   6   1 -20   -0.10    2.60
   5  -1 -20   19.60    3.30
   5  -1 -20   25.20    4.20
   5   1 -20   23.80    3.40
   5   1 -20   16.20    3.70
   4  -1 -20   14.80    3.50
   4   1 -20   13.00    3.40
   4   1 -20   13.60    2.50
   3  -1 -20   50.19    5.60
  -3   1  20   50.09    4.10
   3   1 -20   46.90    4.00
   3   1 -20   48.30    5.40
   3   1 -20   53.29    3.70
  -2  -1  20   70.79    4.20
   2  -1 -20   66.19    5.80
   2   1 -20   61.19    3.90
   2   1 -20   63.69    5.70
   1  -1 -20   82.49    6.30
  -1  -1  20   90.69    4.60
   1   1 -20   90.79    6.50
   1   1 -20   70.99    4.30
  -1   1  20   82.49    4.90
   0  -1  20  351.46   12.20
   0  -1 -20  352.86   14.60
   0   1  20  328.77   12.60
   0   1 -20  337.47   14.40
   0   1 -20  328.27   12.20
   1  -1  20   10.40    2.00
  -1  -1 -20    7.60    2.80
  -1   1 -20   14.30    3.30
  -1   1 -20    7.70    1.90
   2  -1  20  332.27   11.90
  -2  -1 -20  331.97   14.20
  -2   1 -20  312.17   12.10
  -2   1 -20  348.07   14.30
   2   1  20  327.97   12.40
   3  -1  20   14.10    2.30
  -3  -1 -20   21.10    4.00
  -3   1 -20    9.70    2.90
   3   1  20   14.60    2.50
  -4  -1 -20  158.68    8.90
   4  -1  20  161.78    7.20
  -4   1 -20  175.58    9.10
   4   1  20  152.28    7.50
   5  -1  20   14.60    2.60
  -5  -1 -20   10.70    3.00
   5   1  20   19.10    3.20
  -5   1 -20   11.70    3.10
  -6  -1 -20  135.59    8.00
   6  -1  20  132.19    6.90
  -6   1 -20  138.69    8.00
   6   1  20  137.89    7.30
  -7  -1 -20   20.40    3.90
   7  -1  20   17.70    3.20
  -7   1 -20   14.50    3.20
   7   1  20   11.90    2.90
  10  -2 -20    4.70    3.50
  10  -2 -20    5.40    3.20
  10   2 -20    4.00    2.90
  10   2 -20    4.20    3.40
   9  -2 -20    2.00    2.60
   9  -2 -20   -1.60    2.40
   9   2 -20   -1.70    2.50
   9   2 -20    0.80    2.70
   8  -2 -20   21.30    4.10
   8  -2 -20   25.80    4.50
   8   2 -20   33.70    4.70
   8   2 -20   27.60    4.50
   7  -2 -20    3.50    2.60
   7  -2 -20    4.10    3.10
   7   2 -20   -0.20    2.60
   7   2 -20    0.10    2.20
   6  -2 -20   17.60    4.00
   6  -2 -20   15.60    3.40
   6   2 -20   16.70    3.20
   6   2 -20   14.50    3.70
   5  -2 -20  166.38    9.10
   5  -2 -20  159.28    8.10
   5   2 -20  151.48    8.90
   4  -2 -20   78.09    6.40
   4   2 -20   90.69    5.00
   4   2 -20   90.39    6.60
  -4   2  20   72.39    5.40
   3  -2 -20   93.19    6.60
  -3   2  20   85.99    5.30
   3   2 -20   83.49    4.60
   3   2 -20   67.89    4.20
   3   2 -20   82.89    6.40
   2  -2 -20   62.99    5.70
  -2   2  20   67.79    4.60
   2   2 -20   68.89    5.80
   1  -2 -20   41.50    5.40
  -1  -2  20   40.70    3.00
  -1   2  20   36.80    3.50
   1   2 -20   37.60    4.90
   1   2 -20   39.70    2.90
   0  -2  20   10.80    1.90
   0  -2 -20   12.50    3.30
   0   2  20    9.00    2.20
   0   2 -20   10.80    3.20
   0   2 -20   12.00    2.00
  -1  -2 -20  151.78    8.60
   1  -2  20  160.18    6.30
   1   2  20  147.89    7.10
  -1   2 -20  144.69    6.30
  -1   2 -20  145.59    8.40
  -2  -2 -20    8.10    2.90
   2  -2  20   12.70    2.10
  -2   2 -20    7.90    2.70
  -2   2 -20    8.50    1.90
   2   2  20   10.70    2.30
   3  -2  20  148.29    6.30
  -3  -2 -20  143.89    8.40
  -3   2 -20  161.98    8.70
   3   2  20  143.49    7.10
  -3   2 -20  135.99    6.50
   4  -2  20    9.10    1.90
  -4  -2 -20    9.20    3.10
   4   2  20    6.40    2.10
  -4   2 -20    8.10    2.90
  -5  -2 -20   47.90    5.50
   5  -2  20   46.80    3.70
  -5   2 -20   49.99    4.90
   5   2  20   51.59    4.40
  -6  -2 -20   41.90    5.20
   6  -2  20   39.30    3.60
   6   2  20   47.90    5.00
  -6   2 -20   40.40    4.90
  -7  -2 -20   20.90    3.90
   7  -2  20   19.80    3.20
   7   2  20   18.00    3.40
  -7   2 -20   18.90    3.50
  10  -3 -20   16.30    4.30
  10  -3 -20   12.30    3.40
  10   3 -20   16.10    4.10
  10   3 -20   19.00    4.10
   9  -3 -20    1.10    2.70
   9  -3 -20    2.60    3.10
   9   3 -20    6.10    3.20
   9   3 -20    3.80    2.80
   8  -3 -20    2.90    2.70
   8  -3 -20    5.80    3.50
   8   3 -20    7.60    3.00
   8   3 -20    4.20    2.60
   7  -3 -20   23.00    4.30
   7  -3 -20   17.30    3.80
   7   3 -20   20.30    4.00
   7   3 -20   22.30    3.70
   6  -3 -20   77.59    5.90
   6  -3 -20   68.69    6.30
   6   3 -20   67.49    6.10
   6   3 -20   80.39    5.20
   5  -3 -20    7.40    2.80
   5  -3 -20    5.00    2.60
   5   3 -20    9.10    2.40
   5   3 -20    1.00    2.60
   4  -3 -20  117.09    7.50
   4   3 -20   97.59    5.10
   4   3 -20  103.69    5.40
  -4   3  20  106.59    6.50
   4   3 -20  110.09    7.40
   3  -3 -20    7.50    2.90
   3   3 -20    9.30    2.10
   3   3 -20   10.90    1.90
  -3   3  20    5.90    2.40
   3   3 -20    9.50    3.20
   2  -3 -20   80.59    6.50
  -2   3  20   93.69    5.60
   2   3 -20   84.79    4.30
   2   3 -20   94.19    4.40
   2   3 -20   98.99    6.90
   1  -3 -20   59.89    5.60
  -1   3  20   59.69    4.40
   1   3 -20   61.59    5.60
   1   3 -20   58.99    3.30
   0  -3 -20   61.89    5.60
   0  -3  20   63.09    3.30
   0   3 -20   67.59    5.70
   0   3 -20   58.49    3.20
   0   3  20   61.99    4.40
   1  -3  20   23.20    2.00
  -1  -3 -20   24.30    4.20
   1   3  20   21.00    3.10
  -1   3 -20   16.60    2.00
  -1   3 -20   18.70    3.60
   2  -3  20  134.19    5.60
  -2  -3 -20  133.79    8.10
  -2   3 -20  130.79    5.70
   2   3  20  145.19    7.00
  -2   3 -20  137.49    8.10
   3  -3  20   18.40    2.20
  -3  -3 -20   19.60    3.80
   3   3  20   15.80    2.80
  -3   3 -20   15.70    3.40
   4  -3  20   59.09    3.60
  -4  -3 -20   61.89    5.60
  -4   3 -20   50.59    3.60
   4   3  20   65.49    4.70
  -4   3 -20   66.29    5.50
   5  -3  20    2.70    2.70
  -5  -3 -20    2.90    2.60
   5   3  20    1.10    2.00
  -5   3 -20    3.90    2.40
  -6  -3 -20    0.90    2.20
   6  -3  20    3.90    1.80
  -6   3 -20    0.90    2.10
   6   3  20    3.00    2.20
  -7  -3 -20   50.29    5.70
   7  -3  20   42.30    4.00
  -7   3 -20   58.49    5.10
   7   3  20   45.90    5.20
   9  -4 -20   15.70    4.30
   9  -4 -20   12.10    3.60
   9   4 -20   13.00    3.60
   9   4 -20    4.80    3.20
   8  -4 -20    1.60    2.80
   8  -4 -20    2.80    2.80
   8   4 -20    7.30    3.00
   8   4 -20    3.10    2.80
   7  -4 -20    1.60    2.70
   7  -4 -20    3.50    2.90
   7   4 -20    1.00    2.80
   7   4 -20    1.90    2.30
   6  -4 -20   26.90    4.40
   6  -4 -20   30.00    4.60
   6   4 -20   34.30    3.80
   6   4 -20   31.40    4.80
   5  -4 -20   13.00    3.50
  -5   4  20   11.20    3.20
   5   4 -20    9.30    2.20
   5   4 -20    6.30    2.90
   4  -4 -20   63.69    5.80
  -4   4  20   58.09    5.10
   4   4 -20   63.99    5.80
   4   4 -20   70.69    4.10
   4   4 -20   50.49    4.20
   3  -4 -20   -0.70    2.10
  -3   4  20    2.30    2.10
   3   4 -20    2.20    2.40
   3   4 -20    3.40    1.30
   3   4 -20    2.20    1.40
   2  -4 -20   46.80    5.70
   2   4 -20   57.69    3.00
   2   4 -20   56.89    5.50
  -2   4  20   48.10    4.30
   2   4 -20   52.49    2.90
   1  -4 -20    3.60    2.70
   1   4 -20    3.50    1.00
   1   4 -20    2.20    2.30
   1   4 -20    2.80    1.10
  -1   4  20    1.30    1.90
   0  -4 -20   37.30    5.00
   0   4 -20   45.90    5.40
   0   4 -20   42.20    2.30
   0   4  20   40.60    3.90
  -1  -4 -20   31.90    4.60
   1  -4  20   25.50    1.90
   1   4  20   21.80    3.30
  -1   4 -20   25.90    1.80
  -1   4 -20   24.10    4.10
  -2  -4 -20   26.10    4.40
   2  -4  20   19.90    2.00
  -2   4 -20   17.30    1.70
  -2   4 -20   22.30    3.90
   2   4  20   23.10    3.40
   3  -4  20  109.89    4.60
  -3  -4 -20  112.49    7.40
  -3   4 -20  117.69    7.30
   3   4  20  101.29    6.10
  -3   4 -20  106.49    4.70
  -4  -4 -20   54.89    5.30
   4  -4  20   46.80    3.00
  -4   4 -20   54.09    5.80
   4   4  20   36.20    4.40
  -5  -4 -20   27.10    4.50
   5  -4  20   28.00    2.90
   5   4  20   26.30    3.90
  -5   4 -20   28.80    4.30
   6  -4  20   -0.30    1.40
  -6  -4 -20   -2.00    2.10
   6   4  20   -1.80    1.80
  -6   4 -20   -0.20    1.90
   9  -5 -20    0.00    2.60
   9  -5 -20    1.70    3.00
   9   5 -20    6.50    3.00
   9   5 -20    4.20    3.10
   8  -5 -20   -1.10    2.70
   8  -5 -20    0.20    2.70
   8   5 -20    1.40    2.50
   8   5 -20    0.40    2.70
   7  -5 -20    3.40    3.00
   7  -5 -20    3.00    3.20
   7   5 -20    1.70    2.90
   7   5 -20    7.20    2.60
   6  -5 -20    9.70    3.30
   6  -5 -20   10.90    3.50
   6   5 -20    8.50    2.80
   6   5 -20    7.30    3.20
   5  -5 -20    2.80    2.50
  -5   5  20    2.30    2.60
   5   5 -20    1.30    1.40
   5   5 -20    3.50    1.90
   5   5 -20   -1.20    2.30
   4  -5 -20   25.30    4.40
   4   5 -20   20.40    4.20
  -4   5  20   26.60    4.10
   4   5 -20   24.80    2.60
   4   5 -20   19.90    2.40
   3  -5 -20    1.20    2.50
   3   5 -20    4.20    2.70
   3   5 -20    4.30    1.20
   3   5 -20    4.90    1.30
  -3   5  20    7.30    2.50
   2  -5 -20    0.60    2.30
  -2   5  20    2.40    1.90
   2   5 -20    2.50    1.10
   2   5 -20    2.60    2.50
   1  -5 -20   18.40    3.70
  -1   5  20   19.20    3.30
   1   5 -20   12.50    3.50
   0  -5 -20   34.40    4.80
   0   5  20   40.50    3.90
   0   5 -20   42.10    5.60
  -1  -5 -20    7.60    3.00
   1   5  20    4.60    2.20
  -1   5 -20    2.10    2.40
  -2  -5 -20   24.60    4.30
  -2   5 -20   29.60    4.40
   2   5  20   31.50    4.00
  -3  -5 -20   23.10    4.30
   3  -5  20   19.80    1.60
  -3   5 -20   19.50    1.60
  -3   5 -20   18.80    3.70
   3   5  20   22.90    3.40
  -4  -5 -20   53.09    6.30
   4  -5  20   39.80    2.50
  -4   5 -20   38.70    2.60
  -4   5 -20   43.60    5.40
   4   5  20   50.79    4.60
   5  -5  20    5.40    1.40
  -5  -5 -20    3.40    2.50
  -5   5 -20    7.50    2.80
   5   5  20    3.30    2.20
  -6  -5 -20   11.40    3.60
   6  -5  20   14.00    2.40
   6   5  20   18.40    3.50
  -6   5 -20   17.70    3.60
   9  -6 -20    5.90    3.60
   9  -6 -20    2.40    3.30
   9   6 -20    5.60    3.20
   8  -6 -20    7.90    3.50
   8  -6 -20    8.00    3.60
   8   6 -20   11.10    3.90
   8   6 -20   11.70    3.00
   7  -6 -20    0.90    2.70
   7  -6 -20    2.90    2.90
   7   6 -20    1.30    1.90
   7   6 -20   -2.00    2.70
   6  -6 -20    6.50    3.20
   6  -6 -20    6.50    2.80
   6   6 -20    4.80    2.10
   6   6 -20    6.90    3.30
  -6   6  20    6.10    3.10
   5  -6 -20    5.10    2.80
   5   6 -20    2.00    1.60
  -5   6  20    1.40    2.50
   5   6 -20   -0.50    2.40
   5   6 -20    2.50    1.50
   4  -6 -20   22.40    4.20
   4   6 -20   20.10    2.10
  -4   6  20   14.90    3.50
   4   6 -20   24.10    4.40
   4   6 -20   18.90    2.10
   3  -6 -20   32.60    4.80
   3   6 -20   24.10    4.30
  -3   6  20   36.50    4.70
   3   6 -20   25.10    2.50
   2  -6 -20   -1.20    2.10
  -2   6  20    0.90    2.10
   2   6 -20   -1.20    2.10
   1  -6 -20    3.90    2.50
   1   6 -20    1.90    2.40
  -1   6  20    4.10    2.20
   0  -6 -20   27.70    4.60
   0   6  20   30.40    4.00
   0   6 -20   28.80    4.60
  -1  -6 -20    3.40    2.70
   1   6  20    4.80    2.10
  -1   6 -20    4.00    2.70
  -2  -6 -20    3.90    2.60
  -2   6 -20    3.90    2.60
   2   6  20    5.30    2.30
  -3  -6 -20    0.50    2.50
   3   6  20    2.20    2.20
  -3   6 -20    0.20    2.20
  -4  -6 -20    6.60    3.00
  -4   6 -20   14.00    3.50
   4   6  20   10.40    2.90
  -5  -6 -20   -0.90    2.40
   5  -6  20    0.70    0.90
  -5   6 -20    1.50    2.30
   5   6  20   -1.10    1.80
   6  -6  20    2.70    1.40
  -6  -6 -20    5.30    3.00
   6   6  20    3.30    2.60
  -6   6 -20    4.30    2.50
   9  -7 -20    3.40    3.20
   9  -7 -20   11.50    4.00
   9   7 -20    8.00    3.20
   9   7 -20    1.70    2.70
   8  -7 -20   12.10    3.70
   8   7 -20    5.60    2.70
   8   7 -20    7.20    3.90
   7  -7 -20   18.80    4.20
   7  -7 -20   13.80    4.00
   7   7 -20   13.60    4.80
   7   7 -20   14.20    2.80
   6  -7 -20    8.80    3.30
   6   7 -20    6.30    2.20
   6   7 -20    3.70    2.10
   6   7 -20    2.80    3.30
   5  -7 -20    3.60    2.70
   5   7 -20    7.20    1.80
  -5   7  20    8.90    3.20
   5   7 -20   10.40    3.70
   5   7 -20    3.00    1.40
   4  -7 -20   19.70    4.10
   4   7 -20   14.80    1.70
   4   7 -20   15.60    4.00
   4   7 -20   18.30    1.80
  -4   7  20   15.50    3.50
   3  -7 -20    4.10    2.70
  -3   7  20    5.80    2.70
   3   7 -20    0.30    2.50
   2  -7 -20   16.30    3.70
   2   7 -20   10.00    3.40
  -2   7  20   15.30    3.20
   1  -7 -20   21.20    4.40
   1   7 -20   20.80    4.20
  -1   7  20   14.40    3.10
   0  -7 -20    5.50    2.90
   0   7  20    6.20    2.40
   0   7 -20    4.90    2.90
  -1  -7 -20    3.30    2.70
   1   7  20    2.80    2.30
  -1   7 -20    0.10    2.20
  -2  -7 -20    4.70    3.10
   2   7  20    9.30    2.70
  -2   7 -20    4.40    2.70
  -3  -7 -20    1.40    2.60
   3   7  20    3.60    2.50
  -3   7 -20    1.50    2.40
  -4  -7 -20    2.80    2.70
  -4   7 -20    0.40    2.30
   4   7  20    3.90    2.50
  -5   7 -20    6.80    3.20
   5   7  20    7.70    2.70
   8  -8 -20   11.30    4.50
   8  -8 -20    7.60    3.30
   8   8 -20   -0.10    2.70
   8   8 -20    2.90    2.20
   7  -8 -20    0.10    2.70
   7  -8 -20   -0.60    2.70
   7   8 -20   -2.40    2.70
   7   8 -20    0.10    1.90
   6   8 -20    5.40    3.60
  -6   8  20   -0.20    2.80
   6   8 -20    3.20    1.70
   5  -8 -20   21.00    4.90
   5   8 -20    9.00    1.60
   5   8 -20   14.00    1.90
   4  -8 -20   28.00    4.60
  -4   8  20   27.50    4.70
   4   8 -20   23.80    4.80
   3  -8 -20   -1.30    2.30
  -3   8  20   -2.50    2.10
   3   8 -20    0.00    2.60
   2  -8 -20    5.80    3.00
  -2   8  20    3.50    2.50
   2   8 -20    2.00    3.00
   1  -8 -20   23.50    4.50
   1   8 -20   21.50    4.40
  -1   8  20   24.00    3.80
   0  -8 -20  104.69    7.60
   0   8 -20  116.39    7.90
   0   8  20  103.49    6.70
  -1  -8 -20   16.60    3.80
  -1   8 -20   15.30    3.60
   1   8  20   17.50    3.40
  -2  -8 -20   14.20    4.70
   2   8  20   23.00    3.70
  -2   8 -20    9.80    3.60
   3   8  20   40.10    5.00
  -4  -8 -20    3.80    2.90
   4   8  20    1.30    2.20
  -4   8 -20    0.80    2.60
  -5  -8 -20   69.79    6.50
  -5   8 -20   67.29    6.00
   5   8  20   63.29    5.80
   8  -9 -20    8.00    4.00
   8  -9 -20    0.50    3.00
   8   9 -20    3.10    2.30
   8   9 -20    0.10    2.70
   7  -9 -20   59.59    6.80
   7  -9 -20   48.80    6.00
   7   9 -20   42.10    5.80
   7   9 -20   44.50    6.00
   6  -9 -20   31.60    5.10
  -6   9  20   31.60    5.10
   6   9 -20   31.30    5.10
   6   9 -20   33.60    3.00
   5  -9 -20    7.90    3.20
   5   9 -20    3.30    1.10
   5   9 -20    4.50    3.00
   5   9 -20    2.70    1.20
  -5   9  20    4.40    3.00
   4  -9 -20   63.29    7.10
   4   9 -20   71.29    6.70
  -4   9  20   56.49    6.70
   3  -9 -20    2.80    3.20
   3   9 -20    1.50    2.90
  -3   9  20    3.10    2.90
   2  -9 -20  115.49    9.80
   2   9 -20  112.89    9.50
  -2   9  20  113.89    7.40
   1  -9 -20   35.50    5.80
  -1   9  20   29.80    4.40
   1   9 -20   31.30    6.30
   0  -9 -20   33.60    5.40
   0   9 -20   43.80    6.80
   0   9  20   37.70    4.60
  -1  -9 -20   29.20    5.10
  -1   9 -20   15.70    3.90
  -2  -9 -20   55.89    6.20
  -2   9 -20   48.40    5.90
   2   9  20   53.99    5.30
  -3  -9 -20   16.50    4.10
   3   9  20   34.60    5.00
  -3   9 -20   35.00    5.20
  -4  -9 -20   29.80    5.20
   4   9  20   28.80    4.60
  -4   9 -20   32.70    4.80
  -5  -9 -20    1.30    2.90
   7 -10 -20    9.30    3.70
   7 -10 -20    5.40    3.20
   7  10 -20    4.80    3.30
   7  10 -20    5.00    2.10
   6 -10 -20    9.00    3.70
  -6  10  20   12.30    4.10
   6  10 -20    5.40    3.40
   6  10 -20    9.60    1.70
   5 -10 -20    7.70    3.30
   5  10 -20    3.30    3.00
  -5  10  20    9.20    3.50
   4 -10 -20   11.60    3.90
   4  10 -20   10.50    3.70
  -4  10  20   14.70    3.90
   3 -10 -20    8.50    3.60
  -3  10  20   13.90    3.40
   3  10 -20   12.60    3.80
   2 -10 -20    3.20    3.00
   2  10 -20    3.80    2.80
  -2  10  20    2.50    2.80
   1 -10 -20   37.50    5.50
  -1  10  20   37.00    5.00
   1  10 -20   38.50    5.60
   0 -10 -20    7.60    3.20
   0  10  20   10.00    3.30
   0  10 -20    5.50    3.10
  -1 -10 -20  126.49    8.70
   1  10  20  129.89    8.00
  -1  10 -20  142.39    8.90
  -2 -10 -20   11.40    3.70
   2  10  20   11.60    3.10
  -2  10 -20    7.90    3.20
  -3 -10 -20   14.80    3.90
  -3  10 -20   19.70    4.20
   3  10  20   24.40    4.50
  -4 -10 -20   -2.20    2.40
   4  10  20   -0.20    2.20
  -4  10 -20    1.50    2.50
   6 -11 -20    2.10    3.10
   6  11 -20    2.00    2.10
  -6  11  20    3.80    3.50
   6  11 -20    6.90    3.80
   5 -11 -20   14.70    4.10
   5  11 -20   14.70    4.20
  -5  11  20   11.80    3.80
   4 -11 -20   11.60    3.80
  -4  11  20   13.10    3.70
   4  11 -20    3.50    2.90
   3 -11 -20   42.60    5.90
   3  11 -20   36.40    5.70
  -3  11  20   33.00    4.90
   2 -11 -20   62.99    6.90
   2  11 -20   75.99    6.90
  -2  11  20   71.49    6.20
   1 -11 -20   13.90    3.90
  -1  11  20   11.00    3.20
   1  11 -20   13.80    3.90
   0 -11 -20   59.79    6.70
   0  11  20   46.50    5.50
   0  11 -20   59.69    6.60
  -1 -11 -20   10.40    3.80
  -1  11 -20    6.30    3.30
   1  11  20    6.10    3.00
  -2 -11 -20   94.29    7.70
   2  11  20   92.09    7.00
  -2  11 -20   86.59    7.40
  -3 -11 -20   -0.10    2.50
   3  11  20    0.30    2.20
  -3  11 -20   -0.10    2.50
   5 -12 -20    1.60    2.90
   5  12 -20    0.70    3.00
  -5  12  20    1.40    2.80
   4 -12 -20    4.40    3.40
   4  12 -20    3.00    3.30
  -4  12  20    0.50    2.80
   3 -12 -20   35.80    5.60
  -3  12  20   40.30    5.50
   3  12 -20   42.70    6.00
   2 -12 -20    6.00    3.50
  -2  12  20    2.10    3.30
   2  12 -20    5.20    3.30
   1 -12 -20   42.60    6.10
  -1  12  20   42.20    5.40
   1  12 -20   47.70    6.30
   0 -12 -20    0.30    2.70
   0  12  20    0.90    2.50
   0  12 -20    2.20    3.10
  -1 -12 -20   41.80    6.00
  -1  12 -20   45.50    6.30
   1  12  20   50.49    6.00
  -2 -12 -20   -1.60    2.90
  -2  12 -20    8.20    3.50
   2  12  20    1.70    2.50
   3 -13 -20   30.30    5.50
   3  13 -20   29.50    5.60
  -3  13  20   27.20    5.00
   2 -13 -20    5.70    3.50
   2  13 -20    6.40    3.80
  -2  13  20   11.50    3.90
   1 -13 -20   20.40    4.80
  -1  13  20   17.50    4.30
   1  13 -20   23.70    5.10
   0 -13 -20   16.80    4.30
   0  13  20   21.60    4.30
   0  13 -20   24.00    5.20
   9   0 -21    4.00    3.10
   9   0 -21   -2.50    2.40
   8   0 -21   -0.30    2.30
   8   0 -21    1.00    2.50
   7   0 -21    0.10    2.30
   7   0 -21   -1.50    2.50
   6   0 -21   16.00    3.80
   6   0 -21   16.10    3.30
   5   0 -21    1.50    1.90
   5   0 -21    0.10    2.30
   4   0 -21   -0.20    2.20
   4   0 -21    2.50    1.80
   3   0 -21    0.40    2.50
  -3   0  21    2.10    1.80
  -2   0  21    1.80    1.60
   2   0 -21    4.00    2.60
  -1   0  21    1.80    1.60
   1   0 -21    4.10    2.60
   0   0  21   -0.10    1.30
   0   0 -21    0.00    2.20
  -1   0 -21    2.60    2.40
   1   0  21    2.30    1.40
   2   0  21   -1.60    1.30
  -2   0 -21   -2.70    1.80
   3   0  21    1.40    1.50
  -3   0 -21   -2.00    1.60
  -4   0 -21   -1.30    1.90
   4   0  21    0.30    1.60
  -5   0 -21   -0.60    2.00
   5   0  21    0.20    1.40
  -6   0 -21    1.90    2.20
   6   0  21    0.10    1.70
   9  -1 -21    0.80    2.90
   9  -1 -21    9.40    3.40
   9   1 -21    3.10    3.80
   9   1 -21    2.30    2.90
   8  -1 -21    1.20    2.70
   8  -1 -21    2.20    2.90
   8   1 -21    0.00    2.30
   8   1 -21    1.70    2.70
   7  -1 -21    1.10    2.40
   7  -1 -21    0.70    2.80
   7   1 -21    2.70    2.40
   7   1 -21   -0.30    2.60
   6  -1 -21   37.80    5.20
   6  -1 -21   33.00    4.30
   6   1 -21   33.60    4.40
   6   1 -21   30.70    4.80
   5  -1 -21    2.30    2.50
   5  -1 -21    1.40    2.10
   5   1 -21    4.60    2.20
   5   1 -21    2.40    2.60
   4  -1 -21   25.10    3.50
   4  -1 -21   18.00    3.70
   4   1 -21   16.70    3.60
   3  -1 -21    6.00    3.00
   3   1 -21    7.10    2.00
   3   1 -21    6.10    3.00
  -3   1  21    6.10    2.20
   2  -1 -21    3.30    2.60
  -2  -1  21   12.70    2.30
   2   1 -21   10.00    3.10
   2   1 -21   11.60    2.20
  -2   1  21    6.10    2.20
  -1  -1  21    4.80    1.70
   1  -1 -21    7.30    3.00
   1   1 -21    3.10    2.50
  -1   1  21    5.30    2.00
   1   1 -21    2.80    1.50
   0  -1  21    3.50    1.60
   0  -1 -21   -2.00    2.10
   0   1 -21    1.90    2.40
   0   1  21    3.30    1.70
   0   1 -21    0.20    1.30
   1  -1  21    2.50    1.40
  -1  -1 -21    3.40    2.60
  -1   1 -21    3.70    1.60
  -1   1 -21    1.70    2.30
   1   1  21    6.30    1.90
   2  -1  21   16.80    2.40
  -2  -1 -21   22.10    4.00
  -2   1 -21   20.10    3.80
   2   1  21   16.60    2.60
  -3  -1 -21    0.30    2.10
   3   1  21    1.00    1.60
  -3   1 -21   -1.00    1.90
  -4  -1 -21   17.90    3.70
   4  -1  21   18.00    2.70
  -4   1 -21   18.40    4.00
   4   1  21   18.20    3.00
   5  -1  21    0.50    1.40
  -5  -1 -21   -0.20    1.90
   5   1  21    0.20    1.50
  -5   1 -21    0.80    2.10
  -6  -1 -21    0.50    2.00
   6  -1  21    3.60    1.90
  -6   1 -21    1.60    2.00
   6   1  21    5.40    2.30
   9  -2 -21   19.90    4.30
   9  -2 -21   18.20    4.20
   9   2 -21   19.00    3.90
   9   2 -21   18.20    4.20
   8  -2 -21    0.20    2.40
   8  -2 -21   -0.30    2.50
   8   2 -21    3.70    2.60
   8   2 -21    2.30    2.50
   7  -2 -21    3.90    2.80
   7  -2 -21   -0.50    2.80
   7   2 -21    2.30    2.30
   7   2 -21   -0.60    2.50
   6  -2 -21   13.70    3.70
   6  -2 -21    9.80    3.00
   6   2 -21    8.20    2.50
   6   2 -21    5.10    3.00
   5  -2 -21    1.80    2.00
   5  -2 -21    1.20    2.60
   5   2 -21    3.90    2.80
   5   2 -21    5.50    2.20
   4  -2 -21    7.30    3.10
  -4   2  21    4.10    2.30
   4   2 -21    4.50    1.90
   4   2 -21    4.90    3.00
   3  -2 -21   14.30    3.70
   3   2 -21   14.00    2.40
   3   2 -21   15.30    2.50
   3   2 -21   15.30    3.70
  -3   2  21   12.50    2.80
   2  -2 -21  117.49    7.80
   2   2 -21  118.39    5.50
  -2   2  21  122.79    6.50
   2   2 -21  112.79    5.40
   2   2 -21  112.79    7.60
   1  -2 -21   16.70    4.00
  -1  -2  21   11.50    2.10
  -1   2  21   13.60    2.50
   1   2 -21    9.50    2.90
   0  -2 -21   71.39    6.10
   0  -2  21   76.59    3.90
   0   2 -21   52.79    4.00
   0   2 -21   66.09    5.90
   0   2  21   77.59    4.70
   1  -2  21   16.90    2.20
  -1  -2 -21   15.20    3.60
   1   2  21   14.70    2.70
  -1   2 -21   14.10    3.70
   2  -2  21   34.60    2.70
  -2  -2 -21   45.80    5.40
  -2   2 -21   32.90    4.90
   2   2  21   37.40    3.60
  -2   2 -21   30.30    2.80
  -3  -2 -21   10.40    3.30
   3  -2  21    5.60    1.60
   3   2  21    3.10    1.90
  -3   2 -21    3.10    1.60
  -3   2 -21    8.90    3.10
  -4  -2 -21    5.10    2.80
   4   2  21    3.60    1.90
  -4   2 -21    5.40    2.80
  -5  -2 -21   29.00    4.60
   5  -2  21   22.20    3.00
   5   2  21   15.60    3.00
  -5   2 -21   17.00    3.70
   6  -2  21   22.10    3.30
  -6  -2 -21   21.80    3.90
   6   2  21   21.40    3.60
  -6   2 -21   25.40    4.20
   9  -3 -21   33.50    4.90
   9  -3 -21   44.10    6.00
   9   3 -21   30.00    4.80
   9   3 -21   38.70    5.40
   8  -3 -21    4.20    3.60
   8  -3 -21    1.90    2.80
   8   3 -21    0.00    2.70
   8   3 -21   -1.50    2.30
   7  -3 -21   50.79    5.90
   7  -3 -21   44.10    5.80
   7   3 -21   47.50    4.70
   7   3 -21   45.90    5.80
   6  -3 -21    5.50    2.80
   6  -3 -21   12.20    3.60
   6   3 -21    8.10    2.50
   6   3 -21    5.70    3.30
   5  -3 -21   46.30    5.30
   5  -3 -21   38.20    5.40
   5   3 -21   42.00    5.40
   5   3 -21   43.20    3.90
   4  -3 -21   -1.40    2.40
  -4   3  21    3.70    2.40
   4   3 -21    1.10    1.40
   4   3 -21    4.00    1.90
   4   3 -21    4.40    2.80
   3  -3 -21  188.68   10.00
   3   3 -21  186.08    7.40
   3   3 -21  178.48    9.90
  -3   3  21  174.78    8.60
   3   3 -21  160.88    7.90
   2  -3 -21    3.80    2.90
   2   3 -21    4.30    1.40
  -2   3  21    6.00    2.30
   2   3 -21    6.60    2.80
   2   3 -21    5.00    1.50
   1  -3 -21    1.50    2.50
   1   3 -21    1.90    1.20
  -1   3  21    2.20    1.80
   1   3 -21    1.30    2.30
   0  -3  21   11.00    1.70
   0  -3 -21    6.10    3.00
   0   3  21   13.40    2.70
   0   3 -21    5.90    2.90
   0   3 -21    8.40    1.50
  -1  -3 -21   30.80    4.70
   1  -3  21   29.20    2.30
  -1   3 -21   38.20    5.30
   1   3  21   35.90    3.90
  -1   3 -21   24.80    2.30
  -2  -3 -21   71.19    6.20
   2  -3  21   76.49    3.80
   2   3  21   78.19    5.10
  -2   3 -21   71.39    3.90
  -2   3 -21   71.39    6.10
   3  -3  21    6.30    1.50
  -3  -3 -21    3.90    2.70
  -3   3 -21    3.90    1.60
  -3   3 -21    5.40    2.60
   3   3  21    7.60    2.50
   4  -3  21  131.49    5.90
  -4  -3 -21  135.99    8.40
  -4   3 -21  114.79    6.90
  -4   3 -21  137.79    8.10
   4   3  21  140.29    7.30
  -5  -3 -21    1.20    2.30
   5  -3  21    2.00    1.50
   5   3  21    2.00    2.10
  -5   3 -21    1.40    2.30
  -6  -3 -21   62.09    6.60
   6  -3  21   59.69    4.20
  -6   3 -21   51.79    6.00
   6   3  21   54.69    6.80
   9  -4 -21    0.50    3.20
   9  -4 -21   -0.60    2.80
   9   4 -21    1.60    2.90
   9   4 -21    0.50    4.70
   8  -4 -21   20.40    4.30
   8  -4 -21   25.20    4.70
   8   4 -21   19.10    3.80
   8   4 -21   19.40    4.20
   7  -4 -21    3.10    2.90
   7  -4 -21    2.50    2.70
   7   4 -21    1.50    2.10
   7   4 -21    8.50    3.70
   6  -4 -21  217.48   10.40
   6  -4 -21  197.88   10.60
   6   4 -21  183.78   10.50
   6   4 -21  195.08    8.80
   5  -4 -21   17.60    3.90
   5   4 -21   12.50    2.50
  -5   4  21   14.10    3.60
   5   4 -21   15.60    3.80
   4  -4 -21   78.69    6.50
   4   4 -21   70.49    6.20
   4   4 -21   77.49    4.30
  -4   4  21   89.09    6.00
   4   4 -21   61.49    4.00
   3  -4 -21    8.00    3.10
   3   4 -21    4.40    1.50
   3   4 -21    4.00    1.50
   3   4 -21    5.20    2.90
  -3   4  21    7.20    2.70
   2  -4 -21  261.27   12.20
   2   4 -21  230.08    8.80
   2   4 -21  256.07    8.90
   2   4 -21  260.17   12.30
  -2   4  21  269.97   11.00
   1  -4 -21    3.40    2.70
   1   4 -21   -0.50    1.90
   1   4 -21    0.90    0.90
   1   4 -21    2.20    1.00
  -1   4  21    1.10    1.90
   0  -4 -21   51.89    6.00
   0   4 -21   37.20    2.20
   0   4 -21   33.30    4.80
   0   4  21   46.30    4.10
   1  -4  21   97.09    4.00
  -1  -4 -21  102.09    7.20
  -1   4 -21  102.19    7.10
   1   4  21  101.19    5.90
  -1   4 -21   89.89    3.90
  -2  -4 -21   26.60    4.50
   2  -4  21   18.30    1.80
  -2   4 -21   29.90    4.90
  -2   4 -21   18.20    1.70
   2   4  21   27.30    3.70
  -3  -4 -21   44.50    5.60
   3  -4  21   41.20    2.60
  -3   4 -21   40.20    2.70
  -3   4 -21   38.90    5.20
   3   4  21   43.40    4.20
  -4  -4 -21    8.70    3.30
   4  -4  21    9.50    1.70
   4   4  21    7.80    2.40
  -4   4 -21    6.30    2.60
  -5  -4 -21   55.69    6.30
   5  -4  21   55.89    3.60
   5   4  21   66.09    5.30
  -5   4 -21   57.19    5.40
   6  -4  21   17.30    2.60
  -6  -4 -21   12.90    4.10
   6   4  21   13.40    3.20
  -6   4 -21   14.00    3.30
   9  -5 -21   24.70    6.00
   9  -5 -21   21.70    5.00
   9   5 -21    9.70    3.40
   9   5 -21   10.80    3.70
   8  -5 -21   21.10    5.60
   8  -5 -21   28.30    5.10
   8   5 -21   24.00    4.00
   7  -5 -21   32.50    5.10
   7  -5 -21   43.80    6.90
   7   5 -21   25.90    3.90
   7   5 -21   26.60    4.80
   6  -5 -21   13.00    3.90
   6  -5 -21   23.00    4.10
   6   5 -21   16.70    4.20
   5  -5 -21   41.10    5.50
   5   5 -21   42.10    5.60
   5   5 -21   26.20    2.90
  -5   5  21   35.80    4.90
   5   5 -21   36.70    3.30
   4  -5 -21    5.80    3.00
  -4   5  21    6.10    2.80
   4   5 -21    4.90    1.50
   4   5 -21    9.10    3.20
   4   5 -21    6.90    1.80
   3  -5 -21  214.48   11.10
   3   5 -21  238.18   11.60
  -3   5  21  223.88   10.20
   3   5 -21  204.48    7.70
   3   5 -21  215.08    7.80
   2  -5 -21    4.30    2.60
  -2   5  21    5.60    2.50
   2   5 -21    2.70    2.60
   2   5 -21    2.80    1.40
   2   5 -21    2.50    1.60
   1  -5 -21   55.59    6.30
   1   5 -21   62.79    5.90
  -1   5  21   54.39    4.70
   0  -5 -21   29.20    5.00
   0   5  21   26.20    3.70
   0   5 -21   18.70    4.00
  -1  -5 -21   47.40    5.90
  -1   5 -21   47.30    5.80
   1   5  21   44.90    4.30
  -2  -5 -21   57.09    6.40
   2   5  21   64.79    5.00
  -2   5 -21   60.19    5.70
   3  -5  21   67.19    3.40
  -3  -5 -21   86.39    6.70
   3   5  21   85.19    5.60
  -3   5 -21   78.69    6.30
  -3   5 -21   68.49    3.30
   4  -5  21   68.89    3.30
  -4  -5 -21   62.29    6.10
  -4   5 -21   75.19    6.10
   4   5  21   68.29    5.30
   5  -5  21   12.70    1.90
  -5  -5 -21   17.70    6.30
  -5   5 -21   15.50    3.60
   5   5  21   10.80    2.90
   8  -6 -21   19.90    4.60
   8  -6 -21   17.20    4.60
   8   6 -21   14.30    4.00
   8   6 -21   17.30    3.50
   7  -6 -21    8.20    3.50
   7   6 -21    3.20    2.20
   7   6 -21    3.30    4.20
   6  -6 -21   87.49    7.30
   6  -6 -21   81.49    7.90
   6   6 -21   83.89    9.70
   6   6 -21   97.99    5.40
   5  -6 -21    5.70    3.10
   5   6 -21    4.10    3.00
   5   6 -21    2.30    1.60
  -5   6  21    6.20    2.80
   5   6 -21    2.70    1.60
   4  -6 -21  152.38    9.00
   4   6 -21  135.89    5.70
  -4   6  21  159.58    8.50
   4   6 -21  141.29    5.80
   4   6 -21  162.88    9.40
   3  -6 -21    7.30    3.00
   3   6 -21    3.20    1.10
  -3   6  21    7.10    2.60
   3   6 -21    3.60    2.90
   2  -6 -21  107.59    7.60
  -2   6  21  117.59    7.00
   2   6 -21  108.79    7.70
   1  -6 -21   70.69    6.30
  -1   6  21   70.19    5.50
   1   6 -21   74.39    6.30
   0  -6 -21   42.40    5.60
   0   6 -21   35.70    5.00
   0   6  21   31.60    4.10
  -1  -6 -21  135.39    8.60
   1   6  21  145.69    7.80
  -1   6 -21  142.99    8.80
  -2  -6 -21   18.20    3.90
  -2   6 -21   13.60    3.40
   2   6  21   14.10    3.20
  -3  -6 -21   68.59    6.60
   3   6  21   71.49    5.50
  -3   6 -21   64.69    6.00
   4   6  21   17.60    5.80
   5  -6  21  102.49    4.70
  -5  -6 -21   89.59    7.30
   5   6  21  102.59    6.90
  -5   6 -21  106.59    8.90
   8  -7 -21    9.00    3.80
   8  -7 -21    5.70    3.50
   8   7 -21    6.40    2.70
   8   7 -21    6.00    3.50
   7  -7 -21   37.70    5.80
   7  -7 -21   38.30    5.60
   7   7 -21   45.10    4.20
   7   7 -21   43.50    6.10
   6  -7 -21    5.20    3.30
  -6   7  21    4.30    3.10
   6   7 -21    4.40    2.00
   6   7 -21    1.60    3.20
   5   7 -21   40.90    7.70
   5   7 -21   25.20    2.50
   5   7 -21   34.50    2.80
  -5   7  21   36.20    6.60
   4  -7 -21   15.20    6.20
   4   7 -21   11.50    1.40
  -4   7  21   13.10    3.50
   3  -7 -21   79.99    7.30
   3   7 -21   75.69    7.10
  -3   7  21   70.39    5.90
   2  -7 -21   -2.70    2.10
   2   7 -21    0.10    2.50
  -2   7  21    1.00    2.30
   1  -7 -21   24.70    4.50
  -1   7  21   28.60    4.40
   1   7 -21   35.90    5.40
   0  -7 -21    9.40    3.50
   0   7  21    2.70    2.20
   0   7 -21    2.80    2.70
  -1   7 -21   32.60    6.10
   1   7  21   29.80    4.40
  -2  -7 -21   44.50    9.20
   2   7  21   54.89    5.00
  -3  -7 -21    8.10    3.40
  -3   7 -21   16.20    4.40
  -4  -7 -21   74.39    7.70
  -4   7 -21   61.29    5.90
   4   7  21   67.79    5.60
  -5  -7 -21   22.10    4.40
  -5   7 -21   39.80    5.20
   5   7  21   22.10    3.80
   8  -8 -21    1.40    3.30
   8  -8 -21    0.80    3.00
   8   8 -21    1.90    3.20
   8   8 -21    2.30    2.30
   7  -8 -21    2.40    3.00
   7  -8 -21    0.10    2.90
   7   8 -21   -0.80    3.00
   7   8 -21   -1.20    2.20
   6  -8 -21   65.39    6.30
   6   8 -21   54.69    6.60
   6   8 -21   54.39    3.70
  -6   8  21   52.79    6.20
   5  -8 -21   -0.20    2.60
   5   8 -21    0.10    1.10
   5   8 -21    1.30    1.20
   5   8 -21    0.90    3.00
  -5   8  21    1.90    3.00
   4  -8 -21   75.59    6.90
   4   8 -21   87.99    7.40
   3  -8 -21   -0.90    2.30
   3   8 -21    3.30    2.90
  -3   8  21    3.30    2.90
   2  -8 -21   56.49    6.60
   2   8 -21   57.39    6.60
  -2   8  21   59.29    5.40
   1  -8 -21   49.99    6.10
  -1   8  21   50.59    5.00
   1   8 -21   56.79    6.50
   0  -8 -21  111.69    8.10
   0   8 -21  122.19    8.30
   0   8  21  110.29    7.10
  -1  -8 -21   40.70    5.80
   1   8  21   57.59    5.40
  -1   8 -21   44.00    5.90
  -2  -8 -21   34.00    5.30
   2   8  21   26.30    4.30
  -2   8 -21   38.60    5.30
  -3  -8 -21   72.69    6.70
   3   8  21   81.79    6.20
  -3   8 -21   68.99    6.40
  -4  -8 -21    5.70    3.00
   4   8  21    2.70    2.40
  -4   8 -21    2.80    2.80
   7  -9 -21   37.80    5.50
   7  -9 -21   40.70    6.10
   7   9 -21   26.20    4.80
   7   9 -21   27.70    3.40
   6  -9 -21    8.80    3.80
   6   9 -21   12.20    2.00
  -6   9  21   13.80    3.90
   6   9 -21   13.70    4.20
   5  -9 -21   19.30    4.20
   5   9 -21   16.20    4.20
  -5   9  21   21.40    4.40
   4  -9 -21   23.40    4.80
  -4   9  21   25.20    4.50
   4   9 -21   16.60    4.10
   3  -9 -21   42.20    5.60
  -3   9  21   39.00    5.20
   3   9 -21   45.40    6.00
   2  -9 -21   28.50    4.90
   2   9 -21   22.50    4.50
  -2   9  21   16.90    3.80
   1  -9 -21   16.60    4.10
   1   9 -21   21.20    4.50
  -1   9  21   15.90    4.20
   0  -9 -21   45.10    6.00
   0   9 -21   50.99    6.30
   0   9  21   42.10    5.10
  -1  -9 -21   12.30    3.70
  -1   9 -21    5.90    3.00
   1   9  21   12.20    3.20
  -2  -9 -21   21.00    4.50
  -2   9 -21   34.40    5.30
   2   9  21   35.80    5.20
  -3  -9 -21    3.10    2.80
  -3   9 -21   -0.50    2.50
   3   9  21   -2.80    2.00
  -4  -9 -21    0.40    2.50
   4   9  21   -1.50    2.00
  -4   9 -21    0.30    2.40
   6 -10 -21    2.60    3.00
   6  10 -21    1.70    3.20
   6  10 -21    1.60    1.30
  -6  10  21    2.00    2.90
   5 -10 -21   -0.90    2.60
   5  10 -21   -1.70    2.50
  -5  10  21    2.50    3.00
   4 -10 -21    5.80    3.50
  -4  10  21    5.10    3.40
   4  10 -21    1.70    3.00
   3 -10 -21    2.70    3.00
  -3  10  21   -0.70    2.40
   3  10 -21   -1.00    2.60
   2 -10 -21   21.10    4.30
  -2  10  21   19.30    3.90
   2  10 -21   29.10    5.30
   1 -10 -21   26.60    4.70
   1  10 -21   41.10    5.70
  -1  10  21   33.30    4.90
   0 -10 -21   16.30    4.50
   0  10 -21   10.40    3.50
   0  10  21   12.60    3.40
  -1 -10 -21    3.70    2.90
   1  10  21    6.30    2.80
  -1  10 -21    2.00    2.70
  -2 -10 -21   31.60    5.30
  -2  10 -21   37.90    5.80
   2  10  21   20.80    3.90
  -3 -10 -21    0.80    2.90
  -3  10 -21   -1.60    2.20
   3  10  21    0.30    2.50
   5 -11 -21    8.30    3.50
  -5  11  21    8.10    3.50
   5  11 -21   11.70    4.00
   4 -11 -21    5.00    3.30
   4  11 -21    6.30    3.50
  -4  11  21    3.30    3.00
   3 -11 -21   16.10    4.30
   3  11 -21   19.10    4.50
  -3  11  21   26.40    4.60
   2 -11 -21   -2.50    2.70
   2  11 -21   -1.70    2.50
  -2  11  21   -1.90    2.50
   1 -11 -21   -1.30    2.90
   1  11 -21    2.50    3.20
  -1  11  21   -0.50    2.40
   0 -11 -21   -2.70    2.30
   0  11  21    0.40    2.30
   0  11 -21    2.60    3.20
  -1 -11 -21    4.00    2.90
   1  11  21    7.30    3.40
  -1  11 -21   -1.10    2.50
  -2 -11 -21    0.30    2.60
  -2  11 -21    1.60    2.80
   2  11  21    4.60    2.80
   4 -12 -21   18.30    4.40
  -4  12  21   27.90    5.00
   4  12 -21   14.20    4.30
   3 -12 -21   -0.30    2.80
  -3  12  21   -5.70    2.40
   3  12 -21   -1.10    2.90
   2 -12 -21   13.30    4.30
  -2  12  21   10.30    3.50
   2  12 -21    7.80    3.70
   1 -12 -21   22.50    4.90
  -1  12  21   19.10    4.10
   1  12 -21    9.50    3.70
   0 -12 -21   27.90    5.20
   0  12 -21   33.00    5.50
   0  12  21   31.90    5.10
  -1 -12 -21    3.90    3.30
  -1  12 -21   -1.10    2.50
   1  12  21    1.90    2.70
   9   0 -22   56.99    6.60
   8   0 -22   14.30    4.10
   8   0 -22   14.10    3.70
   7   0 -22   10.80    3.50
   7   0 -22   11.40    3.50
   6   0 -22  454.85   17.10
   6   0 -22  432.86   18.30
   5   0 -22   78.99    5.50
   5   0 -22   72.39    6.50
   4   0 -22   70.49    5.00
   4   0 -22   75.59    6.40
  -3   0  22    3.00    2.10
   3   0 -22    5.60    2.90
   2   0 -22  480.45   19.30
  -2   0  22  474.65   18.00
  -1   0  22    4.50    2.10
   1   0 -22    7.70    2.90
   0   0  22   53.59    4.40
   0   0 -22   61.39    5.80
   1   0  22   84.49    5.40
  -1   0 -22   79.59    6.50
  -2   0 -22  149.39    9.00
   2   0  22  153.88    7.00
   3   0  22   21.90    2.90
  -3   0 -22   14.10    3.60
  -4   0 -22   26.20    4.70
   4   0  22   25.90    3.40
   5   0  22   85.19    5.40
  -5   0 -22   89.59    6.80
   9  -1 -22   -0.60    2.70
   9   1 -22    0.20    2.70
   9   1 -22    0.80    3.30
   8  -1 -22   49.50    6.00
   8  -1 -22   47.50    6.50
   8   1 -22   50.89    7.20
   8   1 -22   50.79    5.80
   7  -1 -22   25.60    4.70
   7  -1 -22   29.50    4.50
   7   1 -22   28.20    5.00
   7   1 -22   26.70    4.10
   6  -1 -22  132.59    7.60
   6  -1 -22  123.39    8.40
   6   1 -22  130.49    7.30
   6   1 -22  117.89    8.30
   5  -1 -22   11.70    3.00
   5  -1 -22   12.00    3.60
   5   1 -22    8.70    2.50
   5   1 -22    9.40    3.50
   4  -1 -22   44.20    5.50
   4  -1 -22   42.90    4.20
   4   1 -22   41.90    3.90
   4   1 -22   35.30    4.90
   3  -1 -22   22.50    4.40
   3   1 -22   26.00    4.50
  -3   1  22   31.40    3.90
   3   1 -22   27.10    3.30
  -2  -1  22   40.00    3.40
   2  -1 -22   31.20    4.90
  -2   1  22   38.90    3.80
   2   1 -22   27.10    4.40
   1  -1 -22   95.89    7.00
  -1  -1  22   84.59    4.70
   1   1 -22   74.49    4.70
  -1   1  22   82.99    5.00
   1   1 -22   76.09    6.40
   0  -1 -22    6.60    3.00
   0  -1  22   -2.20    1.10
   0   1 -22    1.60    2.30
   0   1  22    1.50    1.50
   0   1 -22   -1.00    1.20
   1  -1  22  237.98    9.40
  -1  -1 -22  246.38   12.00
   1   1  22  250.17   10.00
  -1   1 -22  236.88   11.80
  -2  -1 -22    0.70    2.50
   2  -1  22    1.90    1.40
   2   1  22    2.70    1.70
  -2   1 -22    0.90    2.40
   3  -1  22   99.79    5.30
  -3  -1 -22  107.49    7.40
  -3   1 -22   99.19    7.20
   3   1  22  101.19    5.70
  -4  -1 -22    6.80    2.70
   4  -1  22    9.40    2.20
  -4   1 -22    7.50    3.00
   4   1  22   11.00    2.40
   5  -1  22   32.20    3.70
  -5  -1 -22   25.40    4.50
   5   1  22   29.90    3.80
  -5   1 -22   24.00    4.30
   9  -2 -22   26.70    4.90
   9  -2 -22   31.50    5.40
   9   2 -22   27.50    4.90
   8  -2 -22    9.90    4.40
   8  -2 -22    8.40    5.20
   8   2 -22    8.50    3.00
   7  -2 -22   91.99    7.30
   7  -2 -22   89.39    6.90
   7   2 -22  105.99    6.70
   7   2 -22   81.69    7.10
   6  -2 -22   11.60    3.90
   6  -2 -22   15.20    3.60
   6   2 -22   17.70    3.30
   6   2 -22   14.50    4.00
   5  -2 -22    5.80    3.20
   5  -2 -22    8.40    2.90
   5   2 -22    6.50    2.30
   5   2 -22    9.80    3.30
   4  -2 -22   53.99    6.20
   4   2 -22   57.99    6.40
  -4   2  22   56.49    4.90
   4   2 -22   52.49    4.10
   3  -2 -22   26.90    4.80
   3   2 -22   28.30    5.00
  -3   2  22   25.00    3.70
   3   2 -22   25.30    3.00
   3   2 -22   22.90    3.40
   2  -2 -22  206.38   10.80
   2   2 -22  210.48    8.20
   2   2 -22  189.88    8.10
   2   2 -22  208.98   10.90
  -2   2  22  204.28    9.10
   1  -2 -22    2.60    2.80
  -1  -2  22    4.30    1.60
   1   2 -22    5.10    1.60
   1   2 -22    3.90    2.90
  -1   2  22    6.30    2.20
   0  -2  22  123.39    5.60
   0  -2 -22  128.49    8.20
   0   2 -22  107.39    6.20
   0   2  22  126.89    6.50
   0   2 -22  129.89    8.20
  -1  -2 -22    2.40    2.60
   1  -2  22    3.10    1.40
  -1   2 -22    5.60    2.80
  -1   2 -22    5.10    1.70
   1   2  22    3.60    1.80
   2  -2  22  109.99    5.20
  -2  -2 -22  116.09    7.80
  -2   2 -22  117.99    7.70
   2   2  22  118.29    6.20
  -2   2 -22   97.29    5.30
  -3  -2 -22    0.20    2.20
   3  -2  22    2.20    1.50
  -3   2 -22    0.70    2.20
   3   2  22    1.80    1.70
  -4  -2 -22   71.89    6.20
   4  -2  22   67.89    4.20
   4   2  22   63.39    4.80
  -4   2 -22   64.59    5.80
  -5  -2 -22   22.30    6.60
   5  -2  22   19.80    2.70
   5   2  22   19.00    3.20
  -5   2 -22   14.20    4.20
   9  -3 -22   21.00    4.60
   9  -3 -22   21.20    4.40
   9   3 -22   18.10    4.20
   9   3 -22   19.70    4.30
   8  -3 -22   39.00    5.60
   8   3 -22   29.60    4.40
   8   3 -22   37.90    6.30
   7  -3 -22    4.70    3.50
   7  -3 -22   17.10    4.10
   7   3 -22    6.60    2.60
   7   3 -22   13.10    4.60
   6  -3 -22   38.80    5.10
   6  -3 -22   25.80    4.80
   6   3 -22   35.80    5.40
   6   3 -22   38.80    4.20
   5  -3 -22    4.80    2.60
   5  -3 -22    2.30    2.70
   5   3 -22    5.00    3.10
   4  -3 -22    7.00    3.40
  -4   3  22    2.50    2.20
   4   3 -22    2.80    2.80
   4   3 -22    5.10    1.90
   3  -3 -22   77.79    6.60
   3   3 -22   76.59    4.20
   3   3 -22   72.19    6.50
  -3   3  22   76.59    5.40
   3   3 -22   59.09    3.90
   2  -3 -22   20.80    4.20
   2   3 -22   19.70    4.00
   2   3 -22   23.90    2.60
  -2   3  22   23.60    3.50
   2   3 -22   16.00    2.20
   1  -3 -22  172.08    9.90
   1   3 -22  180.38   10.00
   1   3 -22  173.88    7.00
   1   3 -22  182.08    7.00
  -1   3  22  195.68    8.60
   0  -3  22    0.90    1.20
   0  -3 -22   -0.20    2.30
   0   3  22    0.90    1.60
   0   3 -22    0.50    1.10
   0   3 -22    0.00    2.20
  -1  -3 -22   98.69    7.40
   1  -3  22  104.39    4.60
   1   3  22  106.29    6.00
  -1   3 -22   95.59    4.60
  -1   3 -22  109.59    7.50
   2  -3  22   30.60    2.50
  -2  -3 -22   31.40    4.80
   2   3  22   29.90    3.70
  -2   3 -22   29.70    4.90
  -2   3 -22   28.90    2.50
   3  -3  22   38.40    2.90
  -3  -3 -22   48.50    5.90
   3   3  22   44.00    4.10
  -3   3 -22   35.70    3.00
  -3   3 -22   52.99    6.00
   4  -3  22   61.39    3.70
  -4  -3 -22   62.49    7.30
   4   3  22   58.49    4.80
  -4   3 -22   66.09    6.00
   5  -3  22   34.30    3.10
   5   3  22   40.20    4.90
   8  -4 -22    0.60    2.90
   8  -4 -22    1.10    2.90
   8   4 -22    0.60    3.00
   8   4 -22    3.30    2.60
   7   4 -22   10.70    5.00
   7   4 -22    4.60    2.40
   6  -4 -22    1.70    3.40
   6  -4 -22    5.30    2.80
   6   4 -22    2.60    2.00
   6   4 -22    5.20    5.40
   5  -4 -22    0.00    2.70
   5   4 -22    4.40    2.90
   5   4 -22    3.50    1.90
  -5   4  22    1.70    2.40
   4  -4 -22    7.30    3.20
   4   4 -22    6.20    1.80
  -4   4  22   11.00    3.00
   4   4 -22   10.50    2.20
   4   4 -22    8.20    3.50
   3  -4 -22   49.00    5.90
   3   4 -22   41.90    3.00
  -3   4  22   46.50    5.20
   3   4 -22   33.90    2.80
   3   4 -22   44.30    5.80
   2  -4 -22   21.10    4.10
  -2   4  22   14.50    3.00
   2   4 -22   19.50    2.10
   2   4 -22   19.30    4.10
   2   4 -22   23.70    2.20
   1  -4 -22   13.70    3.70
   1   4 -22   11.20    1.50
   1   4 -22   11.20    1.50
   1   4 -22    9.80    3.10
  -1   4  22   12.80    2.80
   0  -4 -22   36.20    5.20
   0   4 -22   36.40    2.20
   0   4 -22   43.70    5.60
   0   4 -22   39.30    2.50
   0   4  22   32.80    4.00
  -1  -4 -22   24.60    4.40
   1  -4  22   21.10    1.80
  -1   4 -22   20.60    1.70
  -1   4 -22   23.40    4.50
   1   4  22   19.80    3.20
   2  -4  22   10.30    1.50
  -2  -4 -22   16.40    3.90
   2   4  22   12.20    2.80
  -2   4 -22   11.60    1.50
  -2   4 -22   11.40    3.30
  -3  -4 -22    3.50    3.40
   3  -4  22   12.20    1.70
   3   4  22   10.20    2.80
  -3   4 -22    7.50    1.70
  -3   4 -22    8.60    3.40
   4  -4  22   13.40    1.90
   4   4  22   12.30    3.10
   5  -4  22   -0.80    1.20
  -5  -4 -22   -0.80    2.50
  -5   4 -22    0.80    2.10
   5   4  22    2.60    2.20
   8  -5 -22   -0.30    3.00
   8  -5 -22    7.00    3.50
   8   5 -22    1.80    2.80
   8   5 -22    2.50    2.50
   7  -5 -22    3.50    2.90
   7  -5 -22   -1.00    2.80
   7   5 -22    8.20    2.80
   7   5 -22    1.80    3.00
   6  -5 -22    4.50    3.70
   6  -5 -22    9.00    3.20
   6   5 -22    4.90    3.40
   6   5 -22    5.30    3.70
   5   5 -22    6.50    1.90
   5   5 -22    3.30    1.70
  -5   5  22    1.40    2.60
   4  -5 -22    2.30    3.00
   4   5 -22    2.60    3.10
   4   5 -22    0.90    1.30
  -4   5  22    2.30    2.40
   4   5 -22   -0.10    1.20
   3  -5 -22   -3.20    2.30
  -3   5  22    1.10    2.20
   3   5 -22    1.90    1.10
   3   5 -22    0.20    2.60
   3   5 -22    1.20    1.20
   2  -5 -22   13.90    3.80
   2   5 -22    9.80    3.60
   2   5 -22    9.10    1.40
  -2   5  22    8.50    2.70
   1  -5 -22   28.60    5.10
  -1   5  22   26.00    3.90
   1   5 -22   24.00    4.70
   0  -5 -22    5.50    3.10
   0   5  22   11.90    2.90
   0   5 -22   10.80    3.50
  -1  -5 -22    8.10    3.70
  -1   5 -22   10.80    3.50
   1   5  22    5.70    2.40
   2   5  22    3.40    2.10
  -3  -5 -22   -0.30    2.50
  -3   5 -22    2.10    2.90
   3   5  22    0.40    1.90
   4  -5  22   29.20    2.10
  -4  -5 -22   28.40    5.00
  -4   5 -22   28.80    4.70
   5  -5  22    5.80    1.50
  -5  -5 -22    4.00    2.80
   5   5  22    6.70    2.70
  -5   5 -22    8.30    3.00
   8  -6 -22   -1.20    2.80
   8  -6 -22    4.20    3.50
   8   6 -22    3.40    2.70
   8   6 -22   -1.70    2.80
   7  -6 -22    9.80    3.70
   7  -6 -22    5.80    3.40
   7   6 -22    8.30    2.50
   7   6 -22    6.20    3.40
   6  -6 -22    3.40    3.30
   6  -6 -22    5.30    3.10
   6   6 -22    4.20    1.90
   6   6 -22   -0.30    2.90
   5  -6 -22   -1.80    2.40
   5   6 -22    0.30    1.40
   5   6 -22   -0.80    2.70
  -5   6  22    5.80    2.90
   4  -6 -22    6.50    3.40
   4   6 -22    1.00    1.10
  -4   6  22    1.10    2.40
   4   6 -22    3.30    3.20
   4   6 -22    3.10    1.20
   3  -6 -22   -1.30    4.40
   3   6 -22   -2.60    2.90
  -3   6  22   -0.90    2.10
  -2   6  22   28.30    4.10
  -1   6  22    1.20    2.10
   0  -6 -22   12.70    5.20
   0   6  22   16.80    3.20
  -1  -6 -22    7.20    3.20
  -1   6 -22    4.00    3.20
   1   6  22    3.50    2.30
  -2  -6 -22    4.80    3.10
   2   6  22   -0.50    1.80
  -2   6 -22    0.80    2.30
  -3  -6 -22    1.20    2.60
  -3   6 -22   -0.70    2.00
  -4  -6 -22    1.20    2.80
   4   6  22    2.70    2.30
  -4   6 -22    1.90    2.50
   7  -7 -22   -0.40    2.80
   7  -7 -22    2.30    3.20
   7   7 -22    1.80    2.20
   7   7 -22   -1.20    2.90
   6  -7 -22    6.50    3.40
  -6   7  22   -2.90    2.20
   6   7 -22    1.10    1.70
   6   7 -22    3.90    3.50
   5  -7 -22    8.10    3.50
   5   7 -22   11.10    3.80
  -5   7  22   10.50    3.50
   5   7 -22    9.80    1.80
   4  -7 -22   -2.00    2.50
   4   7 -22   -0.40    2.60
  -4   7  22    2.00    3.10
   3  -7 -22   51.89    6.30
  -3   7  22   47.60    5.60
   3   7 -22   47.40    6.10
   2  -7 -22   -1.40    2.50
   2   7 -22   -2.00    2.50
  -2   7  22   -0.30    2.20
   1  -7 -22    2.80    2.80
  -1   7  22    5.00    2.50
   1   7 -22    2.80    3.00
   0  -7 -22   30.60    5.10
   0   7  22   30.10    4.40
   0   7 -22   35.30    5.40
  -1  -7 -22   12.70    3.60
  -1   7 -22   10.00    3.10
   1   7  22    8.60    2.90
  -2  -7 -22   23.30    4.60
  -2   7 -22   22.30    4.60
  -3  -7 -22    1.70    3.00
  -3   7 -22    5.20    2.90
   3   7  22    3.00    2.40
  -4  -7 -22    2.60    3.20
  -4   7 -22    0.80    2.50
   4   7  22    1.50    2.40
   7  -8 -22    2.80    3.20
   7  -8 -22    0.50    3.00
   7   8 -22   -4.00    2.90
   6  -8 -22   16.30    4.10
   6   8 -22   13.20    2.20
   6   8 -22   18.40    4.60
  -6   8  22   18.00    4.30
   5  -8 -22    2.20    3.10
   5   8 -22   -3.00    2.70
  -5   8  22    0.60    3.00
   5   8 -22    1.10    1.20
   4  -8 -22   -0.60    2.70
   4   8 -22    1.30    2.70
  -4   8  22    1.00    2.40
   3  -8 -22   21.70    4.40
   3   8 -22   24.10    5.10
  -3   8  22   18.60    4.10
   2  -8 -22   -1.50    2.50
   2   8 -22    6.20    3.20
   1  -8 -22    7.30    3.20
   1   8 -22    2.10    2.80
   0  -8 -22   31.30    5.10
   0   8 -22   34.50    5.50
   0   8  22   40.10    6.30
  -1  -8 -22   10.90    3.80
  -1   8 -22    9.80    3.40
   1   8  22   11.10    3.30
  -2  -8 -22    6.00    3.20
   2   8  22    2.20    2.40
  -2   8 -22    4.80    3.00
  -3  -8 -22    0.90    2.60
  -3   8 -22    5.30    3.20
   3   8  22    2.40    2.30
   6  -9 -22    9.50    3.80
   6   9 -22   20.70    4.60
  -6   9  22   11.90    3.70
   6   9 -22   10.70    1.80
   5  -9 -22    1.60    2.70
  -5   9  22    4.20    3.10
   5   9 -22   -0.10    2.80
   4  -9 -22   11.90    4.00
  -4   9  22    6.00    3.30
   4   9 -22    8.80    3.70
   3  -9 -22   31.90    5.30
   3   9 -22   36.90    5.70
  -3   9  22   34.30    5.00
   2  -9 -22   -2.50    2.40
  -2   9  22    7.40    3.00
   2   9 -22    2.00    2.90
   1  -9 -22   81.39    7.20
  -1   9  22   80.39    6.40
   1   9 -22   86.09    7.30
   0  -9 -22    4.80    3.20
   0   9  22    6.00    2.80
   0   9 -22   10.10    3.50
  -1  -9 -22   16.90    4.30
   1   9  22   16.70    3.80
  -1   9 -22   16.90    4.30
  -2  -9 -22   64.79    7.40
   2   9  22   47.10    5.80
  -2   9 -22   49.80    6.20
  -3  -9 -22   18.80    4.40
   3   9  22   20.40    4.10
  -3   9 -22   22.10    4.70
   5 -10 -22    1.70    2.90
  -5  10  22   -1.30    2.70
   5  10 -22   -1.00    2.70
   4 -10 -22   11.60    3.90
   4  10 -22    6.70    3.30
  -4  10  22    8.30    3.50
   3 -10 -22    4.40    3.20
   3  10 -22    1.90    3.50
  -3  10  22    0.70    2.80
   2 -10 -22   41.40    6.00
   2  10 -22   58.89    6.90
  -2  10  22   51.09    5.80
   1 -10 -22    2.10    2.80
   1  10 -22    9.00    3.70
  -1  10  22    4.40    2.80
   0 -10 -22   27.90    5.10
   0  10 -22   26.80    5.00
   0  10  22   40.40    5.20
  -1 -10 -22   -0.30    2.70
   1  10  22    1.40    2.40
  -1  10 -22   -3.90    2.50
  -2 -10 -22   32.30    5.50
   2  10  22   25.10    4.30
  -2  10 -22   27.90    5.20
   4 -11 -22   17.50    4.40
  -4  11  22   22.20    4.50
   4  11 -22   19.10    4.90
   3 -11 -22   16.20    4.30
   3  11 -22    8.00    3.90
  -3  11  22   15.50    4.20
   2 -11 -22   22.90    4.90
   2  11 -22   21.30    4.90
  -2  11  22   15.00    3.70
   1 -11 -22    9.90    3.40
   1  11 -22    6.90    3.40
  -1  11  22    9.10    3.40
   0 -11 -22   28.40    5.50
   0  11 -22   24.40    5.00
   0  11  22   26.60    4.60
  -1 -11 -22   -0.50    2.60
  -1  11 -22   -1.60    2.50
   1  11  22   -2.10    2.10
   8   0 -23    0.90    2.60
   8   0 -23   -0.20    2.60
   7   0 -23    2.00    2.80
   7   0 -23    3.70    2.60
   6   0 -23    0.60    2.20
   5   0 -23   -1.90    3.90
   5   0 -23    5.90    2.40
   4   0 -23   -2.10    1.70
   4   0 -23   -1.60    2.40
   3   0 -23    4.60    2.90
  -2   0  23    5.40    2.10
   2   0 -23    1.20    2.40
  -1   0  23    2.60    1.80
   1   0 -23    0.30    2.50
   0   0 -23    2.80    2.60
   0   0  23    2.00    1.70
  -1   0 -23   -2.50    2.00
   1   0  23    0.90    1.40
  -2   0 -23   -1.80    3.60
   2   0  23    1.80    1.60
   3   0  23    1.70    1.60
  -4   0 -23    1.80    2.30
   4   0  23    0.30    1.50
  -5   0 -23   -2.30    1.90
   5   0  23   -0.10    1.50
   8  -1 -23    4.80    3.80
   8  -1 -23    4.60    3.00
   8   1 -23   11.40    3.50
   8   1 -23    6.90    3.00
   7  -1 -23    3.90    2.90
   7  -1 -23    7.00    3.00
   7   1 -23    7.30    3.30
   7   1 -23   10.30    3.30
   6  -1 -23   50.49    8.40
   6  -1 -23   72.19    5.80
   6   1 -23   67.29    5.40
   6   1 -23   63.49    8.80
   5  -1 -23    1.30    2.50
   5   1 -23    1.30    2.00
   4  -1 -23    8.60    2.70
   4  -1 -23    5.50    3.30
   4   1 -23    3.70    2.10
   4   1 -23    6.40    3.20
   3  -1 -23   12.20    3.80
   3   1 -23   16.90    4.10
  -3   1  23   10.80    2.70
   2  -1 -23    1.30    2.50
  -2  -1  23    0.40    1.60
  -2   1  23    1.50    1.80
   2   1 -23   -2.30    1.90
  -1  -1  23   29.40    3.20
   1  -1 -23   28.90    4.70
  -1   1  23   32.40    3.80
   1   1 -23   32.40    5.00
   0  -1 -23    1.60    2.50
   0  -1  23    1.10    1.50
   0   1  23    2.30    1.80
   0   1 -23    0.30    2.30
   1  -1  23   34.40    3.10
  -1  -1 -23   27.40    5.20
   1   1  23   40.50    3.50
  -1   1 -23   43.40    5.90
  -2   1 -23   -1.10    4.00
   2   1  23   -0.80    1.60
   3  -1  23   15.00    2.40
  -3  -1 -23   14.00    4.30
   3   1  23   17.80    3.00
  -3   1 -23   25.10    7.10
   4  -1  23   29.60    3.40
  -4  -1 -23   29.00    4.80
   4   1  23   26.00    3.60
  -4   1 -23   31.30    4.90
   5  -1  23   39.00    3.60
  -5  -1 -23   41.20    5.60
  -5   1 -23   38.10    5.50
   5   1  23   43.90    4.10
   8  -2 -23    6.50    3.40
   8  -2 -23    5.60    3.20
   8   2 -23    6.90    3.10
   8   2 -23    8.60    3.40
   7  -2 -23   18.40    4.20
   7  -2 -23   11.20    3.60
   7   2 -23   10.10    2.90
   7   2 -23   12.60    3.80
   6  -2 -23   23.70    5.00
   6  -2 -23   26.50    4.30
   6   2 -23   30.60    5.40
   6   2 -23   28.30    3.90
   5  -2 -23    9.20    3.00
   5   2 -23    4.20    2.10
   4  -2 -23   20.00    5.50
  -4   2  23   11.50    3.10
   4   2 -23   17.90    5.40
   3  -2 -23    8.80    3.50
  -3   2  23    2.30    2.00
   3   2 -23    0.70    1.50
   3   2 -23    6.50    2.90
   2  -2 -23   34.80    5.20
  -2   2  23   35.40    4.20
   2   2 -23   31.00    4.90
   2   2 -23   28.60    3.20
   2   2 -23   30.80    3.20
   1  -2 -23   -0.30    2.50
  -1  -2  23    0.80    1.30
   1   2 -23    0.80    1.30
   1   2 -23    5.00    2.90
  -1   2  23   -0.30    1.60
   0  -2  23    2.30    1.50
   0  -2 -23    1.20    2.70
   0   2  23    4.00    2.00
   0   2 -23    4.20    2.90
   0   2 -23    2.00    1.30
   1  -2  23   27.40    2.60
  -1  -2 -23   31.20    7.50
   1   2  23   37.00    4.00
  -1   2 -23   28.40    6.20
  -1   2 -23   22.70    2.80
   2  -2  23    1.00    1.20
  -2   2 -23    0.60    1.30
   2   2  23    0.30    1.50
   3  -2  23    2.30    1.50
  -3  -2 -23    2.50    2.60
  -3   2 -23    3.50    2.70
   3   2  23    1.80    1.90
   4  -2  23   12.00    2.30
  -4  -2 -23   19.70    4.40
  -4   2 -23   10.30    3.20
   4   2  23   16.10    3.20
   5  -2  23    1.20    1.50
  -5  -2 -23    3.50    2.60
   5   2  23    1.60    1.80
  -5   2 -23    3.20    2.60
   8  -3 -23   27.30    4.80
   8  -3 -23   34.30    5.30
   8   3 -23   34.70    5.30
   8   3 -23   36.60    4.80
   7  -3 -23   -1.90    2.70
   7   3 -23    1.00    2.20
   7   3 -23    2.40    3.10
   6  -3 -23   21.90    4.00
   6  -3 -23   20.60    4.50
   6   3 -23   14.20    2.90
   6   3 -23   13.60    4.00
   5  -3 -23   15.60    4.60
   5  -3 -23   22.70    3.90
   5   3 -23   17.50    3.00
   5   3 -23   14.30    4.70
   4   3 -23   50.99    3.90
  -4   3  23   51.99    5.00
   3   3 -23   10.30    2.20
  -3   3  23   11.30    2.80
   3   3 -23    4.90    1.70
   2  -3 -23   36.00    6.50
   2   3 -23   38.70    3.00
  -2   3  23   44.70    4.30
   2   3 -23   42.70    7.30
   2   3 -23   29.60    3.60
   1  -3 -23   21.30    7.10
   1   3 -23   19.50    2.30
   1   3 -23   11.10    1.90
  -1   3  23   14.50    2.80
   1   3 -23   20.10    5.20
   0  -3  23   20.60    2.30
   0   3 -23   20.20    2.20
   0   3  23   29.20    3.70
   1  -3  23  100.79    4.50
   1   3  23  101.09    5.90
  -1   3 -23   87.99    4.40
   2  -3  23    3.80    1.40
  -2  -3 -23    1.40    2.70
  -2   3 -23    4.50    3.00
  -2   3 -23    4.30    1.60
   2   3  23    8.30    2.50
   3  -3  23  133.09    5.80
  -3  -3 -23  143.59    8.90
   3   3  23  127.69    7.10
  -3   3 -23  129.59    8.40
   4  -3  23   -0.70    1.20
  -4  -3 -23   -1.10    2.30
   4   3  23    0.70    2.00
  -4   3 -23    0.80    2.20
   8  -4 -23    4.00    3.50
   8  -4 -23    4.80    3.20
   8   4 -23   -2.20    2.80
   8   4 -23    1.90    2.60
   7  -4 -23   23.60    4.90
   7  -4 -23   24.20    4.60
   7   4 -23   24.40    4.90
   7   4 -23   23.30    3.70
   6  -4 -23   11.70    3.60
   6  -4 -23    4.30    3.50
   6   4 -23    4.60    3.40
   6   4 -23    8.00    2.40
   5  -4 -23   28.50    5.10
   5   4 -23   32.30    5.20
  -5   4  23   34.20    4.90
   5   4 -23   34.30    3.60
   4  -4 -23    1.70    2.90
   4   4 -23   -2.10    2.40
   4   4 -23    2.70    1.70
  -4   4  23   -1.40    1.90
   4   4 -23   -0.30    1.30
   3  -4 -23   39.20    6.10
  -3   4  23   39.40    4.80
   3   4 -23   27.60    2.60
   3   4 -23   34.60    5.60
   3   4 -23   33.00    2.70
   2  -4 -23  105.09    9.10
  -2   4  23  110.29    6.50
   2   4 -23  103.69    4.50
   2   4 -23  101.69    9.20
   2   4 -23   89.09    4.30
   1  -4 -23   61.39    8.30
   1   4 -23   51.29    2.60
  -1   4  23   53.89    4.60
   1   4 -23   41.30    2.50
   1   4 -23   55.09    7.90
   0  -4 -23   35.40    5.60
   0   4 -23   22.00    1.80
   0   4 -23   27.90    2.30
   0   4 -23   25.30    5.20
   0   4  23   27.60    3.70
  -1  -4 -23   45.50    5.90
  -1   4 -23   26.40    1.90
  -1   4 -23   38.30    5.70
   1   4  23   29.00    3.80
   2  -4  23   26.80    2.00
  -2  -4 -23   42.10    5.70
  -2   4 -23   24.10    2.10
   2   4  23   30.00    4.00
  -2   4 -23   34.40    5.00
   3  -4  23    6.70    1.40
  -3  -4 -23    5.40    3.30
   3   4  23    6.60    2.40
  -3   4 -23    5.90    2.90
   4  -4  23   21.20    2.30
  -4  -4 -23   21.00    4.20
  -4   4 -23   23.30    4.20
   4   4  23   26.90    4.40
   8  -5 -23   15.70    4.40
   8  -5 -23   12.90    4.20
   8   5 -23    9.40    3.80
   8   5 -23   15.80    3.60
   7  -5 -23   16.40    4.10
   7  -5 -23    8.90    3.90
   7   5 -23    8.90    3.80
   7   5 -23   11.70    3.00
   6  -5 -23   22.80    4.30
   6  -5 -23   22.70    4.70
   6   5 -23   18.10    3.40
   6   5 -23   24.70    5.00
   5  -5 -23   -2.80    2.40
   5   5 -23    2.40    3.00
  -5   5  23    2.10    2.80
   5   5 -23    1.90    1.70
   4  -5 -23   55.29    6.70
   4   5 -23   68.69    6.60
   4   5 -23   41.60    3.20
  -4   5  23   60.59    5.60
   4   5 -23   55.19    3.40
   3  -5 -23    5.80    3.30
   3   5 -23    5.10    1.30
  -3   5  23    1.60    2.40
   3   5 -23    2.20    1.10
   3   5 -23    8.90    3.50
   2  -5 -23   45.60    5.90
   2   5 -23   58.79    6.60
  -2   5  23   54.79    5.00
   1  -5 -23    1.30    2.40
  -1   5  23   -0.10    1.90
   1   5 -23   -1.00    2.40
   0  -5 -23   83.59    7.10
   0   5  23   73.69    5.60
   0   5 -23   90.09    7.20
  -1  -5 -23   24.50    4.90
   1   5  23   17.80    3.20
  -1   5 -23   21.20    4.30
  -2  -5 -23   16.80    4.20
   2   5  23   16.80    3.20
  -2   5 -23   24.50    4.80
  -3  -5 -23   62.59    7.00
  -3   5 -23   70.89    6.40
   3   5  23   54.49    5.20
  -4  -5 -23   13.40    3.80
  -4   5 -23   13.50    3.60
   4   5  23   24.60    4.00
   7  -6 -23   88.59    7.40
   7  -6 -23   91.09    7.70
   7   6 -23   75.09    5.30
   7   6 -23   77.79    7.50
   6  -6 -23   40.60    6.00
   6  -6 -23   34.50    5.20
   6   6 -23   32.90    3.50
   6   6 -23   48.70    6.40
   5  -6 -23   89.19    7.40
  -5   6  23   80.19    6.60
   5   6 -23   74.69    7.00
   5   6 -23   73.69    4.20
   4  -6 -23   18.40    4.30
  -4   6  23   20.30    3.90
   4   6 -23   20.30    2.00
   4   6 -23   15.70    1.90
   4   6 -23   20.80    4.70
   3  -6 -23   79.69    7.20
   3   6 -23   76.89    7.00
  -3   6  23   74.69    6.00
   2  -6 -23  121.19    8.50
  -2   6  23  119.69    7.40
   2   6 -23  124.69    8.60
   1  -6 -23   13.40    4.10
   1   6 -23   14.40    4.00
  -1   6  23   10.60    3.00
   0  -6 -23  176.88   10.40
   0   6 -23  177.78   10.30
   0   6  23  167.98    8.80
  -1  -6 -23   16.20    4.20
   1   6  23   25.90    3.90
  -1   6 -23   23.90    4.40
  -2  -6 -23   72.99    6.90
  -2   6 -23   95.49    7.30
  -3  -6 -23    4.30    3.10
  -3   6 -23   -0.60    2.10
   3   6  23    2.50    2.10
  -4  -6 -23   24.90    4.90
   4   6  23   27.80    4.20
  -4   6 -23   26.40    4.60
   7  -7 -23    3.00    3.40
   7  -7 -23    3.00    3.30
   7   7 -23   -2.20    3.20
   7   7 -23    0.60    1.90
   6  -7 -23    1.40    3.10
   6   7 -23    5.10    3.30
   6   7 -23    3.00    1.80
  -6   7  23    2.70    3.00
   5  -7 -23    4.10    3.40
   5   7 -23   -0.10    1.10
  -5   7  23   -1.30    2.60
   5   7 -23    1.30    2.90
   4  -7 -23   30.30    5.30
  -4   7  23   34.70    5.00
   4   7 -23   35.60    5.60
   3  -7 -23   10.90    4.20
   3   7 -23    3.30    3.20
   2  -7 -23    4.00    3.10
   2   7 -23    1.20    3.00
  -2   7  23    1.30    2.90
   1  -7 -23   27.30    4.90
  -1   7  23   23.20    4.60
   1   7 -23   25.30    4.80
   0  -7 -23   53.99    6.70
   0   7 -23   64.79    7.30
   0   7  23   58.39    9.00
  -1  -7 -23    1.70    2.90
   1   7  23    2.60    2.40
  -1   7 -23    0.20    2.30
  -2  -7 -23   23.00    4.70
   2   7  23   24.00    3.90
  -2   7 -23   19.70    4.30
  -3  -7 -23   39.40    5.70
   3   7  23   44.00    5.10
  -3   7 -23   37.60    5.50
   6  -8 -23    1.10    2.80
   6   8 -23    1.40    1.50
   6   8 -23   -1.40    2.80
  -6   8  23    0.30    2.90
   5  -8 -23   18.30    4.40
  -5   8  23   20.40    4.50
   5   8 -23   13.60    4.10
   4  -8 -23   -2.60    2.40
   4   8 -23    1.60    3.00
  -4   8  23   -2.70    2.40
   3  -8 -23   30.40    5.10
   3   8 -23   36.50    5.90
  -3   8  23   20.70    4.10
   2  -8 -23    3.90    2.80
  -2   8  23    2.60    2.40
   2   8 -23    0.20    2.90
   1  -8 -23    6.20    3.20
  -1   8  23    1.50    2.50
   1   8 -23    4.20    3.20
   0  -8 -23   54.79    6.60
   0   8 -23   63.09    7.30
   0   8  23   60.59    5.50
  -1  -8 -23   36.50    5.80
   1   8  23   28.20    4.30
  -1   8 -23   44.40    6.10
  -2  -8 -23   28.30    5.00
   2   8  23   38.20    5.00
  -2   8 -23   31.70    5.20
  -3  -8 -23    1.80    3.20
   5  -9 -23   -2.80    2.80
  -5   9  23    0.60    2.80
   5   9 -23    1.40    3.10
   4  -9 -23   27.50    5.40
  -4   9  23   21.30    4.10
   4   9 -23   22.10    4.70
   3  -9 -23   20.80    5.00
  -3   9  23    6.30    3.10
   3   9 -23   10.50    4.10
   2  -9 -23    9.70    3.70
   2   9 -23    6.20    3.50
  -2   9  23    8.80    3.30
   1  -9 -23    1.70    2.70
   1   9 -23    7.50    3.60
  -1   9  23    0.10    2.60
   0  -9 -23    2.60    2.90
   0   9  23    8.00    3.10
   0   9 -23    0.10    2.70
  -1  -9 -23   17.40    4.50
   1   9  23   13.10    3.30
  -1   9 -23   15.10    4.30
  -2  -9 -23    2.30    2.80
   2   9  23    0.70    2.40
  -2   9 -23   -2.20    2.40
   4 -10 -23    0.90    3.00
   4  10 -23   -0.60    3.10
  -4  10  23    2.50    2.80
   3 -10 -23    2.00    3.00
   3  10 -23    3.80    3.50
  -3  10  23   -1.60    2.80
   2 -10 -23    1.20    2.90
   2  10 -23    4.20    3.40
  -2  10  23    3.30    2.90
   1 -10 -23   -0.30    2.70
  -1  10  23    0.50    2.50
   1  10 -23    0.30    3.20
   0 -10 -23   -1.90    2.60
   0  10  23   -0.40    2.30
   0  10 -23    1.70    3.20
   8   0 -24   40.40    8.10
   8   0 -24   32.90    5.50
   7   0 -24   11.00    3.40
   7   0 -24    4.20    3.20
   6   0 -24    9.60    3.00
   6   0 -24    4.40    3.20
   5   0 -24   65.49    7.50
   5   0 -24   64.59    5.20
   4   0 -24   46.40    4.40
   4   0 -24   39.90    5.70
   3   0 -24  153.18    9.50
  -2   0  24   -1.10    1.60
   2   0 -24    1.70    2.80
  -1   0  24  131.19    6.70
   1   0 -24  152.98    9.20
   0   0  24    1.80    1.80
   0   0 -24    1.40    2.70
   1   0  24  139.79    6.80
  -1   0 -24  151.38    9.20
  -2   0 -24   50.09    6.30
   2   0  24   46.50    3.70
  -3   0 -24  111.39    7.90
   3   0  24  105.09    5.80
  -4   0 -24  108.09    7.80
   4   0  24  108.59    6.00
   8  -1 -24   -1.80    2.60
   8  -1 -24    3.00    3.10
   8   1 -24   -1.50    2.50
   8   1 -24    0.50    3.00
   7  -1 -24   29.30    4.50
   7  -1 -24   36.90    5.60
   7   1 -24   30.00    5.20
   7   1 -24   32.00    4.60
   6  -1 -24    0.90    2.80
   6  -1 -24    5.30    2.80
   6   1 -24    7.00    3.60
   6   1 -24    5.10    2.70
   5  -1 -24   19.50    3.60
   5  -1 -24   11.00    3.70
   5   1 -24   11.70    3.80
   5   1 -24   20.40    3.40
   4  -1 -24    9.50    3.60
   4  -1 -24    7.90    2.60
   4   1 -24   12.80    2.70
   4   1 -24    8.20    3.40
   3  -1 -24   22.50    4.30
  -3   1  24   20.20    3.40
   3   1 -24   24.80    4.70
   3   1 -24   27.10    3.40
  -2  -1  24   47.30    6.20
   2  -1 -24   43.50    5.90
   2   1 -24   45.80    6.20
  -2   1  24   41.60    3.90
   1  -1 -24    3.00    2.70
  -1  -1  24    1.70    1.90
   1   1 -24    1.80    2.60
  -1   1  24    2.30    1.90
   0  -1 -24   51.39    6.30
   0  -1  24   48.30    3.90
   0   1  24   55.29    4.20
   0   1 -24   59.09    6.80
  -1  -1 -24    4.70    2.90
  -1   1 -24    1.70    2.80
   1   1  24    5.30    2.00
   2  -1  24    5.30    1.90
  -2  -1 -24    8.30    3.40
  -2   1 -24    6.30    3.10
   2   1  24   11.40    2.60
   3  -1  24   35.40    3.20
  -3  -1 -24   29.60    5.10
  -3   1 -24   37.60    5.60
   3   1  24   39.50    4.20
   4  -1  24   21.60    3.00
  -4  -1 -24   17.20    4.00
  -4   1 -24   30.40    5.00
   4   1  24   22.10    3.40
   8  -2 -24   16.90    4.40
   8  -2 -24   14.70    4.00
   8   2 -24   14.20    4.20
   7  -2 -24    9.80    3.70
   7   2 -24   10.50    3.70
   7   2 -24   10.50    3.10
   6  -2 -24   -0.80    2.80
   6  -2 -24    2.60    2.50
   6   2 -24    1.60    2.20
   6   2 -24    2.70    3.10
   5  -2 -24   28.60    4.30
   5  -2 -24   21.50    4.80
   5   2 -24   20.00    3.20
   5   2 -24   24.20    4.80
   4  -2 -24    3.40    2.90
   4   2 -24    7.70    2.20
   4   2 -24    1.80    2.80
  -4   2  24    3.60    2.40
   3  -2 -24  130.09    8.90
  -3   2  24  127.69    7.20
   3   2 -24  120.39    8.70
   3   2 -24  131.79    6.30
   2  -2 -24   38.30    5.90
   2   2 -24   34.40    5.40
   2   2 -24   41.10    3.40
   2   2 -24   32.00    4.20
  -2   2  24   42.90    4.60
   1  -2 -24   21.90    4.50
  -1  -2  24   17.00    2.50
  -1   2  24   21.70    3.40
   1   2 -24   14.70    2.40
   1   2 -24   20.50    4.40
   0  -2 -24    7.40    3.50
   0  -2  24    3.50    1.60
   0   2 -24    1.20    2.70
   0   2 -24    4.70    1.70
   0   2  24    2.30    1.90
  -1  -2 -24   71.69    6.60
   1  -2  24   68.09    4.00
  -1   2 -24   66.79    6.40
   1   2  24   68.69    4.80
  -2  -2 -24    3.30    2.80
   2  -2  24    1.10    1.40
  -2   2 -24    1.80    2.50
   2   2  24   -1.00    1.40
  -3  -2 -24   54.19    6.30
  -3   2 -24   53.79    6.30
   3   2  24   50.79    4.30
  -4  -2 -24    2.30    2.40
   4  -2  24    2.90    1.60
  -4   2 -24    0.00    2.10
   4   2  24    0.90    1.80
   7  -3 -24   22.10    4.70
   7  -3 -24   25.40    4.60
   7   3 -24   35.40    4.40
   7   3 -24   32.60    5.50
   6  -3 -24   27.30    4.50
   6  -3 -24   28.20    5.30
   6   3 -24   28.70    3.80
   6   3 -24   30.00    5.30
   5  -3 -24   16.00    4.20
   5  -3 -24   17.00    3.70
   5   3 -24   10.60    3.80
   5   3 -24   12.70    2.70
   4  -3 -24   18.00    4.30
  -4   3  24   22.10    3.80
   4   3 -24   25.00    3.20
   4   3 -24   25.90    4.90
   3  -3 -24    9.80    3.80
   3   3 -24    7.10    1.90
   3   3 -24   11.30    3.80
   3   3 -24    2.10    1.60
  -3   3  24    3.30    2.40
   2  -3 -24   37.60    5.80
  -2   3  24   34.20    4.20
   2   3 -24   35.80    2.90
   2   3 -24   36.00    5.50
   1  -3 -24   -2.20    2.60
   1   3 -24    1.90    1.30
  -1   3  24    3.00    2.10
   1   3 -24    0.20    1.30
   1   3 -24    1.80    2.80
   0  -3 -24   49.20    6.30
   0   3 -24   54.59    6.60
   0   3 -24   43.20    3.00
   0   3  24   56.89    4.60
  -1  -3 -24   -0.20    2.60
   1  -3  24    1.90    1.30
  -1   3 -24    1.50    2.50
   1   3  24    3.20    1.90
   2  -3  24   13.60    2.00
  -2  -3 -24   14.70    4.00
   2   3  24   17.40    3.20
  -2   3 -24   15.40    3.80
  -3  -3 -24   32.20    5.30
   3  -3  24   32.00    2.80
   3   3  24   34.20    4.20
  -3   3 -24   40.00    5.30
  -4  -3 -24    6.60    3.10
   4  -3  24    1.00    1.40
   4   3  24    2.40    2.10
  -4   3 -24    5.50    2.80
   7  -4 -24    9.40    3.80
   7  -4 -24   16.50    4.40
   7   4 -24    9.30    2.90
   7   4 -24   17.40    4.70
   6  -4 -24    3.60    3.40
   6  -4 -24    5.10    3.50
   6   4 -24    4.90    3.30
   6   4 -24    9.00    2.60
   5  -4 -24   -2.10    2.60
   5   4 -24    0.40    1.50
  -5   4  24    1.30    2.70
   5   4 -24    3.00    3.00
   4  -4 -24   -3.40    2.60
   4   4 -24   -0.60    2.50
  -4   4  24   -0.60    2.10
   4   4 -24    0.90    1.50
   3  -4 -24   17.40    4.60
   3   4 -24   10.50    2.00
  -3   4  24   16.60    3.50
   3   4 -24   17.20    2.20
   3   4 -24   15.00    4.00
   2  -4 -24   19.00    4.40
   2   4 -24   12.00    1.80
  -2   4  24   13.70    3.20
   2   4 -24   23.30    4.80
   2   4 -24   13.50    1.80
   1  -4 -24    0.70    2.60
   1   4 -24    1.60    1.00
   1   4 -24    1.00    0.90
   1   4 -24    2.40    2.70
  -1   4  24   -0.40    1.80
   0  -4 -24    2.70    3.00
   0   4 -24    2.20    2.70
   0   4 -24    2.40    1.00
   0   4  24    2.70    2.10
  -1  -4 -24    0.60    2.90
  -1   4 -24   -0.10    2.50
   1   4  24   -0.40    1.70
  -2  -4 -24    3.50    3.30
   2  -4  24    8.20    1.40
   2   4  24    6.20    2.50
  -2   4 -24    6.30    3.10
  -3  -4 -24   -2.20    2.20
   3  -4  24   -0.20    1.00
  -3   4 -24    1.20    2.50
   3   4  24    3.20    2.30
   7  -5 -24   32.20    5.80
   7  -5 -24   34.60    5.50
   7   5 -24   23.20    5.20
   7   5 -24   30.70    4.10
   6  -5 -24    9.50    4.00
   6  -5 -24    6.00    3.30
   6   5 -24    3.70    2.20
   6   5 -24    4.40    3.10
   5  -5 -24    9.90    3.80
  -5   5  24    5.20    3.10
   5   5 -24   10.90    2.30
   5   5 -24    6.70    3.40
   4  -5 -24    2.90    3.10
  -4   5  24    3.20    2.60
   4   5 -24    2.80    1.50
   4   5 -24    2.20    2.90
   3  -5 -24    3.00    3.10
   3   5 -24    3.10    1.40
  -3   5  24    6.80    2.80
   3   5 -24    3.80    3.20
   3   5 -24    2.20    1.10
   2  -5 -24    8.90    3.60
  -2   5  24    5.40    2.60
   2   5 -24   14.00    4.10
   1  -5 -24    3.80    3.10
  -1   5  24    1.90    2.20
   1   5 -24    2.30    3.00
   0  -5 -24   34.30    5.40
   0   5  24   29.10    4.20
   0   5 -24   38.30    5.60
  -1  -5 -24   -1.00    2.40
  -1   5 -24   -1.30    2.30
   1   5  24    1.70    1.90
  -2  -5 -24    3.90    3.10
  -2   5 -24    6.10    3.10
   2   5  24    4.50    2.40
  -3  -5 -24   12.40    3.80
  -3   5 -24    7.50    3.10
   3   5  24    8.70    2.80
   6  -6 -24    5.50    3.30
   6  -6 -24    7.70    3.80
   6   6 -24   13.00    4.10
   6   6 -24    7.50    2.10
   5  -6 -24   -1.20    2.90
   5   6 -24    1.40    1.40
   5   6 -24   -1.40    2.60
  -5   6  24    0.00    2.50
   4  -6 -24   11.00    3.80
   4   6 -24    4.10    1.20
  -4   6  24    5.70    2.90
   4   6 -24    3.90    3.20
   3  -6 -24   -1.60    2.50
   3   6 -24    6.70    3.30
  -3   6  24    3.30    4.50
   2  -6 -24    4.20    3.10
  -2   6  24    4.30    2.50
   2   6 -24    3.30    2.90
   1  -6 -24    4.00    3.00
  -1   6  24    3.20    2.40
   1   6 -24    2.10    2.90
   0  -6 -24    0.60    2.70
   0   6  24    1.10    2.10
   0   6 -24   -1.50    2.30
  -1  -6 -24   16.60    4.30
   1   6  24   19.00    5.60
  -1   6 -24   18.50    4.30
  -2  -6 -24   26.10    5.10
  -2   6 -24   20.60    4.50
   2   6  24   23.80    3.80
  -3  -6 -24    9.30    3.70
   3   6  24    6.90    2.70
  -3   6 -24    6.50    3.00
   6  -7 -24    2.90    3.30
   6  -7 -24    3.50    3.20
   6   7 -24    8.50    4.10
  -6   7  24    2.50    3.00
   6   7 -24    8.00    2.00
   5  -7 -24   -0.40    2.90
   5   7 -24   -0.50    1.10
   5   7 -24   -3.80    2.40
  -5   7  24   -3.50    2.20
   4  -7 -24   24.30    5.40
   4   7 -24   18.30    4.50
  -4   7  24   19.00    4.20
   3  -7 -24    0.70    2.80
  -3   7  24    4.10    3.00
   3   7 -24    4.00    3.50
   2  -7 -24   28.30    5.30
   2   7 -24   35.20    5.50
  -2   7  24   38.80    4.90
   1  -7 -24   -0.50    3.00
   1   7 -24   -1.50    2.50
  -1   7  24   -2.20    1.90
   0  -7 -24    1.70    2.80
   0   7 -24   -0.60    2.50
   0   7  24    5.10    2.70
  -1  -7 -24   32.50    5.50
   1   7  24   24.30    4.10
  -1   7 -24   32.50    5.40
  -2  -7 -24    3.80    3.50
  -2   7 -24    3.10    3.00
   2   7  24    2.10    2.20
   5  -8 -24    0.00    3.10
  -5   8  24   -0.70    2.80
   5   8 -24    0.10    3.40
   4  -8 -24   -1.40    2.60
  -4   8  24    0.00    2.60
   4   8 -24    7.10    3.80
   3  -8 -24   -1.70    2.90
  -3   8  24   -0.30    2.30
   3   8 -24    1.20    3.10
   2  -8 -24   -0.50    2.80
   2   8 -24    0.40    3.10
  -2   8  24    5.30    2.80
   1  -8 -24   -0.50    2.80
   1   8 -24    1.30    3.00
  -1   8  24    1.20    2.30
   0  -8 -24   -0.70    2.90
   0   8  24    5.30    2.60
   0   8 -24    2.00    3.10
  -1  -8 -24   31.00    5.80
  -1   8 -24   33.20    5.50
   1   8  24   28.90    4.40
   4  -9 -24   31.00    5.40
  -4   9  24   28.10    5.20
   4   9 -24   22.70    5.20
   3  -9 -24    2.30    3.10
   3   9 -24    7.30    3.90
  -3   9  24    6.60    3.20
   2  -9 -24   30.60    5.40
  -2   9  24   28.90    4.60
   2   9 -24   26.80    5.20
   1  -9 -24   10.90    4.00
   1   9 -24    9.90    3.90
  -1   9  24   13.80    3.70
   0  -9 -24   43.90    6.30
   0   9 -24   48.70    6.60
   0   9  24   60.29    5.70
   7   0 -25    2.60    3.40
   7   0 -25    2.50    2.60
   6   0 -25    0.60    2.20
   6   0 -25    1.40    2.90
   5   0 -25    1.70    2.70
   5   0 -25   -0.60    2.10
   4   0 -25    2.20    2.90
   4   0 -25    0.50    1.90
   3   0 -25   -1.70    2.50
   3   0 -25    0.30    1.80
  -2   0  25    2.50    2.00
   2   0 -25    0.00    2.30
  -1   0  25    0.70    1.60
   1   0 -25    1.50    2.60
   0   0  25    2.30    1.70
   0   0 -25    4.50    3.00
  -1   0 -25    0.40    2.40
   1   0  25    1.70    1.50
  -2   0 -25   -2.60    2.00
   2   0  25   -0.30    1.40
  -3   0 -25    5.60    3.10
   3   0  25   -1.00    1.50
   7  -1 -25    1.40    3.20
   7  -1 -25    6.70    3.60
   7   1 -25    5.20    3.50
   7   1 -25   -0.10    2.30
   6  -1 -25   -0.30    2.60
   6  -1 -25    2.90    2.60
   6   1 -25    5.20    3.20
   6   1 -25    2.20    2.40
   5  -1 -25   13.50    3.40
   5  -1 -25   13.90    3.90
   5   1 -25   11.90    2.90
   5   1 -25   11.00    3.60
   4  -1 -25    2.40    2.80
   4  -1 -25   -0.80    2.00
   4   1 -25    0.60    1.80
   4   1 -25   -1.70    2.60
   3  -1 -25   15.70    4.10
  -3   1  25   16.30    3.20
   3   1 -25   18.80    3.00
   3   1 -25   16.40    4.10
   2  -1 -25    6.00    3.40
   2   1 -25   11.90    4.00
  -2   1  25    4.80    2.30
   1  -1 -25    7.10    3.40
  -1  -1  25    6.30    2.30
  -1   1  25    7.60    2.40
   1   1 -25    2.60    2.90
   0  -1 -25   14.90    4.20
   0  -1  25   12.30    3.00
   0   1  25   12.50    2.60
   0   1 -25   14.70    4.20
   1  -1  25    1.50    1.50
  -1  -1 -25    1.50    2.70
   1   1  25    0.50    1.60
  -1   1 -25    3.70    3.00
   2  -1  25   30.40    3.40
  -2  -1 -25   36.80    5.50
   2   1  25   30.10    3.60
  -2   1 -25   36.90    5.50
  -3  -1 -25    3.90    2.80
   3  -1  25    3.30    1.70
   3   1  25    3.60    2.00
  -3   1 -25    4.20    2.90
   7  -2 -25   12.80    3.70
   7  -2 -25    8.80    3.80
   7   2 -25    8.80    3.70
   7   2 -25   13.80    3.30
   6  -2 -25    3.90    3.10
   6  -2 -25    6.70    3.00
   6   2 -25    6.20    3.30
   6   2 -25    6.70    2.70
   5  -2 -25    3.10    3.00
   5  -2 -25    3.50    2.50
   5   2 -25    2.40    2.10
   5   2 -25    1.40    3.00
   4  -2 -25   -2.00    2.60
   4   2 -25    2.10    3.10
   4   2 -25    7.70    2.20
   3  -2 -25    7.10    3.50
   3   2 -25   12.20    2.70
   3   2 -25    7.80    3.40
  -3   2  25   15.10    3.20
   2  -2 -25    8.40    3.70
   2   2 -25    3.90    1.80
  -2   2  25    7.30    2.40
   2   2 -25    7.20    3.50
   1  -2 -25    0.00    2.80
  -1   2  25   -0.30    1.80
   1   2 -25   -2.50    2.50
   0  -2 -25    7.70    3.20
   0  -2  25    1.40    1.40
   0   2  25    4.30    2.10
   0   2 -25    2.70    3.00
   1  -2  25    6.70    1.80
  -1  -2 -25   13.00    4.10
  -1   2 -25    3.60    2.70
   1   2  25    6.90    2.30
   2  -2  25   13.60    2.30
  -2  -2 -25   16.70    4.10
  -2   2 -25   11.00    3.60
   2   2  25   13.00    2.80
   3  -2  25   11.60    2.50
  -3  -2 -25   14.10    3.90
  -3   2 -25   13.30    3.70
   3   2  25    5.90    2.20
   6  -3 -25    1.40    3.10
   6  -3 -25   -1.00    4.60
   6   3 -25    0.90    2.10
   6   3 -25   -0.30    2.50
   5  -3 -25   19.60    3.90
   5  -3 -25   26.60    5.10
   5   3 -25   17.90    4.30
   5   3 -25   26.60    3.40
   4  -3 -25   13.20    4.40
  -4   3  25   13.80    3.30
   4   3 -25   17.20    2.80
   4   3 -25   13.90    4.30
   3  -3 -25  110.69    8.40
   3   3 -25  109.39    8.30
  -3   3  25  109.49    6.90
   3   3 -25  103.49    5.30
   2  -3 -25    2.10    3.30
   2   3 -25    7.00    1.70
  -2   3  25    4.30    2.40
   2   3 -25    6.30    3.20
   1  -3 -25   23.00    4.90
   1   3 -25   16.70    4.20
   1   3 -25   14.30    2.00
  -1   3  25   19.60    3.40
   0  -3 -25    7.70    3.50
   0   3  25   11.80    2.80
   0   3 -25    5.80    3.00
  -1  -3 -25   18.50    4.70
   1  -3  25   19.80    2.30
   1   3  25   15.30    3.00
  -1   3 -25   15.90    3.90
  -2  -3 -25   43.10    6.00
   2  -3  25   40.40    2.90
  -2   3 -25   38.50    5.70
   2   3  25   42.90    4.20
   3  -3  25    2.10    1.30
  -3  -3 -25   -1.90    2.30
   3   3  25   -0.70    1.70
  -3   3 -25    5.60    2.90
   6  -4 -25   23.80    4.60
   6  -4 -25   24.10    5.10
   6   4 -25   18.20    4.40
   6   4 -25   22.20    3.30
   5  -4 -25    0.40    2.90
   5   4 -25    2.00    3.00
   5   4 -25    3.10    2.30
   4  -4 -25    7.60    3.60
   4   4 -25    6.00    1.90
   4   4 -25    6.10    3.40
  -4   4  25    9.10    3.20
   3  -4 -25   66.29    7.90
  -3   4  25   60.29    5.40
   3   4 -25   54.19    3.40
   3   4 -25   53.49    6.70
   2  -4 -25    5.90    3.30
   2   4 -25    4.70    1.30
   2   4 -25    3.10    2.70
  -2   4  25    2.60    2.40
   1  -4 -25   40.10    5.90
   1   4 -25   38.10    2.80
  -1   4  25   44.70    5.00
   1   4 -25   34.10    5.30
   0  -4 -25    3.80    2.90
   0   4  25    9.20    2.70
   0   4 -25    5.10    3.10
  -1  -4 -25   31.50    5.50
   1   4  25   28.30    4.00
  -1   4 -25   25.80    4.80
  -2  -4 -25    2.00    2.90
   2   4  25    2.40    2.10
  -2   4 -25    6.50    3.30
   6  -5 -25    2.10    3.20
   6  -5 -25    5.40    3.10
   6   5 -25    3.50    3.40
   6   5 -25    2.40    2.00
   5  -5 -25   15.40    4.40
   5   5 -25   12.70    2.40
   5   5 -25    5.50    3.60
  -5   5  25   13.20    3.80
   4  -5 -25   -2.70    2.80
  -4   5  25   -1.90    2.30
   4   5 -25    0.00    1.20
   4   5 -25   -0.10    3.10
   3  -5 -25   24.40    5.00
  -3   5  25   35.00    5.30
   3   5 -25   33.30    5.50
   3   5 -25   25.50    2.50
   2  -5 -25    2.30    2.90
  -2   5  25    8.80    2.90
   2   5 -25   11.60    4.10
   1  -5 -25   45.20    6.50
   1   5 -25   41.50    6.20
  -1   5  25   48.20    5.30
   0  -5 -25   -0.80    2.50
   0   5 -25   -2.20    2.30
   0   5  25   -0.40    1.90
  -1  -5 -25   11.60    4.40
  -1   5 -25   15.80    4.30
  -2  -5 -25   54.49    6.90
  -2   5 -25   44.40    6.10
   2   5  25   41.10    4.90
   5  -6 -25    0.70    3.00
   5   6 -25    2.30    1.50
  -5   6  25    2.50    2.80
   5   6 -25   -1.10    3.00
   4  -6 -25   28.00    5.30
   4   6 -25   34.90    5.90
  -4   6  25   34.20    4.80
   3  -6 -25   68.99    7.80
   3   6 -25   73.79    7.20
  -3   6  25   70.09    6.10
   2  -6 -25   40.00    6.20
  -2   6  25   43.50    5.30
   2   6 -25   32.40    5.60
   1  -6 -25   39.50    6.20
   1   6 -25   45.80    6.70
  -1   6  25   46.40    5.30
   0  -6 -25   13.60    4.40
   0   6  25   17.70    3.70
   0   6 -25   15.20    4.10
  -1  -6 -25   48.00    6.60
   1   6  25   39.40    4.90
  -1   6 -25   46.20    6.30
   4  -7 -25    2.60    3.10
   4   7 -25    2.30    3.30
  -4   7  25    1.70    2.80
   3  -7 -25   21.60    4.70
  -3   7  25   20.10    4.20
   3   7 -25   23.80    4.90
   2  -7 -25    7.90    3.70
   2   7 -25   10.70    3.90
  -2   7  25   13.10    3.60
   1  -7 -25   29.10    5.40
   1   7 -25   45.00    6.50
  -1   7  25   32.70    4.60
   0  -7 -25    6.50    3.60
   0   7 -25    9.60    3.70
   0   7  25    4.80    2.50
   3  -8 -25   10.70    4.20
  -3   8  25    8.00    3.40
   3   8 -25    5.80    3.70
   2  -8 -25   12.80    4.40
   2   8 -25    9.50    4.10
  -2   8  25    9.30    3.30
   1  -8 -25    3.80    3.30
  -1   8  25   11.00    3.30
   1   8 -25   10.80    3.80
   6   0 -26   30.40    4.50
   6   0 -26   24.60    4.90
   5   0 -26   22.00    3.70
   5   0 -26   18.40    4.40
   4   0 -26   18.30    3.20
   4   0 -26   16.60    4.30
   3   0 -26   13.30    4.20
   3   0 -26   18.10    3.20
   2   0 -26   26.10    4.90
  -2   0  26   25.10    3.30
   1   0 -26    0.80    2.90
  -1   0  26    0.50    1.70
   0   0 -26   93.39    7.70
   0   0  26   92.09    5.50
  -1   0 -26   29.00    5.10
   1   0  26   28.90    3.50
  -2   0 -26  186.78   10.90
   2   0  26  183.68    8.40
   6  -1 -26   32.00    4.80
   6  -1 -26   39.50    6.10
   6   1 -26   35.90    4.70
   6   1 -26   24.50    5.20
   5  -1 -26    2.40    2.50
   5  -1 -26    3.60    3.10
   5   1 -26    0.70    3.10
   5   1 -26    0.70    2.10
   4  -1 -26   -0.20    2.70
   4  -1 -26    2.80    2.30
   4   1 -26    1.70    3.00
   4   1 -26    7.20    2.50
   3  -1 -26   27.40    5.30
   3   1 -26   21.20    3.20
   3   1 -26   21.90    4.70
  -3   1  26   19.50    3.50
   2  -1 -26    1.70    2.60
   2   1 -26   -1.00    2.50
   2   1 -26   -0.40    1.50
  -2   1  26    1.20    1.90
   1  -1 -26   34.30    5.60
  -1  -1  26   28.20    3.40
   1   1 -26   31.80    5.40
  -1   1  26   29.70    3.90
   0  -1 -26   -0.10    2.50
   0  -1  26    1.80    1.70
   0   1 -26    2.10    3.00
   0   1  26    3.20    1.90
   1  -1  26   14.30    2.50
  -1  -1 -26   10.80    3.70
  -1   1 -26   20.50    4.90
   1   1  26   16.40    3.00
   2  -1  26   12.50    2.40
  -2  -1 -26   13.80    4.00
   2   1  26   14.50    2.80
  -2   1 -26    9.40    3.50
   6  -2 -26    3.10    3.40
   6   2 -26    2.30    2.40
   6   2 -26    3.90    3.00
   5  -2 -26    4.90    2.80
   5  -2 -26    9.60    3.70
   5   2 -26    6.90    2.60
   5   2 -26   11.10    3.90
   4  -2 -26   26.70    5.30
   4  -2 -26   21.30    3.70
   4   2 -26   20.50    3.20
   4   2 -26   27.90    5.10
   3  -2 -26   -0.50    2.90
   3   2 -26   -1.30    2.80
   3   2 -26    3.90    3.00
  -3   2  26    1.70    2.30
   2  -2 -26   31.40    5.30
   2   2 -26   34.90    3.20
   2   2 -26   22.20    4.70
  -2   2  26   33.20    4.30
   1  -2 -26    4.20    3.20
  -1   2  26    4.90    2.30
   1   2 -26    0.80    1.40
   1   2 -26    5.10    3.40
   0  -2  26   10.30    2.20
   0  -2 -26   14.50    4.10
   0   2 -26    9.80    3.60
   0   2  26   12.90    2.90
   1  -2  26    2.30    1.50
  -1  -2 -26    0.90    2.80
   1   2  26    1.70    1.90
  -1   2 -26    3.40    3.00
  -2  -2 -26   48.70    6.40
   2  -2  26   50.39    4.40
   2   2  26   45.80    4.30
  -2   2 -26   67.39    7.50
   5  -3 -26   34.90    6.10
   5  -3 -26   36.10    6.20
   5   3 -26   35.30    3.90
   5   3 -26   31.00    5.60
   4  -3 -26    5.90    3.60
   4   3 -26   11.90    4.10
  -4   3  26    4.80    3.00
   4   3 -26    8.10    3.80
   3  -3 -26   35.20    5.70
   3   3 -26   49.60    6.70
  -3   3  26   33.60    4.70
   3   3 -26   37.80    3.30
   2  -3 -26    1.20    3.30
   2   3 -26    2.10    1.50
   2   3 -26    5.10    3.30
  -2   3  26    3.80    2.40
   1  -3 -26   63.69    7.40
   1   3 -26   65.59    3.70
   1   3 -26   73.49    7.10
  -1   3  26   61.49    5.20
   0  -3 -26   -2.90    2.40
   0   3 -26   -0.70    2.40
   0   3 -26    1.30    1.30
   0   3  26    0.80    2.00
  -1  -3 -26   13.10    4.20
   1  -3  26   14.40    2.00
  -1   3 -26   24.60    5.10
   1   3  26   11.50    2.90
   5  -4 -26   -3.40    2.80
   5  -4 -26    0.40    2.40
   5   4 -26    1.90    2.90
   4  -4 -26    4.30    3.10
   4   4 -26    3.40    3.10
  -4   4  26    2.10    4.10
   4   4 -26    3.10    1.50
   3  -4 -26    1.70    3.30
   3   4 -26    2.80    1.40
   3   4 -26    3.40    3.40
  -3   4  26   -1.20    2.20
   2  -4 -26   -0.40    2.80
  -2   4  26    4.10    2.40
   2   4 -26    7.30    3.50
   2   4 -26    3.60    1.30
   1  -4 -26   20.90    4.70
   1   4 -26   27.60    5.00
  -1   4  26   25.40    4.10
   0  -4 -26   -1.60    2.80
   0   4  26    1.30    2.10
   0   4 -26   -4.30    2.20
  -1  -4 -26    3.20    3.00
  -1   4 -26   -0.90    2.50
   1   4  26    3.00    2.30
   4  -5 -26   46.30    6.70
   4   5 -26   56.49    7.20
  -4   5  26   48.20    5.70
   4   5 -26   43.00    3.20
   3  -5 -26    6.30    3.90
   3   5 -26    5.60    3.50
  -3   5  26    6.50    2.80
   2  -5 -26    0.80    3.10
  -2   5  26    0.40    2.30
   2   5 -26   -4.00    2.60
   1  -5 -26    6.70    3.60
  -1   5  26   10.30    3.40
   1   5 -26   10.60    3.90
   0  -5 -26    2.00    3.10
   0   5 -26   -2.20    2.40
   0   5  26    0.80    2.20
   3  -6 -26   11.00    4.20
  -3   6  26   15.00    3.90
   3   6 -26   13.40    4.40
   2  -6 -26    4.10    3.50
  -2   6  26    6.80    3.00
   2   6 -26    3.00    3.20
   1  -6 -26    8.00    4.00
   1   6 -26    8.90    3.70
  -1   6  26    6.70    2.90
   4   0 -27    0.40    2.10
   4   0 -27   -2.10    2.60
   3   0 -27    0.40    2.90
   3   0 -27    3.10    2.10
   2   0 -27    0.30    2.90
  -2   0  27   -0.30    1.70
  -1   0  27   -1.90    1.70
   1   0 -27   -0.70    2.80
   0   0  27    0.10    1.80
   0   0 -27    2.60    2.90
   4  -1 -27    9.90    3.90
   4  -1 -27    9.10    2.90
   4   1 -27    7.10    3.80
   4   1 -27    8.80    2.50
   3  -1 -27    4.10    3.20
   3   1 -27    0.10    1.70
   3   1 -27   -0.20    2.90
   2  -1 -27    4.50    3.50
   2   1 -27    7.00    2.20
   2   1 -27    2.60    3.40
  -2   1  27    6.00    2.50
   1  -1 -27    5.60    3.40
  -1  -1  27    9.50    2.40
   1   1 -27    5.10    3.40
  -1   1  27   10.50    2.70
   0  -1 -27    0.80    2.50
   0  -1  27    3.20    1.80
   0   1  27    3.00    2.10
   0   1 -27    4.00    3.10
   4  -2 -27   -2.00    3.00
   4  -2 -27    0.20    2.20
   4   2 -27    3.50    2.00
   4   2 -27    3.80    3.30
   3  -2 -27    0.20    2.90
  -3   2  27   -0.30    2.00
   3   2 -27    0.80    3.00
   3   2 -27    5.50    2.10
   2  -2 -27   -2.00    2.90
   2   2 -27    0.10    1.70
   2   2 -27    0.10    3.30
  -2   2  27    4.60    2.30
   1  -2 -27    3.00    3.20
   1   2 -27    3.50    3.40
  -1   2  27    3.30    2.00
   1   2 -27    0.70    1.60
   0  -2 -27    3.00    2.90
   0   2  27   -0.30    2.00
   0   2 -27    1.50    2.80
   3  -3 -27   17.00    4.70
   3   3 -27   18.20    2.50
  -3   3  27   10.70    3.20
   3   3 -27   12.90    4.40
   2  -3 -27   63.39    7.60
   2   3 -27   62.49    3.70
   2   3 -27   55.39    7.00
  -2   3  27   62.89    5.40
   1  -3 -27   30.10    5.80
  -1   3  27   15.60    3.20
   1   3 -27   31.20    5.40
   1   3 -27   19.50    2.20
   2  -4 -27   11.10    4.20
   2   4 -27   13.20    4.40
   0   0   0    0.00    0.00

_computing_structure_solution     'SHELXT 2018/2 (Sheldrick, 2018)'
;
_shelx_hkl_checksum    9101

