 
data_pvl934_autored_a
 
_audit_creation_method            'SHELXL-2018/3'
_shelx_SHELXL_version_number      '2018/3'
_chemical_name_systematic         ?
_chemical_name_common             ?
_chemical_melting_point           ?
_chemical_formula_moiety          ?
_chemical_formula_sum
 'C3.28 H2.87 N1.23 O0.82 S0.21 Zn0.21' 
_chemical_formula_weight          92.67

loop_
 _atom_type_symbol
 _atom_type_description
 _atom_type_scat_dispersion_real
 _atom_type_scat_dispersion_imag
 _atom_type_scat_source
 'C'  'C'   0.0033   0.0016
 'International Tables Vol C Tables 4.2.6.8 and 6.1.1.4'
 'H'  'H'   0.0000   0.0000
 'International Tables Vol C Tables 4.2.6.8 and 6.1.1.4'
 'N'  'N'   0.0061   0.0033
 'International Tables Vol C Tables 4.2.6.8 and 6.1.1.4'
 'O'  'O'   0.0106   0.0060
 'International Tables Vol C Tables 4.2.6.8 and 6.1.1.4'
 'S'  'S'   0.1246   0.1234
 'International Tables Vol C Tables 4.2.6.8 and 6.1.1.4'
 'Zn'  'Zn'   0.2839   1.4301
 'International Tables Vol C Tables 4.2.6.8 and 6.1.1.4'
 
_space_group_crystal_system       orthorhombic
_space_group_IT_number            61
_space_group_name_H-M_alt         'P b c a'
_space_group_name_Hall            '-P 2ac 2ab'
 
_shelx_space_group_comment
;
The symmetry employed for this shelxl refinement is uniquely defined
by the following loop, which should always be used as a source of
symmetry information in preference to the above space-group names.
They are only intended as comments.
;
 
loop_
 _space_group_symop_operation_xyz
 'x, y, z'
 '-x+1/2, -y, z+1/2'
 '-x, y+1/2, -z+1/2'
 'x+1/2, -y+1/2, -z'
 '-x, -y, -z'
 'x-1/2, y, -z-1/2'
 'x, -y-1/2, z-1/2'
 '-x-1/2, y-1/2, z'
 
_cell_length_a                    7.8842(2)
_cell_length_b                    17.9888(6)
_cell_length_c                    24.7242(8)
_cell_angle_alpha                 90
_cell_angle_beta                  90
_cell_angle_gamma                 90
_cell_volume                      3506.57(19)
_cell_formula_units_Z             39
_cell_measurement_temperature     130(2)
_cell_measurement_reflns_used     ?
_cell_measurement_theta_min       ?
_cell_measurement_theta_max       ?
 
_exptl_crystal_description        ?
_exptl_crystal_colour             ?
_exptl_crystal_density_meas       ?
_exptl_crystal_density_method     ?
_exptl_crystal_density_diffrn     1.711          
_exptl_crystal_F_000              1840
_exptl_transmission_factor_min    ?
_exptl_transmission_factor_max    ?
_exptl_crystal_size_max           ?
_exptl_crystal_size_mid           ?
_exptl_crystal_size_min           ?
_exptl_absorpt_coefficient_mu     1.559
_shelx_estimated_absorpt_T_min    ?
_shelx_estimated_absorpt_T_max    ?
_exptl_absorpt_correction_type    ?
_exptl_absorpt_correction_T_min   ?
_exptl_absorpt_correction_T_max   ?
_exptl_absorpt_process_details    ?
_exptl_absorpt_special_details    ?
_diffrn_ambient_temperature       130(2)
_diffrn_radiation_wavelength      0.71073
_diffrn_radiation_type            MoK\a
_diffrn_source                    ?
_diffrn_measurement_device_type   ?
_diffrn_measurement_method        ?
_diffrn_detector_area_resol_mean  ?
_diffrn_reflns_number             11122
_diffrn_reflns_av_unetI/netI      0.0278
_diffrn_reflns_av_R_equivalents   0.0224
_diffrn_reflns_limit_h_min        -10
_diffrn_reflns_limit_h_max        10
_diffrn_reflns_limit_k_min        -20
_diffrn_reflns_limit_k_max        21
_diffrn_reflns_limit_l_min        -24
_diffrn_reflns_limit_l_max        33
_diffrn_reflns_theta_min          2.264
_diffrn_reflns_theta_max          29.003
_diffrn_reflns_theta_full         25.242
_diffrn_measured_fraction_theta_max   0.837
_diffrn_measured_fraction_theta_full  1.000
_diffrn_reflns_Laue_measured_fraction_max    0.837
_diffrn_reflns_Laue_measured_fraction_full   1.000
_diffrn_reflns_point_group_measured_fraction_max   0.837
_diffrn_reflns_point_group_measured_fraction_full  1.000
_reflns_number_total              3906
_reflns_number_gt                 3411
_reflns_threshold_expression      'I > 2\s(I)'
_reflns_Friedel_coverage          0.000
_reflns_Friedel_fraction_max      .
_reflns_Friedel_fraction_full     .
 
_reflns_special_details
;
 Reflections were merged by SHELXL according to the crystal
 class for the calculation of statistics and refinement.
 
 _reflns_Friedel_fraction is defined as the number of unique
 Friedel pairs measured divided by the number that would be
 possible theoretically, ignoring centric projections and
 systematic absences.
;
 
_computing_data_collection        ?
_computing_cell_refinement        ?
_computing_data_reduction         ?
_computing_structure_solution     'SHELXT 2018/2 (Sheldrick, 2018)'
_computing_structure_refinement 'SHELXL-2018/3 (Sheldrick, 2018)'
_computing_molecular_graphics     ?
_computing_publication_material   ?
_refine_special_details           ?
_refine_ls_structure_factor_coef  Fsqd
_refine_ls_matrix_type            full
_refine_ls_weighting_scheme       calc
_refine_ls_weighting_details
'w=1/[\s^2^(Fo^2^)+(0.0334P)^2^+2.0942P] where P=(Fo^2^+2Fc^2^)/3'
_atom_sites_solution_primary      ?
_atom_sites_solution_secondary    ?
_atom_sites_solution_hydrogens    geom
_refine_ls_hydrogen_treatment     constr
_refine_ls_extinction_method      none
_refine_ls_extinction_coef        .
_refine_ls_number_reflns          3906
_refine_ls_number_parameters      255
_refine_ls_number_restraints      0
_refine_ls_R_factor_all           0.0348
_refine_ls_R_factor_gt            0.0278
_refine_ls_wR_factor_ref          0.0713
_refine_ls_wR_factor_gt           0.0672
_refine_ls_goodness_of_fit_ref    1.026
_refine_ls_restrained_S_all       1.026
_refine_ls_shift/su_max           0.001
_refine_ls_shift/su_mean          0.000
 
loop_
 _atom_site_label
 _atom_site_type_symbol
 _atom_site_fract_x
 _atom_site_fract_y
 _atom_site_fract_z
 _atom_site_U_iso_or_equiv
 _atom_site_adp_type
 _atom_site_occupancy
 _atom_site_site_symmetry_order  
 _atom_site_calc_flag
 _atom_site_refinement_flags_posn
 _atom_site_refinement_flags_adp
 _atom_site_refinement_flags_occupancy
 _atom_site_disorder_assembly
 _atom_site_disorder_group
Zn01 Zn 0.36646(3) 0.42462(2) 0.39794(2) 0.01576(8) Uani 1 1 d . . . . .
S002 S -0.01296(6) 0.12805(3) 0.30691(2) 0.01876(11) Uani 1 1 d . . . . .
O1 O 0.24750(17) 0.34209(7) 0.43475(5) 0.0219(3) Uani 1 1 d . . . . .
O2 O 0.57319(17) 0.43870(8) 0.43915(6) 0.0237(3) Uani 1 1 d . . . . .
O005 O 0.01368(18) 0.38000(8) 0.39236(5) 0.0254(3) Uani 1 1 d . . . . .
O006 O 0.66777(19) 0.50166(8) 0.36770(6) 0.0293(3) Uani 1 1 d . . . . .
N007 N -0.2542(2) 0.02601(9) 0.09966(6) 0.0161(3) Uani 1 1 d . . . . .
N008 N 0.28066(18) 0.32994(8) 0.24919(6) 0.0140(3) Uani 1 1 d . . . . .
N009 N -0.10977(19) 0.12373(8) 0.12677(6) 0.0151(3) Uani 1 1 d . . . . .
N00A N 0.36436(19) 0.39611(9) 0.31904(6) 0.0160(3) Uani 1 1 d . . . . .
N00B N 0.10086(19) 0.20154(9) 0.29869(6) 0.0167(3) Uani 1 1 d . . . . .
N00C N -0.0631(2) 0.10980(8) 0.24489(6) 0.0175(3) Uani 1 1 d . . . . .
C00D C 0.1061(2) 0.21586(10) 0.24522(7) 0.0148(4) Uani 1 1 d . . . . .
C00E C 0.1906(2) 0.27609(10) 0.21867(7) 0.0144(4) Uani 1 1 d . . . . .
C00F C -0.1403(2) 0.05024(10) 0.13428(7) 0.0168(4) Uani 1 1 d . . . . .
H00F H -0.086741 0.020337 0.160937 0.020 Uiso 1 1 calc R U . . .
C00G C 0.0113(2) 0.16254(10) 0.21434(7) 0.0147(4) Uani 1 1 d . . . . .
C00H C -0.0009(2) 0.17069(10) 0.15709(7) 0.0157(4) Uani 1 1 d . . . . .
C00I C 0.2745(2) 0.33858(10) 0.30369(7) 0.0166(4) Uani 1 1 d . . . . .
H00I H 0.213129 0.307098 0.327545 0.020 Uiso 1 1 calc R U . . .
C00J C -0.2120(2) 0.14710(11) 0.08437(7) 0.0181(4) Uani 1 1 d . . . . .
H00J H -0.218839 0.195806 0.069688 0.022 Uiso 1 1 calc R U . . .
C00K C -0.2997(2) 0.08658(10) 0.06819(8) 0.0186(4) Uani 1 1 d . . . . .
H00K H -0.380304 0.085660 0.039633 0.022 Uiso 1 1 calc R U . . .
C00L C 0.1803(2) 0.28027(10) 0.16353(7) 0.0172(4) Uani 1 1 d . . . . .
H00L H 0.238473 0.318956 0.145097 0.021 Uiso 1 1 calc R U . . .
C00M C 0.3800(2) 0.38747(10) 0.22908(8) 0.0182(4) Uani 1 1 d . . . . .
H00M H 0.405898 0.397164 0.192224 0.022 Uiso 1 1 calc R U . . .
C00N C 0.0844(2) 0.22798(10) 0.13327(7) 0.0184(4) Uani 1 1 d . . . . .
H00N H 0.079446 0.233074 0.095053 0.022 Uiso 1 1 calc R U . . .
C00O C 0.0862(3) 0.34057(11) 0.42590(8) 0.0210(4) Uani 1 1 d . . . . .
C00P C 0.4322(2) 0.42688(10) 0.27259(8) 0.0188(4) Uani 1 1 d . . . . .
H00P H 0.504397 0.469137 0.271420 0.023 Uiso 1 1 calc R U . . .
C00Q C 0.6757(2) 0.48484(11) 0.41594(8) 0.0221(4) Uani 1 1 d . . . . .
C00R C 0.8047(3) 0.52033(13) 0.45278(9) 0.0331(5) Uani 1 1 d . . . . .
H00A H 0.886458 0.482717 0.464715 0.050 Uiso 1 1 calc R U . . .
H00B H 0.747141 0.541525 0.484341 0.050 Uiso 1 1 calc R U . . .
H00C H 0.864430 0.559837 0.433221 0.050 Uiso 1 1 calc R U . . .
C00S C -0.0160(3) 0.28525(14) 0.45832(10) 0.0364(5) Uani 1 1 d . . . . .
H00D H -0.037449 0.240946 0.436296 0.055 Uiso 1 1 calc R U . . .
H00E H -0.124204 0.307763 0.468867 0.055 Uiso 1 1 calc R U . . .
H00G H 0.047516 0.271157 0.490815 0.055 Uiso 1 1 calc R U . . .
 
loop_
 _atom_site_aniso_label
 _atom_site_aniso_U_11
 _atom_site_aniso_U_22
 _atom_site_aniso_U_33
 _atom_site_aniso_U_23
 _atom_site_aniso_U_13
 _atom_site_aniso_U_12
Zn01 0.01952(12) 0.01303(12) 0.01472(12) -0.00052(8) -0.00434(8) 0.00138(8)
S002 0.0244(2) 0.0159(2) 0.0160(2) 0.00270(17) -0.00227(19) -0.00289(18)
O1 0.0240(7) 0.0195(7) 0.0221(7) 0.0027(6) -0.0015(6) -0.0010(6)
O2 0.0217(7) 0.0260(7) 0.0234(7) 0.0022(6) -0.0076(6) -0.0026(6)
O005 0.0253(7) 0.0292(8) 0.0215(7) 0.0007(6) -0.0022(6) 0.0008(6)
O006 0.0362(8) 0.0296(8) 0.0220(7) 0.0037(6) -0.0048(7) 0.0020(7)
N007 0.0196(7) 0.0144(8) 0.0144(7) -0.0011(6) -0.0014(6) -0.0008(6)
N008 0.0149(7) 0.0128(7) 0.0144(7) -0.0019(6) -0.0010(6) -0.0003(6)
N009 0.0182(7) 0.0143(7) 0.0128(7) -0.0007(6) -0.0015(6) -0.0013(6)
N00A 0.0186(7) 0.0137(7) 0.0158(8) -0.0023(6) -0.0018(6) 0.0007(6)
N00B 0.0193(7) 0.0144(8) 0.0162(8) 0.0012(6) -0.0011(6) -0.0003(6)
N00C 0.0199(8) 0.0145(7) 0.0181(8) 0.0019(6) -0.0021(7) -0.0001(6)
C00D 0.0139(8) 0.0149(9) 0.0157(9) -0.0011(7) -0.0003(7) 0.0026(7)
C00E 0.0127(8) 0.0137(8) 0.0170(9) -0.0021(7) 0.0005(7) 0.0001(7)
C00F 0.0205(9) 0.0139(9) 0.0159(9) -0.0001(7) -0.0016(8) 0.0003(7)
C00G 0.0140(8) 0.0111(8) 0.0189(9) -0.0005(7) 0.0000(7) 0.0008(7)
C00H 0.0169(8) 0.0147(9) 0.0154(8) -0.0041(7) -0.0016(7) -0.0001(7)
C00I 0.0178(9) 0.0168(9) 0.0152(8) -0.0013(7) 0.0002(8) -0.0003(7)
C00J 0.0218(9) 0.0172(9) 0.0153(8) 0.0025(7) -0.0024(8) -0.0002(8)
C00K 0.0219(9) 0.0184(9) 0.0155(9) 0.0018(7) -0.0028(8) -0.0015(8)
C00L 0.0184(9) 0.0163(9) 0.0169(9) -0.0008(7) 0.0014(8) -0.0030(7)
C00M 0.0220(9) 0.0156(9) 0.0170(9) -0.0004(7) 0.0010(8) -0.0025(7)
C00N 0.0223(9) 0.0199(9) 0.0130(8) -0.0014(7) 0.0009(8) -0.0023(8)
C00O 0.0267(10) 0.0204(10) 0.0160(9) -0.0062(8) 0.0039(9) 0.0003(8)
C00P 0.0216(9) 0.0146(9) 0.0203(9) -0.0005(7) 0.0000(8) -0.0016(7)
C00Q 0.0219(9) 0.0208(10) 0.0236(10) -0.0020(8) -0.0030(9) 0.0022(8)
C00R 0.0298(11) 0.0414(13) 0.0279(11) -0.0038(10) 0.0014(10) -0.0107(10)
C00S 0.0343(12) 0.0388(14) 0.0361(12) 0.0056(10) 0.0104(11) -0.0027(10)
 
_geom_special_details
;
 All esds (except the esd in the dihedral angle between two l.s. planes)
 are estimated using the full covariance matrix.  The cell esds are taken
 into account individually in the estimation of esds in distances, angles
 and torsion angles; correlations between esds in cell parameters are only
 used when they are defined by crystal symmetry.  An approximate (isotropic)
 treatment of cell esds is used for estimating esds involving l.s. planes.
;
 
loop_
 _geom_bond_atom_site_label_1
 _geom_bond_atom_site_label_2
 _geom_bond_distance
 _geom_bond_site_symmetry_2
 _geom_bond_publ_flag
Zn01 O2 1.9388(13) . ?
Zn01 O1 1.9780(13) . ?
Zn01 N00A 2.0171(15) . ?
Zn01 N007 2.0282(16) 3 ?
S002 N00B 1.6107(16) . ?
S002 N00C 1.6172(16) . ?
O1 C00O 1.291(2) . ?
O2 C00Q 1.293(2) . ?
O005 C00O 1.232(2) . ?
O006 C00Q 1.232(2) . ?
N007 C00F 1.314(2) . ?
N007 C00K 1.386(2) . ?
N008 C00I 1.357(2) . ?
N008 C00M 1.390(2) . ?
N008 C00E 1.418(2) . ?
N009 C00F 1.357(2) . ?
N009 C00J 1.387(2) . ?
N009 C00H 1.419(2) . ?
N00A C00I 1.310(2) . ?
N00A C00P 1.383(2) . ?
N00B C00D 1.348(2) . ?
N00C C00G 1.347(2) . ?
C00D C00E 1.431(2) . ?
C00D C00G 1.436(2) . ?
C00E C00L 1.368(3) . ?
C00G C00H 1.426(3) . ?
C00H C00N 1.364(3) . ?
C00J C00K 1.350(3) . ?
C00L C00N 1.420(3) . ?
C00M C00P 1.353(3) . ?
C00O C00S 1.510(3) . ?
C00Q C00R 1.507(3) . ?
 
loop_
 _geom_angle_atom_site_label_1
 _geom_angle_atom_site_label_2
 _geom_angle_atom_site_label_3
 _geom_angle
 _geom_angle_site_symmetry_1
 _geom_angle_site_symmetry_3
 _geom_angle_publ_flag
O2 Zn01 O1 104.76(6) . . ?
O2 Zn01 N00A 123.26(6) . . ?
O1 Zn01 N00A 104.49(6) . . ?
O2 Zn01 N007 103.54(6) . 3 ?
O1 Zn01 N007 117.03(6) . 3 ?
N00A Zn01 N007 104.68(6) . 3 ?
N00B S002 N00C 100.56(8) . . ?
C00O O1 Zn01 113.89(12) . . ?
C00Q O2 Zn01 112.09(12) . . ?
C00F N007 C00K 106.36(15) . . ?
C00F N007 Zn01 125.26(13) . 3_545 ?
C00K N007 Zn01 127.59(12) . 3_545 ?
C00I N008 C00M 106.87(15) . . ?
C00I N008 C00E 126.04(15) . . ?
C00M N008 C00E 126.89(15) . . ?
C00F N009 C00J 107.18(15) . . ?
C00F N009 C00H 127.99(15) . . ?
C00J N009 C00H 124.78(15) . . ?
C00I N00A C00P 106.56(15) . . ?
C00I N00A Zn01 119.04(13) . . ?
C00P N00A Zn01 134.29(13) . . ?
C00D N00B S002 107.32(12) . . ?
C00G N00C S002 106.39(12) . . ?
N00B C00D C00E 127.50(16) . . ?
N00B C00D C00G 112.21(16) . . ?
C00E C00D C00G 120.28(16) . . ?
C00L C00E N008 121.50(16) . . ?
C00L C00E C00D 118.09(16) . . ?
N008 C00E C00D 120.40(15) . . ?
N007 C00F N009 110.83(16) . . ?
N00C C00G C00H 126.83(16) . . ?
N00C C00G C00D 113.52(16) . . ?
C00H C00G C00D 119.61(16) . . ?
C00N C00H N009 121.32(16) . . ?
C00N C00H C00G 118.23(16) . . ?
N009 C00H C00G 120.26(16) . . ?
N00A C00I N008 111.01(16) . . ?
C00K C00J N009 106.09(16) . . ?
C00J C00K N007 109.55(17) . . ?
C00E C00L C00N 121.37(17) . . ?
C00P C00M N008 106.10(16) . . ?
C00H C00N C00L 122.36(17) . . ?
O005 C00O O1 123.99(18) . . ?
O005 C00O C00S 119.29(19) . . ?
O1 C00O C00S 116.70(18) . . ?
C00M C00P N00A 109.45(16) . . ?
O006 C00Q O2 123.75(18) . . ?
O006 C00Q C00R 121.01(19) . . ?
O2 C00Q C00R 115.19(18) . . ?
 
_refine_diff_density_max    0.415
_refine_diff_density_min   -0.305
_refine_diff_density_rms    0.063

_shelx_res_file
;
TITL pvl934_autored_a.res in Pbca
    pvl934_autored_a.res
    created by SHELXL-2018/3 at 12:26:53 on 31-Mar-2022
REM Old TITL pvl934_autored in Pbca
REM SHELXT solution in Pbca: R1 0.075, Rweak 0.006, Alpha 0.025
REM <I/s>   0.684 for  489 systematic absences,  Orientation as input
REM Formula found by SHELXT:  C16 N8 O2 S Zn
CELL  0.71073   7.8842  17.9888  24.7242   90.000   90.000   90.000
ZERR   39.000   0.0002   0.0006   0.0008    0.000    0.000    0.000
LATT  1
SYMM 1/2-X, -Y, 1/2+Z
SYMM -X, 1/2+Y, 1/2-Z
SYMM 1/2+X, 1/2-Y, -Z
SFAC C H N O S ZN
UNIT 128 112 48 32 8 8
ACTA
TEMP -143
L.S. 10
BOND
LIST 6
FMAP 2
PLAN 20
WGHT    0.033400    2.094200
FVAR       0.23530
ZN01  6    0.366463    0.424625    0.397940    11.00000    0.01952    0.01303 =
         0.01472   -0.00052   -0.00434    0.00138
S002  5   -0.012960    0.128049    0.306910    11.00000    0.02436    0.01590 =
         0.01601    0.00270   -0.00227   -0.00289
O1    4    0.247501    0.342087    0.434753    11.00000    0.02399    0.01954 =
         0.02214    0.00271   -0.00147   -0.00104
O2    4    0.573194    0.438702    0.439154    11.00000    0.02169    0.02601 =
         0.02336    0.00223   -0.00759   -0.00260
O005  4    0.013680    0.380002    0.392361    11.00000    0.02533    0.02921 =
         0.02152    0.00075   -0.00225    0.00084
O006  4    0.667771    0.501656    0.367701    11.00000    0.03623    0.02958 =
         0.02198    0.00375   -0.00477    0.00196
N007  3   -0.254164    0.026006    0.099664    11.00000    0.01959    0.01439 =
         0.01442   -0.00114   -0.00145   -0.00083
N008  3    0.280656    0.329943    0.249191    11.00000    0.01491    0.01280 =
         0.01443   -0.00191   -0.00099   -0.00028
N009  3   -0.109774    0.123735    0.126773    11.00000    0.01820    0.01434 =
         0.01277   -0.00067   -0.00151   -0.00130
N00A  3    0.364356    0.396107    0.319040    11.00000    0.01861    0.01375 =
         0.01578   -0.00227   -0.00176    0.00070
N00B  3    0.100858    0.201542    0.298689    11.00000    0.01933    0.01442 =
         0.01624    0.00119   -0.00106   -0.00028
N00C  3   -0.063120    0.109799    0.244890    11.00000    0.01992    0.01449 =
         0.01812    0.00188   -0.00207   -0.00009
C00D  1    0.106103    0.215855    0.245216    11.00000    0.01392    0.01488 =
         0.01573   -0.00115   -0.00031    0.00259
C00E  1    0.190611    0.276090    0.218670    11.00000    0.01266    0.01370 =
         0.01697   -0.00207    0.00047    0.00009
C00F  1   -0.140344    0.050241    0.134275    11.00000    0.02053    0.01389 =
         0.01594   -0.00007   -0.00156    0.00029
AFIX  43
H00F  2   -0.086741    0.020337    0.160937    11.00000   -1.20000
AFIX   0
C00G  1    0.011316    0.162537    0.214341    11.00000    0.01403    0.01112 =
         0.01888   -0.00050    0.00003    0.00085
C00H  1   -0.000867    0.170689    0.157094    11.00000    0.01689    0.01473 =
         0.01539   -0.00412   -0.00161   -0.00014
C00I  1    0.274476    0.338581    0.303692    11.00000    0.01781    0.01680 =
         0.01515   -0.00134    0.00015   -0.00033
AFIX  43
H00I  2    0.213129    0.307098    0.327545    11.00000   -1.20000
AFIX   0
C00J  1   -0.211977    0.147096    0.084371    11.00000    0.02178    0.01718 =
         0.01533    0.00247   -0.00244   -0.00018
AFIX  43
H00J  2   -0.218839    0.195806    0.069688    11.00000   -1.20000
AFIX   0
C00K  1   -0.299727    0.086580    0.068193    11.00000    0.02186    0.01837 =
         0.01554    0.00177   -0.00276   -0.00152
AFIX  43
H00K  2   -0.380304    0.085660    0.039633    11.00000   -1.20000
AFIX   0
C00L  1    0.180284    0.280267    0.163528    11.00000    0.01835    0.01634 =
         0.01692   -0.00084    0.00139   -0.00298
AFIX  43
H00L  2    0.238473    0.318956    0.145097    11.00000   -1.20000
AFIX   0
C00M  1    0.379965    0.387472    0.229079    11.00000    0.02201    0.01561 =
         0.01698   -0.00042    0.00103   -0.00251
AFIX  43
H00M  2    0.405898    0.397164    0.192224    11.00000   -1.20000
AFIX   0
C00N  1    0.084401    0.227981    0.133265    11.00000    0.02231    0.01987 =
         0.01305   -0.00144    0.00089   -0.00229
AFIX  43
H00N  2    0.079446    0.233074    0.095053    11.00000   -1.20000
AFIX   0
C00O  1    0.086173    0.340573    0.425904    11.00000    0.02667    0.02041 =
         0.01599   -0.00622    0.00385    0.00032
C00P  1    0.432235    0.426875    0.272593    11.00000    0.02159    0.01457 =
         0.02029   -0.00047   -0.00003   -0.00162
AFIX  43
H00P  2    0.504397    0.469137    0.271420    11.00000   -1.20000
AFIX   0
C00Q  1    0.675698    0.484841    0.415945    11.00000    0.02187    0.02082 =
         0.02358   -0.00198   -0.00302    0.00215
C00R  1    0.804713    0.520333    0.452776    11.00000    0.02981    0.04144 =
         0.02789   -0.00385    0.00144   -0.01075
AFIX 137
H00A  2    0.886458    0.482717    0.464715    11.00000   -1.50000
H00B  2    0.747141    0.541525    0.484341    11.00000   -1.50000
H00C  2    0.864430    0.559837    0.433221    11.00000   -1.50000
AFIX   0
C00S  1   -0.015955    0.285254    0.458315    11.00000    0.03435    0.03881 =
         0.03608    0.00560    0.01044   -0.00272
AFIX 137
H00D  2   -0.037449    0.240946    0.436296    11.00000   -1.50000
H00E  2   -0.124204    0.307763    0.468867    11.00000   -1.50000
H00G  2    0.047516    0.271157    0.490815    11.00000   -1.50000
AFIX   0
HKLF 4




REM  pvl934_autored_a.res in Pbca
REM wR2 = 0.0713, GooF = S = 1.026, Restrained GooF = 1.026 for all data
REM R1 = 0.0278 for 3411 Fo > 4sig(Fo) and 0.0348 for all 3906 data
REM 255 parameters refined using 0 restraints

END

WGHT      0.0294      2.2448

REM Highest difference peak  0.415,  deepest hole -0.305,  1-sigma level  0.063
Q1    1   0.0664  0.1925  0.2276  11.00000  0.05    0.42
Q2    1   0.0924  0.2115  0.2693  11.00000  0.05    0.36
Q3    1   0.0032  0.1675  0.1829  11.00000  0.05    0.35
Q4    1   0.3619  0.4219  0.2487  11.00000  0.05    0.33
Q5    1   0.0758  0.1898  0.1423  11.00000  0.05    0.31
Q6    1  -0.1574  0.1378  0.1097  11.00000  0.05    0.30
Q7    1   0.2524  0.2988  0.2348  11.00000  0.05    0.30
Q8    1  -0.2347  0.1137  0.0639  11.00000  0.05    0.29
Q9    1   0.3030  0.3266  0.2765  11.00000  0.05    0.29
Q10   1  -0.0507  0.1264  0.2732  11.00000  0.05    0.28
Q11   1   0.1419  0.2852  0.1883  11.00000  0.05    0.28
Q12   1   0.1497  0.2430  0.2374  11.00000  0.05    0.28
Q13   1   0.4443  0.4260  0.4337  11.00000  0.05    0.27
Q14   1  -0.1171  0.0842  0.1338  11.00000  0.05    0.27
Q15   1   0.2206  0.2684  0.1879  11.00000  0.05    0.27
Q16   1  -0.2862 -0.0173  0.1016  11.00000  0.05    0.27
Q17   1  -0.0411  0.1456  0.2280  11.00000  0.05    0.26
Q18   1   0.3799  0.4211  0.3479  11.00000  0.05    0.26
Q19   1   0.3144  0.3593  0.2392  11.00000  0.05    0.25
Q20   1   0.0379  0.4032  0.3914  11.00000  0.05    0.25
;
_shelx_res_checksum    1725

_shelx_hkl_file
;
   0   0  -3    5.32    0.56
   0   0   3    5.51    0.58
   0   0  -4 3232.19   45.90
   0   0   4 3227.44   45.91
   0   0  -5    0.94    0.63
   0   0   5    0.02    0.62
   0   0   6 9440.53  131.13
   0   0  -6 9357.21  131.13
   0   0   7    3.19    1.08
   0   0  -7    2.88    0.82
   0   0  -8   63.16    2.73
   0   0   8   65.67    2.81
   0   0  -9   -0.30    0.63
   0   0   9    1.40    0.91
   0   0 -10 1057.67   18.39
   0   0  10 1048.00   18.40
   0   0 -11    2.07    0.95
   0   0  11    2.06    1.01
   0   0 -12    1.85    0.83
   0   0  12   -0.46    0.81
   0   0  13    0.91    0.82
   0   0 -13    0.10    0.71
   0   0 -14  695.15   14.80
   0   0  14  723.62   14.94
   0   0 -15    1.95    0.90
   0   0  15    3.13    1.33
   0   0 -16  119.20    5.27
   0   0  16  116.42    5.19
   0   0 -17    2.92    0.99
   0   0  17    1.51    1.11
   0   0 -18   16.53    2.14
   0   0  18   16.13    2.24
   0   0 -19    1.26    1.10
   0   0  19    0.88    1.37
   0   0 -20 1094.92   22.70
   0   0  20 1078.92   22.66
   0   0  21    8.53    2.02
   0   0  22    2.83    1.53
   0   0  23   -0.73    1.64
   0   0  24  494.81   14.55
   0   0  25    4.86    1.81
   0   0  26   87.33    5.92
   0   0  27   -2.54    1.71
   0   0  28   29.93    3.79
   0   0  29    2.79    1.74
   0   0  30  481.05   16.07
   0   0  31   10.66    2.58
   0  -1   2    2.55    0.33
   0   1   3    1.49    0.44
   0  -1  -3    1.29    0.41
   0  -1   4   -0.02    0.50
   0  -1  -4    0.20    0.46
   0   1   4   -0.92    0.60
   0  -1  -5    0.15    0.49
   0  -1   5    1.14    0.65
   0   1   5    0.83    0.60
   0  -1   6   -0.82    0.76
   0  -1  -6    0.41    0.56
   0   1   6    0.51    0.71
   0   1  -7   -0.65    0.61
   0  -1  -7   -0.34    0.72
   0  -1   7   -0.62    0.73
   0   1   7    1.06    0.73
   0   1  -8    1.06    0.70
   0  -1  -8   -0.27    0.70
   0  -1   8    0.23    0.78
   0   1   8   -0.50    0.80
   0   1  -9    0.47    0.73
   0  -1  -9    0.76    0.69
   0  -1   9    0.20    0.82
   0   1   9    0.28    0.76
   0   1 -10   -0.65    0.73
   0  -1 -10   -0.24    0.72
   0  -1  10    0.07    0.84
   0   1  10   -0.28    0.81
   0   1 -11   -0.17    0.71
   0  -1  11   -0.11    0.78
   0  -1 -11    0.05    0.85
   0   1  11    0.64    0.79
   0   1 -12    0.85    0.83
   0  -1 -12    1.40    0.86
   0  -1  12    0.28    0.82
   0   1  12   -0.04    0.80
   0   1 -13    0.24    0.74
   0  -1  13    0.64    0.90
   0  -1 -13    1.50    0.88
   0   1  13   -0.64    0.88
   0  -1 -14    0.17    0.78
   0  -1  14    0.82    0.92
   0   1  14   -1.15    1.10
   0  -1 -15    0.51    0.85
   0  -1  15    0.08    0.96
   0   1  15    1.70    1.08
   0  -1 -16   -0.08    0.76
   0  -1  16   -0.09    0.95
   0   1  16   -0.34    0.98
   0  -1  17   -0.70    1.05
   0  -1 -17   -2.15    1.20
   0   1  17   -1.84    1.23
   0  -1 -18   -0.53    0.96
   0  -1  18   -2.58    1.37
   0   1  18   -1.01    1.25
   0  -1 -19   -1.09    1.09
   0  -1  19    0.14    1.10
   0   1  19    0.06    1.12
   0  -1 -20    0.36    1.08
   0  -1  20    0.41    1.07
   0   1  20    1.08    1.32
   0  -1 -21   -0.11    0.94
   0  -1  21   -0.39    1.12
   0   1  21    0.27    1.11
   0   1  22    0.08    1.14
   0  -1  22   -1.07    1.19
   0   1  23   -0.57    1.45
   0  -1  23    1.98    1.51
   0   1  24   -1.64    1.50
   0  -1  24    0.83    1.26
   0   1  25   -2.00    1.80
   0  -1  25    1.68    1.30
   0   1  26   -0.49    1.45
   0  -1  26   -2.21    1.26
   0   1  27   -0.35    1.39
   0  -1  27    2.75    1.78
   0   1  28   -1.71    1.59
   0  -1  28    0.49    1.37
   0  -1  29   -1.65    1.97
   0  -1  30    7.49    2.19
   0  -1  31   -1.81    2.17
   0  -1  32   -1.16    1.68
   0  -1  33   -0.52    1.59
   0   2   0  433.13    6.99
   0  -2   0  361.56    6.76
   0   2  -1  224.46    4.45
   0  -2   1  225.88    4.46
   0  -2   2 2870.39   41.13
   0   2  -2 2891.97   41.11
   0   2  -3 2495.75   36.13
   0  -2   3 2527.84   36.18
   0  -2   4 3493.39   49.75
   0  -2  -5  942.99   15.39
   0  -2  -6 1563.62   24.29
   0  -2   7 1579.34   24.63
   0   2   7 1576.11   24.64
   0  -2  -7 1523.34   24.51
   0  -2   8  390.11    8.26
   0  -2  -8  369.41    8.13
   0   2   8  363.44    8.16
   0  -2   9  367.11    8.29
   0   2   9  362.62    8.25
   0  -2  -9  356.70    8.21
   0  -2  10  693.76   13.37
   0   2  10  678.01   13.36
   0  -2 -10  679.54   13.39
   0  -2  11   14.53    1.58
   0  -2 -11   13.35    1.51
   0   2  11   13.11    1.62
   0  -2  12    3.21    0.99
   0  -2 -12    5.51    1.26
   0   2  12    5.87    1.43
   0  -2 -13 1273.90   22.99
   0  -2  13 1289.42   23.01
   0   2  13 1280.71   22.96
   0  -2 -14  372.83    9.82
   0  -2  14  379.85    9.89
   0   2  14  371.90    9.80
   0  -2 -15   79.93    4.22
   0  -2  15   82.78    4.24
   0   2  15   83.54    4.34
   0  -2  16   74.94    4.19
   0  -2 -16   70.78    4.10
   0   2  16   82.94    4.43
   0  -2 -17 2033.21   35.01
   0  -2  17 2026.99   34.95
   0   2  17 2010.40   34.90
   0  -2 -18  183.15    7.15
   0   2  18  185.06    7.20
   0  -2  18  170.93    7.08
   0  -2 -19  243.41    8.60
   0  -2  19  241.19    8.54
   0   2  19  234.43    8.43
   0  -2 -20   94.00    5.31
   0   2  20   99.87    5.44
   0  -2  20   95.24    5.34
   0  -2 -21  230.85    8.81
   0   2  21  242.49    8.96
   0  -2  21  234.45    8.86
   0   2  22  244.08    9.31
   0  -2  22  230.04    9.02
   0  -2  23  441.70   13.31
   0   2  23  436.31   13.29
   0   2  24  455.83   14.07
   0  -2  24  467.03   14.09
   0  -2  25  148.00    7.63
   0  -2  26   96.76    6.28
   0  -2  27  616.39   17.64
   0  -2  28   26.77    3.64
   0  -2  29   14.27    2.84
   0  -2  30  126.81    7.88
   0  -2  31  204.86   10.28
   0  -2  32   17.80    3.34
   0  -2  33    3.17    1.82
   0   3   0    0.42    0.67
   0  -3   0   -0.16    0.52
   0   3  -1    0.01    0.66
   0  -3   1    1.83    0.65
   0   3   1    0.10    0.69
   0   3  -2    0.74    0.66
   0  -3   2    0.45    0.57
   0  -3   3    0.59    0.58
   0   3  -3    0.21    0.65
   0  -3   4    1.01    0.59
   0   3  -4    0.09    0.69
   0  -3   5    1.04    0.61
   0  -3   6    0.68    0.70
   0  -3  -6   -0.58    0.63
   0  -3   7    1.48    0.64
   0  -3  -7    1.19    0.68
   0  -3   8    0.20    0.62
   0  -3  -8    1.14    0.68
   0  -3   9   -0.70    0.79
   0  -3   9    1.03    0.60
   0  -3  -9    1.24    0.76
   0  -3 -10   -0.45    0.89
   0  -3  10    0.52    0.85
   0  -3  11   -0.92    0.96
   0  -3 -11    0.68    0.72
   0  -3  12    2.14    1.12
   0  -3 -12    0.28    0.70
   0  -3  13   -1.15    1.04
   0  -3 -13    0.65    0.89
   0  -3 -14    1.31    0.99
   0  -3  14   -0.80    0.90
   0  -3  15   -1.47    1.22
   0  -3 -15    0.36    0.79
   0  -3 -16    0.27    0.84
   0  -3  16   -2.14    1.35
   0  -3  17   -1.00    1.11
   0  -3 -17    2.51    1.16
   0  -3 -18    1.02    0.95
   0  -3  18   -0.07    1.19
   0  -3 -19    0.49    0.91
   0  -3  19   -0.79    1.28
   0  -3 -20    0.66    1.15
   0  -3  20    0.35    1.09
   0  -3  21    0.21    1.26
   0  -3 -21    0.33    1.10
   0  -3  21   -0.92    0.81
   0  -3  22    0.08    1.17
   0  -3  22    0.80    0.85
   0  -3  23   -2.22    1.64
   0  -3  23    0.17    0.92
   0  -3  24   -1.23    1.68
   0  -3  24    0.85    1.16
   0  -3  25   -0.20    1.49
   0  -3  26   -1.79    1.59
   0  -3  27    1.42    1.55
   0  -3  28   -0.69    1.63
   0  -3  29   -0.81    1.56
   0  -3  30    3.39    2.15
   0  -3  31    1.20    1.61
   0  -3  32    2.22    2.06
   0  -3  33   -0.17    1.63
   0   4   0 3541.06   51.76
   0   4  -1 1239.88   20.13
   0  -4   1 1244.94   20.15
   0   4   1 1253.31   20.22
   0   4  -2 1424.77   22.66
   0  -4   2 1416.66   22.61
   0  -4   3  265.43    6.30
   0   4  -3  282.75    6.42
   0   4  -4   13.04    0.73
   0   4  -4   13.35    1.35
   0  -4   4   13.61    1.36
   0   4  -5  207.23    5.39
   0  -4   5  210.15    5.45
   0  -4   6  604.43   11.48
   0  -4   7 1733.04   27.45
   0  -4   8  516.10   10.31
   0  -4  -8  494.15   10.60
   0  -4   9 1217.06   20.48
   0  -4  -9 1206.21   21.07
   0  -4  10 1363.55   22.84
   0  -4 -10 1376.43   23.69
   0  -4  11 1345.53   23.56
   0  -4  11 1337.48   22.57
   0  -4 -11 1327.92   23.50
   0  -4  12  119.63    4.94
   0  -4  12  117.99    4.40
   0  -4 -12  117.59    4.88
   0  -4  13  707.51   15.07
   0  -4  13  704.33   14.00
   0  -4 -13  707.99   15.06
   0  -4  14  392.82   10.40
   0  -4  14  403.48    9.59
   0  -4 -14  389.98   10.40
   0  -4  15    7.16    1.56
   0  -4 -15    6.73    1.37
   0  -4  15   11.79    1.55
   0  -4 -16  382.35   10.70
   0  -4  16  389.48   10.74
   0  -4  16  371.36    9.48
   0  -4  17 1225.57   23.86
   0  -4 -17 1228.20   23.93
   0  -4  17 1203.08   22.14
   0  -4 -18   19.69    2.33
   0  -4  18   21.20    2.46
   0  -4  18   20.64    2.13
   0  -4  19   55.23    4.01
   0  -4 -19   55.69    4.05
   0  -4  19   53.22    3.34
   0  -4 -20   79.47    4.92
   0  -4  20   82.95    5.08
   0  -4  20   84.82    4.27
   0  -4  21  279.69    9.92
   0  -4 -21  272.51    9.80
   0  -4  21  271.15    8.36
   0  -4  22  130.00    6.81
   0  -4  22  144.72    5.91
   0  -4  23  518.42   12.75
   0  -4  23  495.78   14.66
   0  -4  24  446.60   11.78
   0  -4  24  420.32   13.55
   0  -4  25   64.58    5.11
   0  -4  26  169.29    8.57
   0  -4  27  112.82    6.95
   0  -4  28    1.82    1.66
   0  -4  29   28.28    3.85
   0  -4  30    5.70    1.98
   0  -4  31   33.30    4.19
   0  -4  32   27.47    3.84
   0  -4  33    3.47    2.11
   0   5   0    0.66    0.99
   0  -5   1    0.15    0.75
   0   5  -1    2.11    1.08
   0   5   1    1.17    1.00
   0   5  -2    1.36    1.10
   0   5   2    0.73    0.99
   0  -5   2    1.39    0.82
   0   5  -3    0.56    0.96
   0  -5   3    0.09    0.75
   0   5  -4    0.93    0.28
   0   5  -4   -0.56    0.94
   0  -5   4    1.62    0.84
   0   5  -5   -0.31    0.34
   0  -5   5    0.13    0.68
   0   5  -5    0.63    0.84
   0  -5   6    0.57    0.81
   0   5  -6    1.08    0.88
   0  -5   7   -0.10    0.70
   0  -5   8    0.71    0.78
   0  -5   9    0.37    0.67
   0  -5  -9   -0.89    0.93
   0  -5  10    0.26    0.72
   0  -5 -10   -1.72    1.05
   0  -5  11    0.43    0.71
   0  -5 -11    0.15    0.81
   0  -5  12    0.24    0.69
   0  -5 -12   -0.49    0.80
   0  -5  13   -0.80    1.07
   0  -5  13    0.21    0.64
   0  -5 -13    0.86    0.89
   0  -5 -14   -0.10    0.85
   0  -5  14   -0.80    0.81
   0  -5  14    0.72    1.05
   0  -5  15   -0.74    1.19
   0  -5 -15   -0.86    1.04
   0  -5  15   -0.69    0.78
   0  -5 -16   -0.02    0.89
   0  -5  16    0.68    1.17
   0  -5  16    0.81    0.67
   0  -5 -17   -1.12    1.13
   0  -5  17    0.68    1.20
   0  -5  17    0.53    0.75
   0  -5 -18    0.81    1.03
   0  -5  18   -0.44    1.25
   0  -5  18    0.48    0.89
   0  -5  19    0.94    1.12
   0  -5 -19   -1.35    1.08
   0  -5  19    0.46    1.01
   0  -5 -20   -1.44    1.20
   0  -5  20   -0.32    1.32
   0  -5  20   -1.33    1.09
   0  -5  21   -0.54    1.32
   0  -5  21    0.43    0.78
   0  -5  22   -1.73    1.55
   0  -5  22   -0.73    0.85
   0  -5  23   -0.65    1.62
   0  -5  23   -0.27    0.88
   0  -5  24    1.51    1.48
   0  -5  24    1.13    1.10
   0  -5  25    1.50    1.47
   0  -5  26    0.75    1.70
   0  -5  27   -0.84    1.59
   0  -5  28   -0.45    1.79
   0  -5  29    2.28    1.52
   0  -5  30   -0.08    1.53
   0  -5  31   -1.90    2.01
   0  -5  32   -1.93    1.98
   0   6   0  271.38    7.30
   0   6   1  190.45    5.88
   0   6  -1  183.20    5.76
   0  -6   1  187.92    5.83
   0   6  -2   34.56    2.47
   0   6   2   38.10    2.60
   0  -6   2   40.58    2.54
   0  -6   3    3.23    0.40
   0   6  -3    5.58    1.36
   0  -6   3    2.80    1.03
   0   6   3    4.18    1.34
   0  -6   4  377.14    9.10
   0   6  -4  381.02    9.09
   0  -6   5  125.46    4.68
   0   6  -5  122.37    4.65
   0   6  -6  623.14    9.94
   0  -6   6  612.84   12.80
   0   6  -6  615.75   12.73
   0   6  -7  123.88    4.70
   0  -6   7  127.55    4.82
   0  -6   8  615.03   13.09
   0  -6   9  194.83    6.34
   0  -6  10  766.86   15.60
   0  -6 -10  775.30   15.87
   0  -6  11    6.09    1.20
   0  -6 -11    6.90    1.30
   0  -6  12    5.81    1.20
   0  -6 -12    7.42    1.45
   0  -6  13   23.26    2.22
   0  -6 -13   24.37    2.45
   0  -6  14 1264.65   24.30
   0  -6  14 1286.68   23.57
   0  -6 -14 1299.72   24.56
   0  -6  15    7.28    1.45
   0  -6  15    9.47    1.56
   0  -6 -15    5.50    1.44
   0  -6  16  303.80    9.75
   0  -6  16  310.88    9.09
   0  -6 -16  318.28    9.91
   0  -6  17    2.57    1.48
   0  -6 -17    2.03    1.28
   0  -6  17    1.02    1.05
   0  -6  18  837.43   19.02
   0  -6  18  835.20   17.76
   0  -6 -18  844.67   19.11
   0  -6  19   32.90    3.27
   0  -6  19   32.50    2.88
   0  -6 -19   36.34    3.41
   0  -6  20  175.08    7.74
   0  -6  20  178.84    6.96
   0  -6  21    6.48    1.75
   0  -6  21    8.85    1.68
   0  -6  22   53.25    4.53
   0  -6  22   53.68    3.80
   0  -6  23    2.16    1.40
   0  -6  23   -0.28    1.08
   0  -6  24  740.33   19.44
   0  -6  25   21.77    3.12
   0  -6  26  146.93    8.07
   0  -6  27   72.42    5.80
   0  -6  28  133.08    7.96
   0  -6  29   18.16    3.33
   0  -6  30  269.36   11.97
   0  -6  31   47.49    5.17
   0  -6  32    4.99    2.12
   0   7   0   -0.70    1.02
   0   7  -1    0.87    1.23
   0   7   1   -0.15    1.05
   0   7  -2    0.61    0.95
   0   7   2    0.98    1.23
   0  -7   2   -1.06    0.94
   0  -7   3    0.35    0.32
   0   7  -3   -0.01    0.98
   0   7   3    1.05    1.22
   0  -7   3   -0.12    0.81
   0   7  -4    1.17    0.94
   0  -7   4    0.11    0.86
   0   7   4    0.86    0.94
   0   7  -5    0.99    0.99
   0  -7   5    0.70    0.88
   0   7  -6    0.74    0.94
   0  -7   6    1.78    0.93
   0   7  -7   -0.07    0.32
   0   7  -7   -1.10    0.95
   0  -7   7    0.60    0.99
   0   7  -8   -0.07    0.38
   0  -7   8    0.15    0.77
   0   7  -8   -0.40    0.91
   0  -7   9   -0.31    0.81
   0  -7  10   -0.45    0.89
   0  -7  11   -0.11    0.75
   0  -7  12   -0.11    0.83
   0  -7 -12    1.10    0.97
   0  -7  13   -1.20    0.85
   0  -7 -13   -0.50    0.96
   0  -7  14    0.67    0.93
   0  -7 -14    1.40    1.15
   0  -7  15   -0.19    0.87
   0  -7 -15   -0.55    0.97
   0  -7  16    0.72    1.35
   0  -7  16   -0.68    0.82
   0  -7 -16    0.75    1.04
   0  -7 -17   -0.77    1.11
   0  -7  17   -1.19    0.99
   0  -7 -18    0.15    1.00
   0  -7  18    2.03    1.35
   0  -7  18   -1.57    1.27
   0  -7  19   -0.64    1.27
   0  -7  19    0.42    0.84
   0  -7  20    2.19    1.72
   0  -7  20   -0.41    1.22
   0  -7  21    2.47    1.48
   0  -7  21    1.11    1.12
   0  -7  22   -0.29    1.27
   0  -7  22    2.03    1.36
   0  -7  23    1.25    1.48
   0  -7  23    2.87    1.30
   0  -7  24   -1.53    1.40
   0  -7  25   -3.53    2.00
   0  -7  26    0.40    1.62
   0  -7  27   -0.39    1.56
   0  -7  28    2.58    1.85
   0  -7  29    0.48    2.14
   0  -7  30   -1.14    1.89
   0  -7  31    0.05    1.83
   0  -7  32   -3.13    2.26
   0   8   0   14.77    1.97
   0   8  -1  495.63   11.80
   0   8   1  504.88   11.97
   0   8   2  434.18   11.05
   0   8  -2  439.03   10.97
   0  -8   2  449.80   11.12
   0  -8   3  613.97    9.64
   0   8  -3  608.16   13.68
   0   8   3  605.60   13.70
   0  -8   3  607.68   13.83
   0   8  -4   16.50    2.09
   0   8   4   19.39    2.34
   0  -8   4   17.76    2.03
   0   8  -5  846.38   17.17
   0  -8   5  841.77   17.36
   0   8   5  834.30   17.37
   0   8  -6  791.47   16.37
   0  -8   6  779.17   16.55
   0  -8   7   38.24    2.95
   0   8  -7   31.41    2.68
   0   8  -8    8.61    0.75
   0   8  -8    6.75    1.36
   0  -8   8    8.50    1.54
   0   8  -9  168.42    4.04
   0  -8   9  165.59    6.41
   0   8 -10   13.06    1.13
   0  -8  10   14.05    1.92
   0  -8  11 1311.03   24.67
   0  -8  12  158.59    6.38
   0  -8 -12  169.46    6.72
   0  -8  13  519.50   13.16
   0  -8 -13  544.81   13.74
   0  -8  14   51.02    3.66
   0  -8 -14   44.39    3.58
   0  -8  15   39.83    3.29
   0  -8 -15   38.71    3.37
   0  -8  16  638.77   15.47
   0  -8 -16  659.91   16.29
   0  -8  17 2665.88   46.14
   0  -8  17 2676.24   45.19
   0  -8 -17 2734.51   46.47
   0  -8  18  568.99   15.37
   0  -8  18  579.21   14.65
   0  -8  19   -0.24    1.38
   0  -8  19    0.77    0.88
   0  -8  20  349.40   11.81
   0  -8  20  353.08   11.01
   0  -8  21    4.65    1.54
   0  -8  21    5.93    1.46
   0  -8  22  122.73    7.02
   0  -8  22  124.09    6.31
   0  -8  23  536.83   16.10
   0  -8  23  535.74   14.65
   0  -8  24  155.49    8.21
   0  -8  25    4.75    1.99
   0  -8  26  230.29   10.54
   0  -8  27   10.99    2.52
   0  -8  28  215.62   10.46
   0  -8  29    2.24    2.11
   0  -8  30  130.79    8.37
   0  -8  31    8.44    2.67
   0   9   0    0.95    1.18
   0   9  -1    0.10    1.05
   0   9   1    3.01    1.40
   0   9  -2    0.13    1.16
   0   9   2   -0.13    1.03
   0  -9   3   -0.22    0.34
   0   9  -3    2.09    1.37
   0  -9   3    0.18    1.04
   0   9   3   -1.16    1.06
   0   9  -4    0.41    1.12
   0  -9   4   -0.48    0.88
   0   9   4   -1.34    1.07
   0   9  -5    1.28    1.36
   0  -9   5   -0.99    1.13
   0   9   5   -0.08    1.02
   0   9  -6   -0.49    1.06
   0  -9   6    1.03    1.02
   0   9   6    0.82    1.11
   0   9  -7    1.47    1.13
   0   9   7    0.36    1.01
   0  -9   7    0.93    0.88
   0   9  -8   -0.12    1.09
   0  -9   8   -0.06    0.94
   0   9  -9    0.14    1.00
   0  -9   9   -1.41    1.11
   0   9 -10    0.02    0.38
   0  -9  10    0.03    1.00
   0   9 -11    0.10    0.41
   0  -9  11    0.34    0.89
   0   9 -12   -0.17    0.50
   0  -9  12    0.52    0.86
   0   9 -13    1.11    0.60
   0  -9  13   -0.21    0.89
   0  -9 -13   -1.44    1.44
   0  -9  14   -0.26    1.12
   0  -9 -14   -0.54    0.91
   0  -9  15   -0.36    0.98
   0  -9 -15   -1.25    0.95
   0  -9  16    0.02    0.88
   0  -9 -16   -0.44    1.20
   0  -9  17    0.28    1.01
   0  -9  18    1.59    1.29
   0  -9  18    1.78    1.26
   0  -9  19   -0.63    1.03
   0  -9  19    3.37    1.65
   0  -9  20   -1.42    1.39
   0  -9  20   -0.23    0.91
   0  -9  21    0.54    1.41
   0  -9  21    0.03    0.94
   0  -9  22   -2.52    1.66
   0  -9  22    1.42    1.18
   0  -9  23    0.56    1.55
   0  -9  24   -0.25    1.49
   0  -9  25   -1.66    1.80
   0  -9  26   -0.28    1.63
   0  -9  27    2.94    1.90
   0  -9  28   -0.46    1.85
   0  -9  29   -4.66    2.25
   0  -9  30    3.77    2.20
   0  -9  31    1.39    2.00
   0  10   0   48.66    3.87
   0  10  -1 2391.88   40.41
   0  10   1 2368.92   40.38
   0  10  -2  249.94    8.64
   0  10   2  242.08    8.42
   0 -10   3  886.82   13.83
   0  10   3  891.52   19.15
   0  10  -3  893.53   19.11
   0 -10   4   27.59    1.12
   0  10  -4   25.56    2.78
   0 -10   4   29.50    2.97
   0  10   4   27.15    2.78
   0  10  -5   77.00    4.59
   0  10   5   80.67    4.69
   0 -10   5   78.85    4.69
   0  10  -6   47.71    3.65
   0 -10   6   47.57    3.67
   0  10   6   46.58    3.66
   0  10  -7 1598.90   29.48
   0 -10   7 1612.35   29.94
   0  10   7 1619.19   29.95
   0 -10   8  178.08    7.31
   0  10  -8  184.41    7.25
   0  10   8  176.49    7.27
   0  10  -9  273.65    9.05
   0 -10   9  288.45    9.56
   0  10   9  283.82    9.45
   0 -10  10    3.02    1.23
   0  10 -11  541.21    9.62
   0 -10  11  557.31   14.38
   0  10 -12    0.12    0.42
   0 -10  12    0.74    0.99
   0  10 -13  520.65   10.10
   0 -10  13  539.02   14.29
   0  10 -14  243.41    6.23
   0 -10  14  250.61    9.17
   0 -10 -14  251.12    9.28
   0  10 -15  885.20   16.05
   0 -10  15  880.12   20.14
   0  10 -16    2.95    0.86
   0 -10  16    5.01    1.70
   0 -10  17   68.70    4.80
   0 -10  18    3.25    1.54
   0 -10  19  711.59   18.74
   0 -10  19  734.56   18.25
   0 -10  20    3.93    1.73
   0 -10  20    2.30    1.16
   0 -10  21  504.26   15.59
   0 -10  22    8.55    2.33
   0 -10  23  394.42   13.88
   0 -10  24   14.28    2.73
   0 -10  25   26.74    3.78
   0 -10  26    1.33    1.94
   0 -10  27  156.94    9.16
   0 -10  28    4.02    2.07
   0 -10  29  156.90    9.27
   0 -10  30    2.20    1.93
   0  11   0   -1.54    1.40
   0  11  -1    1.90    1.48
   0  11   1    1.78    1.15
   0  11  -2   -0.73    1.41
   0  11   2    0.41    1.29
   0 -11   3    0.05    0.35
   0  11  -3   -0.43    1.20
   0 -11   4    0.32    0.34
   0  11  -4    1.77    1.43
   0  11   4    0.01    1.18
   0  11  -5   -1.28    1.29
   0  11   5    0.38    1.31
   0 -11   5   -0.90    1.18
   0  11  -6    1.91    1.24
   0  11   6   -0.84    1.17
   0 -11   6   -0.45    1.14
   0  11  -7    0.64    1.29
   0  11   7    0.83    1.25
   0 -11   7    0.34    0.99
   0  11  -8   -1.58    1.42
   0 -11   8   -0.74    1.19
   0  11   8   -0.06    1.29
   0  11  -9   -0.88    1.24
   0  11   9    1.78    1.17
   0 -11   9    0.43    0.99
   0 -11  10    0.00    0.98
   0  11  10   -0.37    1.25
   0  11  11   -0.48    1.32
   0 -11  11    1.68    1.37
   0  11  12   -0.17    1.37
   0 -11  12    0.97    1.11
   0  11 -13   -0.08    0.39
   0 -11  13   -0.26    1.26
   0  11 -14    1.15    0.60
   0 -11  14   -0.90    1.01
   0  11 -15    0.70    0.58
   0 -11  15   -0.43    0.96
   0  11 -16    0.24    0.66
   0 -11  16    0.39    1.08
   0  11 -17    0.00    0.61
   0 -11  17   -0.91    1.09
   0  11 -18    1.42    0.92
   0  11 -19    0.18    0.65
   0 -11  20    0.01    1.34
   0 -11  21    0.44    1.46
   0 -11  22   -3.95    1.84
   0 -11  23    1.45    1.77
   0 -11  24    0.42    1.53
   0 -11  25    0.01    1.76
   0  11  25   -0.46    1.21
   0 -11  26   -1.01    1.91
   0 -11  27   -1.95    1.83
   0 -11  28   -4.18    2.05
   0 -11  29    1.31    1.57
   0  12   0  280.40    9.84
   0  12   1  162.02    7.24
   0  12  -1  163.41    7.36
   0  12   2  440.10   13.00
   0  12  -2  463.07   13.33
   0 -12   3  493.67    8.59
   0  12  -3  491.36   13.86
   0  12   3  471.40   13.71
   0 -12   4  417.43    7.01
   0  12   4  395.90   12.35
   0  12  -4  414.66   12.48
   0  12   5  249.07    9.35
   0  12  -5  233.79    9.03
   0  12  -6  983.93   21.95
   0  12   6 1010.30   22.40
   0 -12   6 1040.22   22.63
   0  12  -7  135.97    6.60
   0  12   7  135.18    6.85
   0 -12   7  139.53    6.99
   0  12  -8   49.09    4.02
   0  12   8   50.08    4.08
   0 -12   8   52.66    4.21
   0  12   9   48.44    4.04
   0  12  -9   47.61    3.97
   0 -12   9   52.36    4.28
   0  12 -10   50.78    4.08
   0  12  10   40.26    3.80
   0 -12  10   43.99    3.96
   0 -12  11   15.49    2.37
   0  12  11   17.38    2.64
   0 -12  12  300.37   10.79
   0  12  12  283.11   10.51
   0  12  13   17.88    2.79
   0  12  14    3.71    1.65
   0  12 -15    8.96    0.97
   0  12  15    9.85    2.17
   0  12 -16  375.66    8.07
   0  12  16  359.69   12.42
   0  12 -17  608.15   11.92
   0  12  17  605.03   16.98
   0  12  18  257.51   10.40
   0  12  19    3.94    1.73
   0 -12  20   37.40    4.13
   0  12  20   41.81    4.22
   0 -12  21  504.61   16.24
   0  12  21  513.06   15.67
   0 -12  22   16.86    3.12
   0  12  22   22.17    3.20
   0 -12  23   21.38    3.32
   0  12  23   21.81    3.26
   0 -12  24  108.78    7.46
   0  12  24  116.06    7.04
   0 -12  25   21.14    3.47
   0 -12  26  136.83    8.55
   0 -12  27   88.32    7.14
   0 -12  28  243.10   11.95
   0  13   0    0.09    1.47
   0  13   1   -1.05    1.39
   0  13  -1    1.27    1.39
   0  13  -2    1.32    1.42
   0  13   2    1.37    1.24
   0 -13   3    0.43    0.45
   0  13  -3    2.68    1.47
   0  13   3    0.91    1.53
   0 -13   4    0.63    0.35
   0  13  -4   -0.25    1.29
   0  13   4    0.41    1.36
   0  13  -5    2.95    1.61
   0  13   5   -1.15    1.30
   0  13  -6   -2.39    1.47
   0  13   6   -0.50    1.52
   0  13  -7   -1.04    1.50
   0  13   7   -1.04    1.53
   0  13  -8   -0.56    1.37
   0  13   8    0.15    1.40
   0  13  -9   -2.21    1.59
   0  13   9    1.97    1.45
   0  13 -10    0.77    1.28
   0  13  10    0.40    1.28
   0  13  11    0.38    1.37
   0  13  12   -0.28    1.26
   0  13  13   -1.26    1.47
   0  13  14   -1.61    1.59
   0  13  15   -1.76    1.69
   0  13  16    3.76    1.91
   0  13  17    2.25    1.51
   0  13  18    0.25    1.42
   0  13  19    2.75    1.67
   0  13  20    1.09    1.65
   0 -13  21    0.10    1.58
   0  13  21    0.58    1.61
   0 -13  22   -2.50    2.10
   0  13  22    4.77    2.21
   0 -13  23    2.65    2.07
   0  13  23   -0.06    1.45
   0 -13  24   -0.63    1.72
   0  13  24    2.46    1.75
   0 -13  25    2.38    2.15
   0 -13  26    1.19    1.84
   0 -13  27   -3.65    2.37
   0  14   0 1290.12   27.75
   0  14  -1  635.03   17.26
   0  14   1  603.38   16.88
   0  14   2  163.12    8.06
   0  14  -2  192.73    8.65
   0 -14   3   31.76    1.53
   0  14   3   24.92    3.34
   0  14  -3   31.96    3.64
   0  14   4  554.87   15.89
   0  14  -4  554.23   15.80
   0  14  -5    9.70    2.55
   0  14   5    8.95    2.37
   0  14   6  442.07   14.06
   0  14  -6  430.70   13.67
   0  14  -7    3.96    1.85
   0  14   7    4.76    2.17
   0  14  -8    0.85    1.42
   0  14   8    2.58    1.73
   0  14   9  368.26   12.82
   0  14  -9  365.86   12.44
   0  14  10  559.38   16.38
   0  14 -10  535.40   15.69
   0  14  11  135.77    7.59
   0  14  12   17.90    2.96
   0  14  13   15.68    2.73
   0  14  14   61.99    5.25
   0  14  15   49.67    4.76
   0  14  16  161.37    8.51
   0  14  17  317.58   12.33
   0  14  18   47.95    4.83
   0  14  19  161.34    8.66
   0  14  20  139.12    8.04
   0  14  21   17.58    3.27
   0 -14  22    6.99    2.44
   0  14  22    5.81    1.95
   0 -14  23   -1.12    1.59
   0  14  23   -0.10    1.44
   0 -14  24  116.26    8.01
   0  14  24  112.69    7.42
   0 -14  25   20.39    3.47
   0 -14  26   18.11    3.36
   0  15   0    2.41    1.78
   0  15   1   -0.54    1.49
   0  15  -1   -1.73    2.00
   0  15   2    1.21    1.68
   0  15  -2   -3.14    2.02
   0 -15   3    0.35    0.45
   0  15  -3    0.81    1.47
   0  15   3   -0.64    1.58
   0  15   4    0.85    1.83
   0  15  -4    0.74    1.52
   0  15   5   -1.15    1.79
   0  15  -5   -1.35    1.71
   0  15  -6   -1.30    1.68
   0  15   6   -1.58    1.88
   0  15  -7   -0.56    1.52
   0  15   7   -1.52    1.82
   0  15  -8   -1.03    1.65
   0  15   8   -1.71    1.86
   0  15  -9   -1.13    1.79
   0  15   9    1.99    1.79
   0  15 -10    1.31    1.68
   0  15  10    3.29    2.10
   0  15  11   -1.11    1.63
   0  15  12   -0.28    1.66
   0  15  13   -0.38    1.46
   0  15  14   -1.70    1.89
   0  15  15    3.13    1.86
   0  15  16    0.49    1.46
   0  15  17   -0.54    1.45
   0  15  18    3.28    1.87
   0  15  19   -3.70    2.04
   0  15  20    0.85    1.54
   0  15  21    0.85    1.46
   0 -15  22   -0.11    1.81
   0  15  22    0.57    1.60
   0 -15  23    0.47    1.62
   0  15  23   -2.03    1.82
   0 -15  24   -0.35    1.78
   0 -15  25   -1.23    1.78
   0  16   0    6.54    2.04
   0  16   1   33.33    4.03
   0  16  -1   31.86    3.86
   0 -16   2    8.10    1.00
   0  16  -2    9.21    2.46
   0  16   2    8.25    2.57
   0 -16   3  619.35   10.32
   0  16   3  587.59   17.87
   0  16  -3  609.07   17.89
   0  16  -4  147.54    8.20
   0  16   4  137.18    7.88
   0  16  -5   85.08    6.21
   0  16   5   87.19    6.40
   0  16   6   31.31    4.04
   0  16  -6   30.91    3.88
   0  16   7  765.37   20.83
   0  16  -7  766.52   20.65
   0  16   8   51.82    4.96
   0  16  -8   59.86    5.23
   0  16  -9   17.40    3.02
   0  16   9   13.61    2.79
   0  16 -10  206.43    9.76
   0  16  10  206.59   10.05
   0  16  11  119.85    7.65
   0  16  12  150.06    8.56
   0  16  13  190.34    9.77
   0  16  14   62.83    5.59
   0  16  15   28.52    3.99
   0  16  16   61.47    5.78
   0  16  17  438.93   15.67
   0  16  18   11.10    2.86
   0  16  19   16.28    3.12
   0  16  20   37.16    4.50
   0  16  21   49.35    5.28
   0  16  22   27.36    4.05
   0 -16  23   86.13    7.12
   0  16  23   79.49    6.56
   0  17   0    1.60    1.78
   0  17  -1   -0.69    1.76
   0  17   1    0.71    1.61
   0 -17   2    0.21    0.46
   0  17  -2    0.82    1.62
   0  17   2   -1.87    2.37
   0 -17   3    0.70    0.40
   0  17   3    0.88    1.60
   0  17  -3   -0.13    1.55
   0  17   4    1.85    2.00
   0  17  -4   -0.90    1.84
   0  17  -5   -0.31    1.56
   0  17   5    1.25    2.25
   0  17   6   -1.97    1.79
   0  17  -6    0.06    1.71
   0  17   7   -1.17    1.84
   0  17  -7   -1.37    1.96
   0  17   8   -0.24    1.64
   0  17  -8   -1.74    1.93
   0  17  -9    0.14    1.46
   0  17   9   -0.62    1.50
   0  17 -10    0.35    1.52
   0  17  10    0.51    1.68
   0  17  11   -1.01    1.61
   0  17  12   -2.18    1.93
   0  17  13   -1.48    2.04
   0  17  14   -1.12    2.20
   0  17  15    0.69    1.79
   0  17  16   -1.19    2.13
   0  17  17   -0.47    2.08
   0  17  18    0.16    1.64
   0  17  19   -1.54    1.88
   0  17  20   -2.90    2.20
   0  17  21   -1.56    2.08
   0  17  22   -2.36    2.31
   0  17  23   -2.50    1.88
   0  18   0   72.97    6.25
   0  18  -1   27.45    3.94
   0  18   1   34.47    4.46
   0 -18   2  296.39    6.21
   0  18   2  301.11   12.95
   0  18  -2  292.69   12.62
   0  18  -3  175.02    9.69
   0  18   3  189.63   10.09
   0  18  -4  200.48   10.34
   0  18   4  213.54   10.69
   0  18   5   89.40    6.96
   0  18  -5   95.43    6.99
   0  18  -6   53.19    5.33
   0  18   6   56.58    5.61
   0  18  -7 1073.27   27.00
   0  18   7 1082.01   27.44
   0  18   8   31.63    4.26
   0  18  -8   36.43    4.57
   0  18   9   11.18    3.03
   0  18  -9    6.09    2.53
   0  18  10  745.64   21.79
   0  18 -10  727.90   21.23
   0  18  11   16.02    3.41
   0  18  12    2.40    1.73
   0  18  13  278.88   12.70
   0  18  14  150.78    9.25
   0  18  15   50.07    5.41
   0  18  16  131.45    8.69
   0  18  17  418.89   16.17
   0  18  18   13.29    3.21
   0  18  19    6.19    2.64
   0  18  20  123.32    8.58
   0  18  21   65.69    6.33
   0  18  22   14.11    3.51
   0  19   0   -1.99    2.20
   0  19  -1   -2.27    2.14
   0  19   1    0.02    1.66
   0  19   2   -1.78    1.85
   0  19  -2   -1.66    1.77
   0  19   3    0.00    1.66
   0  19  -3   -0.47    1.68
   0  19  -4    2.85    2.12
   0  19   4    0.61    1.77
   0  19   5    1.07    1.93
   0  19  -5    2.51    2.00
   0  19  -6   -4.15    2.40
   0  19   6   -0.39    1.77
   0  19  -7    1.03    1.90
   0  19   7   -0.69    1.72
   0  19  -8   -0.07    1.64
   0  19   8    3.60    2.32
   0  19   9   -0.56    1.73
   0  19  -9   -0.54    1.77
   0  19  10    1.95    1.94
   0  19  11    2.38    2.16
   0  19  12   -0.15    2.14
   0  19  13    0.12    1.71
   0  19  14    1.34    1.64
   0  19  15   -0.09    1.76
   0  19  16    0.76    1.95
   0  19  17    0.41    2.04
   0  19  18    0.27    1.64
   0  19  19   -0.99    1.85
   0  19  20   -7.80    2.58
   0  19  21    1.98    1.85
   0  20   0 1162.65   29.94
   0  20   1   68.89    6.46
   0  20  -1   77.04    6.96
   0  20  -2   25.18    4.07
   0  20   2   27.45    4.30
   0  20   3  110.00    8.13
   0  20  -3  106.65    7.99
   0  20   4  177.34   10.38
   0  20  -4  178.85   10.31
   0  20   5   22.15    3.98
   0  20  -5   21.47    3.76
   0  20   6  184.57   10.72
   0  20  -6  192.53   10.72
   0  20  -7   43.01    5.24
   0  20   7   37.07    4.98
   0  20  -8   90.70    7.31
   0  20   8   86.27    7.31
   0  20  -9  153.63    9.54
   0  20   9  140.92    9.41
   0  20  10  392.96   16.09
   0  20  11    8.47    2.62
   0  20  12    2.26    1.88
   0  20  13    7.64    2.38
   0  20  14  376.68   15.91
   0  20  15   -0.40    2.18
   0  20  16  107.18    8.35
   0  20  17   43.44    5.41
   0  20  18   81.87    7.40
   0  21   0    6.45    2.30
   0  21  -1   -0.35    1.87
   0  21   1    0.17    1.84
   0  21  -2   -0.52    1.72
   0  21   2    2.05    2.40
   0  21   3    1.33    1.96
   0  21  -3   -0.44    1.85
   0  21  -4   -2.91    2.19
   0  21   4   -0.60    2.01
   0  21  -5    1.10    1.74
   0  21   5    1.16    2.22
   0  21   6   -6.13    2.83
   0  21  -6    3.49    2.17
   0  21  -7   -0.72    2.26
   0  21   7    0.37    1.90
   0  21  -8   -1.80    2.35
   0  21   8    4.00    2.62
   0  21   9   -2.84    2.47
   0  21  10    1.99    2.16
   0  21  11    1.47    1.96
   0  21  12    1.11    2.21
   1   0   0    0.45    0.40
  -1   0   0    2.32    0.36
   1   0   0    0.18    0.22
  -1   0   1    7.31    0.81
   1   0  -1    7.02    0.74
  -1   0  -2 3941.46   57.23
   1   0  -2 4062.53   57.17
  -1   0   2 4129.35   57.18
   1   0  -3   10.43    1.19
  -1   0   3    0.98    0.78
  -1   0   4 1214.16   19.07
   1   0  -4 1189.28   18.99
   1   0  -5    0.28    0.58
   1   0   5   -0.04    0.36
  -1   0   5    0.01    0.90
  -1   0  -5    0.40    0.37
  -1   0  -6  433.82    7.48
  -1   0   6  431.65    9.03
   1   0  -6  443.13    8.99
   1   0   6  442.69    7.50
  -1   0   7   -0.15    0.91
   1   0  -7   -0.86    0.74
   1   0   7    3.31    0.86
  -1   0  -7    3.13    0.75
  -1   0  -8 2962.91   44.06
  -1   0   8 3104.91   46.16
   1   0  -8 3079.02   46.06
   1   0   8 3071.80   44.12
  -1   0  -9    1.05    0.85
  -1   0   9    2.56    1.21
   1   0  -9    0.04    0.73
   1   0   9    2.77    0.97
   1   0 -10  617.37   12.88
  -1   0 -10  614.31   11.45
  -1   0  10  629.20   13.03
   1   0  10  616.65   11.42
  -1   0 -11   -0.07    0.61
   1   0  11    0.35    0.80
   1   0 -11    0.14    0.79
  -1   0  11   -0.18    0.90
   1   0 -12 2114.63   34.90
  -1   0 -12 2101.96   32.99
  -1   0  12 2120.23   34.95
   1   0  12 2115.48   32.99
  -1   0 -13    1.73    0.92
  -1   0  13    1.81    1.23
   1   0  13    1.38    1.12
   1   0 -13    1.08    1.00
  -1   0 -14   13.10    1.47
  -1   0  14   13.75    1.96
   1   0 -14   10.83    1.60
   1   0  14   11.49    1.38
  -1   0 -15    0.15    0.69
   1   0 -15   -0.80    1.19
  -1   0  15   -1.32    1.19
   1   0  15    0.79    0.78
   1   0 -16   53.63    3.76
  -1   0 -16   53.14    3.19
  -1   0  16   57.60    3.83
   1   0  16   57.65    3.34
   1   0 -17   -0.11    0.95
  -1   0 -17   -0.05    0.71
  -1   0  17    1.59    1.08
   1   0  17   -0.21    0.91
   1   0 -18  147.37    6.66
   1   0  18  147.89    5.94
  -1   0  18  151.63    6.70
   1   0 -19    0.88    1.21
   1   0  19    0.69    1.18
  -1   0  19   -0.38    1.27
   1   0  20   39.78    3.23
  -1   0  20   41.73    3.72
   1   0  21   -0.25    1.05
  -1   0  21   -0.07    1.35
  -1   0  22  508.44   14.93
   1   0  22  522.09   13.77
  -1   0  23    1.05    0.71
   1   0  23    2.26    1.41
  -1   0  23    2.85    1.52
   1   0  24    3.55    1.56
  -1   0  24    4.82    1.65
   1   0  25    0.26    1.13
  -1   0  25    1.64    1.50
   1   0  26  328.81   11.39
  -1   0  26  318.01   12.22
  -1   0  27    3.40    1.97
   1   0  27    2.12    1.28
   1   0  28  219.29    9.45
  -1   0  28  211.78   10.27
  -1   0  29    1.59    1.69
  -1   0  30   32.85    4.30
  -1   0  31    2.22    2.02
  -1   0  32  171.80    9.93
   1   1   0    0.39    0.39
  -1  -1   0    0.70    0.39
   1  -1   0    1.28    0.35
  -1   1  -1  598.23   10.11
  -1  -1  -1  613.84   10.04
   1  -1   1  624.91   10.13
  -1   1   1  628.87    9.97
   1  -1  -1  617.02    9.94
   1  -1   2  427.40    7.55
  -1   1  -2  407.18    7.53
  -1  -1   2  415.04    7.54
   1  -1  -2  426.37    7.54
  -1   1   2  431.98    7.58
  -1  -1   3  351.45    6.77
  -1   1   3  347.07    6.76
   1  -1  -3  330.84    6.68
   1   1  -4   30.17    1.69
  -1  -1   4   33.89    1.83
   1  -1  -4   29.13    1.70
  -1   1   4   28.53    1.69
  -1  -1  -4   28.62    1.04
   1   1  -5    6.56    0.98
   1  -1   5    7.02    0.64
   1  -1  -5    4.99    0.89
  -1  -1   5    7.06    1.15
  -1  -1  -5    6.37    0.58
  -1   1   5    6.88    1.10
  -1  -1   6 1438.56   22.74
   1  -1   6 1416.20   20.92
   1   1  -6 1365.92   22.56
   1  -1  -6 1401.21   22.59
  -1   1   6 1404.74   22.68
  -1  -1  -6 1384.79   20.89
  -1  -1   7  923.73   16.23
   1   1  -7  907.66   16.15
   1  -1  -7  912.15   16.11
   1  -1   7  914.41   14.50
  -1  -1  -7  891.12   14.49
   1   1   7  900.97   14.51
  -1   1   7  927.23   16.19
  -1  -1   8    4.77    1.14
  -1  -1  -8    3.65    0.70
   1  -1  -8    5.18    1.02
   1  -1   8    2.96    0.66
  -1   1   8    4.43    1.39
   1   1  -8    2.52    0.88
  -1  -1   8    3.80    0.46
   1   1   8    2.24    0.62
   1   1  -9   43.40    2.63
   1  -1  -9   40.60    2.60
  -1  -1  -9   41.51    2.07
  -1  -1   9   41.60    2.68
   1  -1   9   40.54    2.05
  -1  -1   9   41.61    1.41
   1   1   9   40.56    2.04
  -1   1   9   45.89    2.79
   1  -1  10  193.83    5.12
  -1  -1 -10  192.28    5.10
   1   1 -10  188.05    6.05
   1  -1 -10  193.79    6.13
  -1  -1  10  197.26    6.14
  -1  -1  10  185.19    3.89
  -1   1  10  195.62    6.21
   1   1  10  196.11    5.14
  -1  -1  11 1068.24   19.54
   1   1 -11 1053.90   19.47
   1  -1 -11 1045.08   19.45
  -1  -1 -11 1046.42   17.83
   1  -1  11 1051.92   17.83
  -1  -1  11 1005.58   15.90
   1   1  11 1051.92   17.84
  -1   1  11 1055.82   19.49
  -1  -1  12  332.84    9.14
   1   1 -12  341.05    9.20
   1  -1 -12  340.82    9.17
  -1  -1 -12  332.38    7.95
   1  -1  12  348.70    8.06
  -1  -1  12  337.51    6.40
  -1   1  12  345.80    9.24
   1   1  12  344.28    8.05
  -1  -1  13  376.11   10.04
   1  -1 -13  384.68   10.11
   1   1 -13  384.88   10.09
  -1  -1 -13  374.25    8.76
  -1  -1  13  362.72    7.01
   1   1  13  374.76    8.83
  -1   1  13  374.79   10.00
   1  -1  13  379.40    8.83
  -1  -1 -14  474.82   10.67
   1   1 -14  474.70   11.95
   1  -1 -14  483.02   12.04
  -1  -1  14  472.52   12.02
   1   1  14  486.42   10.77
   1  -1  14  485.21   10.76
  -1   1  14  480.99   12.01
   1   1 -15   16.18    2.11
  -1  -1  15   17.66    2.24
  -1  -1 -15   12.66    1.55
   1  -1 -15   16.87    2.14
   1  -1  15   16.93    1.91
   1   1  15   15.99    1.77
  -1   1  15   15.38    2.09
   1  -1 -16  159.75    6.54
  -1  -1 -16  145.06    5.49
   1   1 -16  156.09    6.46
   1  -1  16  155.11    5.66
  -1   1  16  144.89    6.34
  -1  -1  16  150.40    6.42
   1   1  16  148.65    5.59
  -1  -1 -17    1.03    0.76
  -1  -1  17   -0.30    1.22
   1  -1  17    1.75    1.05
   1  -1 -17    0.58    0.87
  -1  -1  17    1.84    0.56
   1   1  17   -0.37    0.90
  -1   1  17    1.47    1.13
  -1  -1  18   12.58    2.10
   1  -1 -18    9.74    1.82
   1  -1  18   13.28    1.81
  -1  -1 -18    7.51    1.50
  -1  -1  18   11.73    1.13
   1   1  18    8.97    1.55
  -1   1  18    5.14    1.56
  -1  -1 -19   83.76    4.52
   1  -1 -19   94.48    5.40
  -1  -1  19   94.96    3.36
  -1  -1  19   84.32    5.16
  -1   1  19   88.63    5.30
   1  -1  19   84.73    4.58
   1   1  19   95.35    4.80
  -1  -1 -20   61.47    3.97
  -1  -1  20   59.02    2.70
   1  -1  20   59.53    3.92
  -1  -1  20   55.91    4.34
   1   1  20   58.55    3.92
  -1   1  20   54.73    4.34
  -1  -1 -21  263.54    8.96
  -1  -1  21  278.66    6.69
  -1  -1  21  260.70    9.84
   1   1  21  273.55    9.12
   1  -1  21  271.29    9.08
  -1   1  21  269.05   10.02
  -1  -1  22   19.89    2.88
  -1  -1  22   14.37    1.42
   1  -1  22   14.04    2.26
   1   1  22   16.01    2.40
  -1   1  22   15.21    2.63
  -1  -1  23  212.72    5.81
  -1  -1  23  200.59    8.97
  -1   1  23  208.34    9.13
   1  -1  23  210.15    8.27
   1   1  23  204.79    8.16
  -1  -1  24  191.83    8.99
   1  -1  24  200.58    8.22
  -1   1  24  195.95    9.05
   1   1  24  189.20    7.99
   1  -1  25  184.68    8.07
  -1   1  25  186.33    8.96
  -1  -1  25  190.26    9.06
   1  -1  26    6.44    1.66
  -1   1  26    1.60    1.51
  -1  -1  26    5.03    2.23
  -1   1  27    1.88    1.67
   1  -1  27    5.10    1.88
  -1  -1  27    3.58    1.82
  -1  -1  28  119.16    7.51
  -1   1  28  115.28    7.48
   1  -1  28  121.76    6.92
  -1   1  29    9.58    2.62
   1  -1  29    6.94    1.91
  -1  -1  29   11.56    2.68
  -1   1  30    2.71    1.87
   1  -1  30    4.07    1.73
  -1  -1  30    1.20    1.58
  -1  -1  31  143.32    8.87
   1  -1  31  155.39    8.37
  -1  -1  32   14.90    3.02
  -1  -2   0    1.20    0.43
   1   2  -1  228.46    4.24
   1  -2   1  226.39    4.72
   1  -2  -1  228.04    4.69
  -1   2  -2  369.22    6.95
   1  -2   2  384.63    6.96
   1  -2  -2  374.65    6.74
  -1   2  -3   59.74    2.21
  -1   2   3   54.63    1.84
   1  -2  -3   59.56    1.89
   1  -2  -3   60.53    2.35
  -1   2   4  152.67    3.36
   1  -2  -4  150.70    3.36
   1   2  -4  153.76    3.49
   1  -2  -4  158.83    4.28
  -1   2   4  154.64    4.29
  -1  -2   5   91.67    3.34
   1   2  -5   86.60    2.36
  -1   2   5   84.73    2.27
   1  -2  -5   88.13    3.22
  -1   2   5   92.25    3.32
  -1  -2   6  830.03   14.79
  -1   2   6  790.28   12.65
   1   2  -6  831.82   12.83
  -1   2   6  844.64   14.80
   1  -2  -6  844.60   14.76
  -1  -2  -6  810.07   13.26
  -1  -2   7  109.72    4.07
  -1  -2   7  100.34    2.71
  -1  -2  -7  108.56    3.20
  -1   2   7  107.12    2.67
  -1   2   7  113.55    4.06
   1  -2  -7  106.90    3.94
  -1  -2   8  457.37   10.05
   1  -2   8  468.53    8.81
  -1  -2   8  436.63    7.92
  -1   2   8  483.35   10.23
   1  -2  -8  460.52   10.05
  -1  -2  -8  460.45    8.76
  -1  -2   9   59.94    3.17
   1  -2   9   58.44    2.54
  -1  -2   9   56.00    1.98
   1  -2  -9   60.79    3.16
  -1   2   9   58.96    3.22
  -1  -2  -9   54.13    2.43
  -1  -2  10  171.33    5.79
   1  -2  10  161.23    4.70
   1  -2 -10  168.45    5.68
  -1  -2  10  163.95    3.94
  -1   2  10  162.76    5.66
  -1  -2 -10  160.65    4.72
   1  -2 -11  808.01   16.15
   1  -2  11  813.01   14.65
  -1  -2 -11  794.62   14.61
  -1  -2  11  823.46   16.24
  -1  -2  11  784.35   13.17
  -1   2  11  807.86   16.18
   1  -2  12  377.88    8.58
   1  -2 -12  365.19    9.64
  -1  -2 -12  347.76    8.37
  -1  -2  12  378.60    9.76
  -1  -2  12  351.90    7.09
  -1   2  12  367.64    9.71
  -1  -2  13  451.31   11.36
   1  -2 -13  449.75   11.34
   1  -2  13  434.62    9.99
  -1  -2 -13  444.67   10.07
  -1  -2  13  442.34    8.46
  -1   2  13  447.95   11.26
   1  -2  14  554.07   11.89
  -1  -2  14  558.78   13.26
  -1  -2 -14  535.15   11.81
   1  -2 -14  539.19   13.13
  -1  -2  14  540.82   10.06
  -1   2  14  556.66   13.21
  -1  -2  15  233.11    8.06
   1  -2 -15  240.60    8.13
   1  -2  15  240.08    7.14
  -1  -2 -15  234.38    7.07
  -1  -2  15  230.53    5.60
  -1   2  15  245.53    8.21
   1  -2  16  500.17   11.63
  -1  -2 -16  488.07   11.60
  -1  -2  16  510.05   13.00
   1  -2 -16  499.58   12.97
  -1  -2  16  480.17    9.56
  -1   2  16  495.53   12.96
   1  -2  17    6.86    1.49
  -1  -2 -17    7.00    1.40
   1  -2 -17   10.63    1.85
  -1  -2  17   18.13    2.47
  -1  -2  17    8.35    1.03
  -1   2  17    8.12    1.96
  -1  -2 -18  218.90    7.41
  -1  -2  18  220.88    8.38
   1  -2 -18  223.45    8.39
  -1  -2  18  218.58    5.72
  -1   2  18  219.65    8.35
   1  -2  18  210.57    7.27
  -1  -2 -19  291.87    9.04
   1  -2 -19  288.27   10.03
  -1  -2  19  294.81    7.05
   1  -2  19  295.41    9.08
  -1   2  19  294.28   10.13
  -1  -2  19  295.77   10.15
  -1  -2  20   40.48    3.68
  -1  -2 -20   39.37    3.27
  -1  -2  20   36.55    2.22
   1  -2  20   40.07    3.35
  -1   2  20   40.92    3.77
  -1  -2 -21  119.06    6.01
  -1  -2  21  131.23    4.41
  -1  -2  21  125.72    6.64
   1  -2  21  129.47    6.05
  -1   2  21  124.46    6.56
  -1  -2 -22  120.19    5.97
  -1  -2  22  119.73    4.27
  -1   2  22  120.47    6.73
  -1  -2  22  123.68    6.78
   1  -2  22  120.70    6.01
  -1  -2 -23  177.72    7.54
  -1  -2  23  185.62    5.53
  -1   2  23  170.62    8.24
  -1  -2  23  178.13    8.39
   1  -2  23  176.56    7.60
  -1  -2  24   34.67    3.83
  -1   2  24   37.05    3.98
   1  -2  24   39.25    3.63
  -1   2  25  219.10    9.83
  -1  -2  25  199.44    9.44
   1  -2  25  222.46    8.93
  -1  -2  26  148.42    8.15
   1  -2  26  167.18    7.90
  -1   2  26  148.37    8.21
  -1  -2  27   24.37    3.58
  -1   2  27   26.73    3.74
   1  -2  27   34.38    3.66
   1  -2  28   97.69    6.23
  -1  -2  28   97.36    7.04
   1  -2  29   92.79    6.16
  -1  -2  29   88.03    6.73
   1  -2  30   11.47    2.65
  -1  -2  30    6.36    2.33
  -1  -2  31   12.81    3.03
   1  -2  31   13.18    2.66
  -1  -2  32   85.27    6.98
   1  -3   0    1.36    0.66
  -1  -3   1 1277.47   18.64
  -1   3   1 1254.48   20.00
   1  -3  -1 1286.95   20.01
   1  -3   1 1300.59   20.27
   1  -3   2  960.47   14.96
   1   3  -2  937.07   13.87
  -1   3   2  919.79   15.21
   1  -3  -2  946.19   15.27
   1  -3   3    4.18    0.68
  -1   3  -3    4.00    0.71
  -1   3   3    5.19    0.81
   1  -3  -3    3.99    0.65
  -1   3  -4 1286.77   20.10
  -1   3   4 1292.53   19.95
   1   3  -4 1285.09   20.08
   1  -3  -4 1292.57   19.96
  -1   3  -5 1803.87   27.45
  -1   3   5 1765.12   26.91
   1   3  -5 1827.06   27.13
   1  -3  -5 1839.09   28.47
  -1   3   6   40.70    1.83
   1   3  -6   45.64    1.94
   1  -3  -6   46.66    2.50
   1   3  -7    7.92    0.88
  -1  -3   7    5.56    0.82
   1  -3  -7    8.40    1.22
  -1   3   7    8.51    0.91
  -1  -3   8  244.42    6.80
  -1  -3   8  234.62    5.36
  -1  -3  -8  232.50    5.72
   1  -3  -8  238.27    6.68
  -1  -3   9  263.37    7.36
  -1  -3   9  258.20    5.83
  -1  -3  -9  261.70    6.39
   1  -3  -9  270.56    7.40
  -1   3   9  269.06    7.46
   1  -3  10   35.72    2.19
  -1  -3  10   33.20    2.59
  -1  -3  10   31.24    1.71
  -1   3  10   28.90    2.41
   1  -3 -10   33.47    2.52
  -1  -3 -10   32.39    2.06
   1  -3  11  448.93    9.70
  -1  -3  11  469.31   11.04
  -1  -3  11  440.82    8.68
  -1   3  11  447.04   10.87
  -1  -3 -11  433.31    9.59
   1  -3 -11  450.99   10.90
  -1  -3  12   58.68    3.58
   1  -3  12   64.10    3.13
  -1  -3  12   54.30    2.41
  -1   3  12   60.20    3.60
  -1  -3 -12   60.05    3.02
   1  -3 -12   60.12    3.60
   1  -3 -13  493.63   12.14
  -1  -3  13  490.56   12.15
   1  -3  13  482.16   10.81
  -1  -3  13  486.10    9.63
  -1  -3 -13  490.86   10.93
  -1   3  13  505.62   12.27
  -1  -3 -14   76.42    3.74
   1  -3  14   78.62    3.78
  -1  -3  14   76.72    4.38
   1  -3 -14   79.82    4.40
  -1  -3  14   79.10    3.08
  -1   3  14   83.67    4.56
  -1  -3  15  241.85    8.22
   1  -3 -15  231.40    8.05
   1  -3  15  228.14    7.08
  -1  -3 -15  223.54    7.03
  -1  -3  15  223.48    5.84
  -1   3  15  233.16    8.10
  -1  -3 -16  403.85   10.39
   1  -3  16  410.64   10.41
   1  -3 -16  388.46   11.33
  -1  -3  16  407.94   11.54
  -1  -3  16  393.07    8.63
  -1   3  16  395.50   11.32
   1  -3 -17   32.30    3.08
  -1  -3 -17   33.10    2.73
   1  -3  17   29.50    2.61
  -1  -3  17   29.67    3.01
  -1  -3  17   29.57    1.98
  -1   3  17   30.34    3.09
   1  -3 -18  152.96    6.90
  -1  -3 -18  148.29    6.11
   1  -3  18  154.67    6.17
  -1  -3  18  150.88    6.87
  -1  -3  18  159.26    4.94
  -1   3  18  151.88    6.88
  -1  -3  19   23.90    3.02
   1  -3 -19   20.12    2.65
  -1  -3 -19   20.86    2.37
   1  -3  19   23.56    2.51
  -1  -3  19   20.86    1.78
  -1   3  19   21.65    2.80
  -1  -3  20   40.71    3.72
  -1  -3 -20   38.44    3.21
  -1  -3  20   40.52    2.46
   1  -3  20   39.30    3.22
  -1   3  20   42.35    3.80
  -1  -3 -21  104.19    5.41
  -1  -3  21  106.27    4.16
   1  -3  21  101.63    5.36
  -1   3  21   93.53    5.78
  -1  -3  21   98.74    5.93
  -1  -3 -22   69.79    4.55
  -1  -3  22   76.54    3.51
   1  -3  22   73.10    4.67
  -1  -3  22   67.96    5.08
  -1   3  22   68.08    5.16
  -1  -3  23   39.82    3.97
  -1  -3 -23   47.46    3.77
  -1  -3  23   42.23    2.61
   1  -3  23   40.72    3.60
  -1  -3  24  133.85    7.44
   1  -3  24  135.48    6.75
  -1  -3  25    7.76    2.16
   1  -3  25    9.83    2.09
  -1  -3  26   64.35    5.32
   1  -3  26   69.16    4.99
  -1  -3  27   -0.14    1.58
   1  -3  27   -0.03    1.17
   1  -3  28  150.76    7.80
  -1  -3  28  125.89    7.94
   1  -3  29   52.90    4.78
  -1  -3  29   46.87    5.00
  -1  -3  30   49.93    5.19
   1  -3  30   50.85    4.71
  -1  -3  31   16.43    3.04
   1  -3  31   22.32    3.33
  -1  -3  32    3.49    1.95
  -1   4   0   -0.48    0.85
   1  -4   0   -0.42    0.73
  -1  -4   1   51.90    1.53
  -1   4  -1   50.95    2.53
   1  -4   1   54.79    2.55
  -1   4   1   54.50    2.61
   1  -4  -1   55.83    2.57
   1  -4   2 4061.26   57.48
   1  -4  -2 3950.92   58.37
   1  -4   2 4094.52   58.87
  -1   4   2 4017.82   58.40
   1  -4   3  305.41    6.16
   1  -4   3  311.30    7.20
   1  -4  -3  304.86    6.75
  -1   4   3  298.52    6.76
   1   4  -3  302.02    6.87
  -1   4  -4  402.54    7.66
   1   4  -4  396.86    8.21
  -1   4   4  386.98    8.07
   1  -4   4  401.94    8.74
   1  -4  -4  397.27    8.14
  -1   4  -5   62.98    2.44
  -1   4   5   56.15    2.49
   1   4  -5   63.59    2.67
  -1   4  -6    1.43    0.69
   1   4  -6    0.45    0.66
   1  -4  -6    0.40    0.77
  -1   4   6    0.09    0.66
   1   4  -7   13.29    1.28
  -1  -4   7   12.14    1.28
   1  -4  -7   13.55    1.55
  -1   4   7   12.00    1.20
  -1  -4   8   30.31    1.87
   1   4  -8   30.75    1.82
   1  -4  -8   29.93    2.28
  -1   4   8   31.43    1.90
  -1  -4   9  958.53   16.58
  -1  -4  -9  971.19   17.08
   1  -4  -9  987.42   18.43
  -1  -4  10   40.75    2.87
  -1  -4  10   41.60    2.23
   1  -4 -10   42.45    2.88
  -1  -4 -10   39.55    2.38
  -1  -4  11  428.92   10.77
  -1  -4  11  416.45    8.87
  -1  -4 -11  423.26    9.61
   1  -4 -11  420.94   10.64
   1  -4  12   50.81    2.89
  -1  -4  12   47.49    3.28
  -1  -4  12   48.86    2.45
   1  -4 -12   51.27    3.35
  -1  -4 -12   48.72    2.85
   1  -4  13  241.15    7.04
  -1  -4  13  234.96    7.80
  -1  -4  13  232.78    6.12
  -1  -4 -13  234.50    6.95
   1  -4 -13  234.62    7.86
   1  -4  14   20.86    2.01
  -1  -4 -14   21.35    2.04
  -1  -4  14   21.68    2.38
  -1  -4  14   22.84    1.77
   1  -4 -14   28.33    2.72
  -1  -4  15 1375.06   26.00
   1  -4 -15 1389.41   26.10
   1  -4  15 1371.30   24.38
  -1  -4  15 1322.57   22.58
  -1  -4 -15 1346.77   24.33
  -1  -4  16    7.73    1.82
  -1  -4 -16    7.96    1.45
   1  -4  16    8.52    1.54
   1  -4 -16   10.06    1.82
  -1  -4  16    7.54    1.14
  -1  -4  17   48.60    3.88
   1  -4 -17   57.73    4.10
  -1  -4 -17   54.71    3.52
   1  -4  17   58.88    3.67
  -1  -4  17   52.42    2.82
   1  -4 -18   45.12    3.76
   1  -4  18   41.04    3.20
  -1  -4 -18   42.30    3.21
  -1  -4  18   41.11    3.61
  -1  -4  18   41.89    2.56
   1  -4  19  523.50   13.22
  -1  -4  19  528.18   14.51
   1  -4 -19  521.75   14.48
  -1  -4 -19  512.53   13.23
  -1  -4  19  511.32   11.22
   1  -4  20    2.01    1.22
  -1  -4  20    1.34    1.31
  -1  -4 -20    1.68    0.89
  -1  -4  20    5.71    1.22
  -1  -4 -21  104.30    5.58
  -1  -4  21  101.22    6.05
   1  -4  21  111.45    5.70
  -1  -4  21  113.03    4.49
  -1  -4  22   17.25    2.62
   1  -4  22   22.47    2.67
  -1  -4 -22   13.77    2.18
  -1  -4  22   19.04    1.84
   1  -4  23   -1.16    1.27
  -1  -4  23    0.56    1.30
  -1  -4 -23    0.51    0.97
  -1  -4  23    0.49    0.71
   1  -4  24   12.25    2.30
  -1  -4  24   15.08    2.80
   1  -4  25   82.11    5.40
  -1  -4  25   82.06    6.02
  -1  -4  26   -1.48    1.61
   1  -4  26   -0.33    1.18
   1  -4  27    2.42    1.47
  -1  -4  27    1.92    1.71
  -1  -4  28    6.95    2.16
   1  -4  28    9.36    2.27
  -1  -4  29   14.89    3.09
   1  -4  29   15.90    2.82
  -1  -4  30    2.50    2.08
   1  -4  30    4.59    1.83
  -1  -4  31    1.19    2.18
   1  -4  31    1.74    1.63
  -1  -4  32    0.32    1.81
  -1   5   0    1.13    1.06
   1  -5   0    0.95    0.80
   1  -5   1  857.09   15.40
  -1   5   1  816.13   15.15
   1  -5  -1  840.38   15.15
  -1   5  -1  818.77   15.22
   1  -5   2 2440.63   35.57
   1  -5   2 2434.35   37.51
   1  -5  -2 2422.83   37.13
  -1   5   2 2359.27   37.08
  -1   5  -2 2434.13   37.37
   1  -5   3    6.01    0.80
   1  -5   3    6.63    1.16
  -1   5   3    4.64    1.06
   1  -5  -3    5.95    1.10
   1   5  -3    7.89    1.37
   1  -5   4  147.43    3.88
  -1   5   4  143.64    4.65
   1  -5   4  147.00    4.92
   1   5  -4  151.70    4.76
  -1   5  -5    9.80    1.02
   1  -5   5   10.11    1.44
  -1   5   5    7.42    1.14
   1   5  -5    7.08    1.12
  -1   5  -6    5.22    0.83
   1   5  -6    6.60    1.16
   1  -5   6    8.23    1.30
  -1   5   6    7.51    1.17
  -1   5  -7  190.84    5.03
   1  -5   7  197.00    6.10
  -1   5   7  188.19    5.42
   1   5  -7  195.02    5.46
  -1  -5   7  186.29    5.52
  -1   5   8  980.02   17.41
   1   5  -8 1020.90   17.56
   1  -5   8 1031.74   18.75
   1  -5  -8 1029.86   19.01
  -1  -5   8  967.87   17.61
  -1  -5   9  120.15    4.30
   1   5  -9  127.83    4.27
   1  -5   9  127.27    4.89
  -1   5   9  118.23    4.18
   1  -5  -9  121.54    5.00
  -1   5  10   13.39    1.46
  -1  -5 -10   13.86    1.55
  -1  -5  10   12.50    1.47
   1  -5 -10   15.62    1.88
  -1  -5  11  271.27    7.16
  -1  -5 -11  290.32    7.73
   1  -5 -11  288.76    8.57
  -1  -5  12  326.53    9.44
  -1  -5  12  304.48    7.78
  -1  -5 -12  307.27    8.34
   1  -5 -12  326.18    9.43
  -1  -5  13  139.79    6.02
  -1  -5  13  134.82    4.76
   1  -5 -13  143.80    6.05
  -1  -5 -13  139.01    5.34
  -1  -5  14   22.09    2.45
   1  -5 -14   21.08    2.46
   1  -5  14   23.57    2.22
  -1  -5  14   20.03    1.80
  -1  -5 -14   21.67    2.10
  -1  -5  15  108.73    5.48
   1  -5  15  107.45    4.83
  -1  -5  15  103.04    4.18
   1  -5 -15   99.72    5.28
  -1  -5 -15  102.03    4.76
   1  -5  16   65.44    3.91
  -1  -5  16   69.46    4.50
  -1  -5  16   65.81    3.34
   1  -5 -16   66.19    4.41
  -1  -5 -16   71.76    4.07
  -1  -5 -17    2.40    0.88
  -1  -5  17    5.14    1.50
   1  -5  17    1.78    0.95
   1  -5 -17    5.68    1.61
  -1  -5  17    3.57    0.98
  -1  -5 -18   -0.30    0.80
   1  -5 -18    0.62    1.12
   1  -5  18    3.16    1.29
  -1  -5  18    1.73    1.30
  -1  -5  18    0.93    0.76
   1  -5  19   71.35    4.43
  -1  -5 -19   72.76    4.44
  -1  -5  19   81.82    5.22
  -1  -5  19   74.05    3.72
  -1  -5  20   18.20    2.67
   1  -5  20   20.62    2.52
  -1  -5 -20   21.16    2.50
  -1  -5  20   18.25    1.88
   1  -5  21  186.80    7.73
  -1  -5  21  199.00    8.74
  -1  -5 -21  185.31    7.72
   1  -5  21  189.28    7.60
  -1  -5  21  190.90    6.37
  -1  -5  22  511.88   15.40
   1  -5  22  508.19   14.13
  -1  -5 -22  507.97   14.17
  -1  -5  22  534.90   12.14
   1  -5  22  536.03   14.03
   1  -5  23   92.81    5.50
  -1  -5  23   82.70    5.85
   1  -5  23   80.92    4.99
  -1  -5  23   85.82    4.22
  -1  -5  24   -1.33    1.76
   1  -5  24    1.51    1.20
   1  -5  24    2.07    1.26
  -1  -5  25   90.52    6.36
   1  -5  25   85.79    5.54
   1  -5  26  117.10    6.70
  -1  -5  26  122.48    7.59
  -1  -5  27   38.00    4.44
   1  -5  27   40.22    4.09
   1  -5  28   29.16    3.62
  -1  -5  28   27.29    3.92
   1  -5  29    9.43    2.41
  -1  -5  29    4.39    1.81
  -1  -5  30   -0.55    1.89
   1  -5  30    3.16    1.96
   1  -5  31   46.94    4.78
  -1  -5  31   46.69    5.24
  -1  -5  32  216.49   11.41
  -1   6   0    0.22    0.99
   1  -6   0    1.05    0.87
   1  -6  -1   38.16    2.57
   1  -6   1   33.44    2.38
  -1   6  -1   36.63    2.55
  -1   6   1   35.89    2.43
  -1   6   2  609.05   12.67
  -1   6  -2  622.79   12.90
   1  -6   2  642.41   13.13
   1  -6  -2  633.79   12.80
   1   6  -2  630.33   12.88
   1  -6   3  177.98    4.39
   1  -6   3  178.68    5.84
  -1   6   3  167.47    5.48
   1   6  -3  175.28    5.63
  -1   6  -3  177.02    5.80
   1  -6  -3  177.09    5.59
   1  -6   4  188.41    4.61
   1  -6   4  195.66    6.10
  -1   6   4  174.21    5.63
   1   6  -4  194.36    5.91
   1   6  -5  240.54    6.73
   1  -6   5  250.82    7.20
  -1   6   5  228.92    6.56
  -1   6  -6 1036.58   17.17
   1   6  -6 1071.24   18.87
   1  -6   6 1091.23   19.63
  -1   6   6 1004.20   18.61
  -1   6  -7   59.48    2.56
  -1   6   7   58.02    3.06
   1  -6   7   61.97    3.49
   1   6  -7   59.44    3.11
  -1   6  -8  119.53    3.91
   1   6  -8  120.86    4.47
  -1   6   8  117.15    4.46
   1  -6   8  117.61    4.90
  -1  -6   8  119.50    4.56
  -1   6  -9  206.14    5.65
   1  -6   9  212.07    6.89
   1   6  -9  206.43    6.10
  -1   6   9  204.03    6.16
   1  -6  -9  206.03    6.93
  -1  -6   9  201.96    6.23
   1  -6  10  234.66    7.37
   1   6 -10  224.55    6.43
  -1  -6  10  216.98    6.57
   1  -6 -10  222.55    7.40
  -1   6  10  222.62    6.50
   1  -6  11   60.34    3.68
  -1  -6  11   57.23    3.14
   1  -6 -11   53.57    3.55
  -1   6  11   57.53    3.09
   1  -6  12  574.26   13.29
  -1  -6  12  542.97   12.06
  -1   6  12  555.45   11.94
   1  -6 -12  575.92   13.80
  -1  -6 -12  548.10   12.58
  -1  -6  13    1.50    1.17
   1  -6  13    0.61    0.82
  -1  -6  13    0.00    0.69
  -1  -6 -13   -0.03    0.77
   1  -6 -13   -1.13    1.19
  -1  -6  14   56.54    3.99
   1  -6  14   58.24    3.75
  -1  -6  14   63.98    3.42
   1  -6 -14   61.01    4.09
  -1  -6 -14   58.83    3.59
   1  -6  15   83.23    4.42
  -1  -6  15   83.15    4.91
  -1  -6  15   83.21    4.00
   1  -6  15   83.22    4.63
  -1  -6 -15   84.49    4.41
   1  -6 -15   78.29    4.77
  -1  -6  16  309.70   10.35
   1  -6  16  323.69    9.58
  -1  -6  16  321.02    8.76
   1  -6  16  323.65    9.92
  -1  -6 -16  322.62    9.57
   1  -6 -16  333.19   10.59
   1  -6 -17   19.02    2.49
  -1  -6  17   20.16    2.70
   1  -6  17   19.73    2.38
  -1  -6 -17   21.27    2.37
   1  -6  17   17.59    2.20
  -1  -6  17   18.22    2.00
   1  -6  18  162.25    6.74
  -1  -6  18  156.89    7.31
   1  -6  18  163.45    6.91
  -1  -6  18  156.59    5.87
  -1  -6 -18  158.45    6.66
   1  -6  19    8.18    1.76
  -1  -6  19    8.69    2.07
  -1  -6 -19    7.27    1.69
   1  -6  19   11.11    1.88
  -1  -6  19    6.28    1.18
   1  -6  20    9.92    2.02
  -1  -6 -20   10.54    1.89
  -1  -6  20    8.32    1.89
   1  -6  20   11.88    1.99
  -1  -6  20   13.13    1.72
  -1  -6  21   31.04    3.55
  -1  -6 -21   36.46    3.35
   1  -6  21   28.04    3.01
  -1  -6  21   27.47    2.47
   1  -6  21   29.68    2.90
  -1  -6  22  131.95    7.37
   1  -6  22  145.37    7.04
  -1  -6  22  146.13    5.87
   1  -6  22  149.41    6.91
  -1  -6  23    0.06    1.43
   1  -6  23    1.41    1.25
   1  -6  23   -0.27    0.92
  -1  -6  24   93.83    6.46
   1  -6  24   93.91    5.85
   1  -6  25    2.10    1.74
  -1  -6  25    1.58    1.63
  -1  -6  26   89.77    6.59
   1  -6  26   92.93    6.05
  -1  -6  27   -1.19    2.09
   1  -6  27    1.64    1.94
   1  -6  28   60.55    5.15
  -1  -6  28   60.71    5.72
  -1  -6  29    0.72    1.83
   1  -6  29    4.06    1.90
  -1  -6  30   56.74    5.64
   1  -6  30   53.40    4.97
  -1  -6  31    2.26    1.62
   1  -6  31    6.31    2.23
  -1   7   0    1.45    1.36
   1  -7   0    1.90    1.16
   1  -7   1  969.77   18.23
   1  -7  -1  966.93   18.16
  -1   7   1  920.73   17.88
  -1   7  -1  930.64   18.04
   1   7  -1  938.17   18.15
  -1   7   2  148.55    5.51
   1  -7   2  153.46    5.59
  -1   7  -2  153.68    5.60
   1  -7  -2  146.72    5.42
   1   7  -2  158.14    5.65
   1  -7   3   48.59    2.16
  -1   7   3   53.86    3.13
  -1   7  -3   52.19    3.21
   1   7  -3   50.20    3.17
   1  -7   3   53.42    3.25
   1  -7  -3   50.36    3.02
   1  -7   4   58.05    2.36
   1  -7   4   59.44    3.52
   1   7  -4   57.72    3.28
  -1   7   4   57.93    3.27
  -1   7  -4   58.88    3.48
   1  -7   5 1211.55   21.82
   1   7  -5 1154.07   20.88
  -1   7   5 1100.96   20.69
   1  -7   6  196.66    6.80
  -1   7   6  183.47    6.17
   1   7  -6  198.55    6.34
  -1   7  -7  523.86    9.96
  -1   7   7  494.35   11.53
   1  -7   7  527.59   12.49
   1   7  -7  538.05   11.86
  -1   7  -8    9.02    1.09
   1   7  -8    8.26    1.43
   1  -7   8   12.61    1.81
  -1   7   8    8.53    1.44
  -1   7  -9  606.21   11.70
   1   7  -9  615.79   13.08
   1  -7   9  645.75   14.33
  -1   7   9  590.69   13.05
  -1  -7   9  602.27   13.25
  -1   7 -10    3.85    0.82
   1  -7  10    4.51    1.31
   1   7 -10    4.01    1.19
  -1   7  10    3.21    1.12
  -1  -7  10    4.36    1.14
   1  -7 -10    3.31    1.14
  -1   7 -11   95.45    3.84
   1  -7  11   99.10    4.90
  -1   7  11   92.93    4.26
   1  -7 -11  100.04    5.05
  -1  -7  11   93.18    4.34
   1  -7  12    2.13    1.16
  -1   7  12    2.29    0.93
  -1  -7  12    4.33    1.11
   1  -7 -12    2.91    1.15
   1  -7  13   71.72    4.20
  -1  -7  13   64.49    3.64
  -1  -7 -13   71.55    4.02
  -1   7  13   63.79    3.62
   1  -7 -13   67.42    4.32
  -1  -7  14   14.31    2.22
   1  -7  14   15.31    2.25
  -1  -7  14   16.48    1.93
  -1  -7 -14   16.53    2.05
  -1   7  14   14.20    1.87
   1  -7 -14   13.99    2.18
  -1  -7  15  805.45   18.49
  -1  -7  15  772.92   16.36
   1  -7  15  800.66   17.75
  -1  -7 -15  779.45   17.24
  -1   7  15  769.88   16.12
   1  -7 -15  815.56   18.56
   1  -7 -16    6.65    1.66
   1  -7  16    6.07    1.53
  -1  -7  16    9.07    2.17
   1  -7  16    4.52    1.30
  -1  -7 -16    5.17    1.43
  -1  -7  16    6.96    1.43
  -1  -7 -17   25.51    2.66
  -1  -7  17   20.78    2.81
   1  -7  17   26.27    2.78
   1  -7  17   26.57    2.76
  -1  -7  17   28.27    2.54
   1  -7  18   34.43    3.21
  -1  -7  18   33.55    3.60
   1  -7  18   38.31    3.42
  -1  -7  18   32.28    2.77
  -1  -7 -18   38.87    3.30
   1  -7  19  839.70   19.29
  -1  -7  19  854.47   20.64
  -1  -7  19  867.50   18.14
   1  -7  19  904.43   19.94
  -1  -7 -19  890.63   19.69
   1  -7  20   11.07    2.05
  -1  -7  20   16.17    2.66
  -1  -7 -20   11.27    2.00
   1  -7  20   12.51    2.14
  -1  -7  20   10.66    1.69
   1  -7  21   60.31    4.49
  -1  -7  21   65.07    5.16
  -1  -7  21   62.42    3.90
   1  -7  21   64.51    4.58
  -1  -7  22   43.39    4.30
   1  -7  22   46.09    4.02
   1  -7  22   47.82    4.02
  -1  -7  22   46.03    3.37
  -1  -7  23   44.90    4.44
   1  -7  23   43.59    3.99
  -1   7  23   46.11    3.25
   1  -7  24   23.06    3.03
  -1  -7  24   23.66    3.59
  -1   7  24   27.55    2.58
   1  -7  25  236.11    9.89
  -1  -7  25  251.73   11.02
  -1  -7  26   -0.55    1.83
   1  -7  26    0.91    1.39
   1  -7  27    7.06    2.11
  -1  -7  27    4.85    1.90
  -1  -7  28   56.21    5.51
   1  -7  28   52.05    4.88
  -1  -7  29  121.08    8.16
   1  -7  29  114.97    7.25
  -1  -7  30   49.62    5.45
   1  -7  30   45.31    4.70
  -1  -7  31    4.69    2.59
  -1   8   0    1.97    1.39
   1  -8   0    0.24    0.93
   1   8   0    2.97    1.37
  -1   8   1   42.62    3.17
   1  -8   1   43.05    3.08
  -1   8  -1   39.56    2.98
   1  -8  -1   43.38    3.06
   1   8  -1   45.41    3.26
  -1   8  -2 1138.82   21.87
   1  -8   2 1207.02   22.34
   1   8  -2 1179.54   22.06
  -1   8   2 1173.54   21.97
   1  -8  -2 1185.25   22.07
   1  -8   3   96.94    3.22
  -1   8  -3   99.39    4.71
  -1   8   3   98.10    4.66
   1  -8   3  101.40    4.81
   1   8  -3  104.99    4.83
   1  -8   4   25.49    1.57
   1  -8   4   25.81    2.47
  -1   8  -4   28.53    2.58
  -1   8   4   25.34    2.41
   1   8  -4   26.92    2.49
   1  -8   5 1342.99   21.37
   1  -8   5 1433.81   25.30
   1   8  -5 1344.47   24.36
  -1   8   5 1295.34   24.12
   1   8  -6  111.80    4.92
  -1   8   6   89.99    4.48
   1  -8   6  110.05    5.18
   1   8  -7  246.45    7.69
  -1   8   7  234.81    7.57
   1  -8   7  256.02    8.32
  -1   8  -8  536.02   10.33
   1  -8   8  548.36   13.34
   1   8  -8  549.99   12.60
  -1   8   8  515.21   12.39
  -1   8  -9  789.35   14.18
  -1   8   9  773.08   16.41
   1   8  -9  788.89   16.33
   1  -8   9  816.05   17.53
  -1   8 -10   99.88    3.71
   1   8 -10  102.18    4.65
  -1   8  10   95.33    4.62
   1  -8  10  104.71    5.22
  -1  -8  10   94.63    4.64
  -1   8 -11  559.11   11.44
   1   8 -11  566.47   12.91
  -1   8  11  541.24   12.92
   1  -8  11  570.57   14.09
  -1  -8  11  555.83   13.26
   1  -8 -11  589.42   14.32
  -1   8 -12  137.51    4.84
  -1   8  12  138.25    5.66
   1  -8  12  142.98    6.31
   1  -8 -12  153.43    6.63
  -1  -8  12  137.32    5.77
  -1   8 -13   83.59    3.78
   1  -8  13   91.95    5.09
  -1   8  13   74.54    4.14
   1  -8 -13   83.80    4.94
  -1  -8  13   82.25    4.45
  -1   8 -14   22.24    2.03
   1  -8  14   28.38    2.93
   1  -8 -14   24.04    2.74
  -1  -8  14   24.32    2.45
  -1  -8 -14   19.25    2.37
  -1   8  14   18.96    2.21
  -1  -8  15  634.24   14.76
   1  -8  15  664.39   16.08
   1  -8 -15  672.23   16.59
  -1  -8 -15  634.15   15.33
  -1   8  15  634.28   14.61
  -1  -8  16   29.17    3.25
  -1  -8  16   31.84    2.83
   1  -8  16   27.23    2.89
  -1  -8 -16   30.62    2.89
  -1   8  16   28.52    2.62
  -1  -8  17   53.23    4.36
   1  -8  17   51.30    3.88
   1  -8  17   56.50    4.20
  -1  -8  17   45.95    3.43
  -1   8  17   48.95    3.43
  -1  -8 -17   53.53    3.91
   1  -8  18  152.55    6.89
  -1  -8  18  150.42    7.45
   1  -8  18  159.62    7.21
  -1  -8  18  148.17    6.28
  -1  -8 -18  153.89    6.94
  -1   8  18  146.70    6.16
  -1  -8 -19    6.52    1.71
   1  -8  19    4.83    1.53
  -1  -8  19    5.45    1.87
   1  -8  19    7.92    1.84
  -1   8  19    5.29    1.32
  -1  -8  19    6.62    1.56
  -1  -8  20   -0.25    1.43
   1  -8  20    3.98    1.57
   1  -8  20    0.86    1.09
  -1  -8  20    1.56    0.98
  -1   8  20    2.75    1.27
  -1  -8  21  274.13   10.95
   1  -8  21  261.39    9.86
  -1  -8  21  261.94    8.91
   1  -8  21  283.82   10.31
  -1   8  21  275.80    8.95
  -1  -8  22  135.21    7.61
   1  -8  22  124.67    6.69
  -1  -8  22  116.04    5.73
  -1   8  22  126.00    5.77
  -1  -8  23    8.38    2.26
   1  -8  23    9.56    2.16
  -1   8  23   10.60    1.69
  -1  -8  24   17.80    3.08
   1  -8  24   22.30    2.99
  -1   8  24   23.75    2.58
   1  -8  25  112.42    6.84
  -1  -8  25  119.29    7.65
   1  -8  26   55.87    4.85
  -1  -8  26   50.66    5.32
  -1  -8  27    9.38    2.64
   1  -8  27    7.72    2.19
   1  -8  28   46.74    4.59
  -1  -8  28   45.86    5.16
  -1  -8  29   41.44    4.94
   1  -8  29   45.01    4.68
  -1  -8  30    5.53    2.63
   1  -8  30    5.33    2.27
  -1   9   0    0.46    1.21
   1   9   0   -0.03    1.10
   1  -9   0   -0.55    0.95
   1   9  -1  138.26    5.95
  -1   9   1  140.88    5.92
   1  -9   1  140.95    6.00
  -1   9  -1  124.08    5.68
   1  -9  -1  145.52    6.08
   1   9   1  139.90    6.01
   1   9  -2  729.05   16.18
  -1   9   2  713.84   16.03
   1  -9   2  752.65   16.51
  -1   9  -2  729.62   16.09
   1  -9  -2  756.66   16.29
   1  -9   3  345.68    7.34
  -1   9   3  335.67    9.81
   1  -9   3  354.09   10.20
   1   9  -3  337.19    9.84
  -1   9  -3  338.80    9.81
   1  -9   4    0.41    0.54
  -1   9  -4    3.54    1.36
  -1   9   4    1.49    1.26
   1  -9   4    0.80    1.05
   1   9  -4    1.04    1.05
   1  -9   5  943.22   15.70
  -1   9  -5  931.46   19.29
  -1   9   5  904.28   18.82
   1   9  -5  926.69   19.04
   1  -9   5  963.36   19.64
   1   9  -6   32.33    2.80
  -1   9   6   31.03    2.82
   1  -9   6   33.86    2.98
   1   9  -7    0.74    0.99
   1  -9   7    0.48    0.88
  -1   9   7    0.22    0.96
  -1   9   8  595.00   14.22
   1   9  -8  635.44   14.47
   1  -9   8  636.71   15.34
   1   9  -9  344.97    9.93
  -1   9   9  346.54   10.00
   1  -9   9  373.37   10.99
  -1   9 -10   22.88    1.71
   1   9 -10   22.89    0.95
   1  -9  10   25.02    2.83
   1   9 -10   24.26    2.49
  -1   9  10   22.99    2.48
  -1   9 -11  120.31    4.21
  -1   9  11  114.06    5.40
   1   9 -11  121.99    5.47
   1  -9  11  129.71    6.21
  -1  -9  11  112.25    5.43
  -1   9 -12  729.90   14.02
   1  -9  12  762.45   17.57
  -1   9  12  693.63   16.08
  -1  -9  12  694.54   16.26
   1  -9 -12  759.42   17.57
  -1   9 -13   17.43    1.70
   1  -9  13   19.69    2.49
  -1   9  13   18.32    2.28
  -1  -9  13   12.26    1.84
   1  -9 -13   16.15    2.32
  -1   9 -14   28.00    2.21
   1  -9  14   32.02    3.31
  -1  -9  14   24.34    2.60
   1  -9 -14   31.15    3.19
  -1  -9 -14   22.49    2.48
  -1   9  14   26.95    2.73
  -1   9 -15  394.72    9.89
   1  -9  15  420.58   12.47
  -1   9  15  392.63   11.14
  -1  -9  15  385.12   11.25
  -1  -9 -15  407.03   11.75
  -1   9 -16  221.87    7.12
   1  -9  16  226.65    8.87
  -1   9  16  209.78    7.78
  -1  -9 -16  228.03    8.51
  -1  -9  16  206.90    7.89
  -1  -9  17  189.49    8.51
  -1   9 -17  192.97    6.80
  -1   9  17  192.94    7.43
   1  -9  17  211.94    8.55
  -1  -9  17  195.32    7.62
  -1  -9 -17  205.16    8.17
   1  -9  18   52.12    4.10
  -1  -9  18   54.06    4.50
   1  -9  18   69.12    4.89
  -1  -9 -18   58.48    4.29
  -1  -9  18   63.27    4.21
  -1   9  18   53.87    3.87
   1  -9  19   47.90    4.00
  -1  -9  19   49.72    4.51
  -1   9  19   47.16    3.67
  -1  -9  19   45.19    3.63
   1  -9  20   -0.76    1.49
  -1  -9  20    0.04    1.58
  -1   9  20    0.03    1.01
  -1  -9  20    0.87    1.30
   1  -9  21   52.95    4.44
  -1  -9  21   62.40    5.20
  -1   9  21   58.37    4.10
  -1  -9  21   58.02    4.23
  -1  -9  22  574.29   17.41
   1  -9  22  585.30   16.36
  -1   9  22  586.94   14.76
   1  -9  23   17.58    2.69
  -1  -9  23   19.62    3.30
  -1   9  23   17.46    2.27
  -1  -9  24    4.03    1.58
   1  -9  24   11.93    2.35
  -1   9  24   11.93    2.09
   1  -9  25   44.91    4.42
  -1  -9  25   48.35    5.03
   1  -9  26  175.44    8.94
  -1  -9  26  166.66    9.39
  -1  -9  27   15.10    3.29
   1  -9  27   13.44    2.68
   1  -9  28    3.15    1.91
  -1  -9  28    4.17    2.47
   1  -9  29   71.95    6.08
  -1  -9  29   78.50    6.75
   1  -9  30    6.75    2.33
  -1  10   0    7.53    2.06
   1 -10   0    4.92    1.78
   1  10   0    0.74    1.18
   1 -10   1  927.18   19.73
  -1  10  -1  893.53   19.36
  -1  10   1  891.59   19.36
   1  10  -1  924.85   19.71
   1  10   1  923.21   19.75
   1 -10  -1  938.11   19.74
  -1  10   2  203.79    7.66
   1  10  -2  199.41    7.65
   1 -10   2  217.20    8.01
  -1  10  -2  203.80    7.68
   1  10   2  208.21    7.86
   1 -10   3  520.19   10.08
   1 -10   3  544.45   13.79
   1  10  -3  509.47   13.29
  -1  10  -3  516.80   13.30
  -1  10   3  516.35   13.34
   1 -10   4   82.24    3.02
   1  10  -4   80.69    4.63
  -1  10   4   80.86    4.66
  -1  10  -4   84.86    4.80
   1 -10   4   88.10    4.95
   1 -10   5  737.23   12.92
   1 -10   5  757.94   17.29
  -1  10  -5  725.41   16.71
  -1  10   5  700.78   16.37
   1  10  -5  714.67   16.46
   1  10  -6   38.60    3.30
  -1  10   6   43.31    3.45
   1 -10   6   48.03    3.75
  -1  10   7  212.01    7.82
   1 -10   7  225.82    8.36
   1  10  -7  233.17    8.18
   1 -10   8   12.22    2.07
   1  10  -8   12.14    2.03
  -1  10   8    7.36    1.82
  -1  10   9 1016.54   21.35
   1  10  -9 1049.79   21.39
   1 -10   9 1087.10   22.56
   1  10 -10   14.41    2.10
   1 -10  10   18.03    2.37
  -1  10  10   12.68    2.07
  -1  10 -11  428.62    9.24
  -1  10  11  418.07   11.86
   1  10 -11  437.44   11.88
   1 -10  11  451.28   12.87
  -1  10 -12   83.81    3.49
   1  10 -12   86.13    2.30
   1 -10  12   90.04    5.49
  -1  10  12   75.56    4.62
   1  10 -12   80.36    4.67
  -1  10 -13    8.92    1.23
   1 -10  13    6.96    1.90
  -1 -10  13    7.49    1.64
  -1  10  13    7.07    1.65
  -1  10 -14    2.68    0.96
   1 -10  14    2.60    1.42
  -1  10  14    2.11    1.26
  -1 -10  14    1.20    1.04
  -1  10 -15  704.01   14.29
   1 -10  15  728.04   18.06
  -1  10  15  658.45   16.28
  -1 -10 -15  685.30   16.92
  -1 -10  15  676.03   16.62
  -1  10 -16   52.38    3.16
   1 -10  16   55.40    4.45
  -1  10  16   45.12    3.73
  -1 -10 -16   54.27    4.18
  -1 -10  16   54.87    4.11
  -1  10 -17   28.23    2.42
  -1  10  17   36.57    3.33
  -1 -10  17   33.18    3.25
  -1  10 -18    3.26    1.14
  -1 -10  18    6.41    2.24
  -1  10  18    1.81    1.24
  -1 -10  18    2.50    1.44
  -1 -10  19  308.55   11.63
   1 -10  19  290.82   10.62
  -1  10 -19  304.31    9.16
  -1  10  19  286.26    9.86
  -1 -10  19  291.17   10.14
   1 -10  20   30.13    3.36
  -1  10 -20   32.44    2.92
  -1 -10  20   34.44    4.07
  -1 -10  20   28.39    3.08
  -1  10  20   28.84    3.05
   1 -10  21   36.40    3.76
  -1 -10  21   34.20    4.00
  -1  10 -21   35.57    3.17
  -1  10  21   34.74    3.42
  -1 -10  21   31.69    3.27
   1 -10  22   11.60    2.50
  -1 -10  22   14.06    2.86
  -1  10  22   15.09    2.32
  -1 -10  23   26.04    3.73
   1 -10  23   29.29    3.55
  -1  10  23   33.81    3.28
  -1 -10  24    3.16    1.97
   1 -10  24    3.97    1.77
   1 -10  25  130.73    7.70
  -1 -10  25  139.42    8.44
  -1 -10  26   15.90    3.15
   1 -10  26   11.45    2.56
   1 -10  27   -2.09    1.91
  -1 -10  27   -1.13    1.87
   1 -10  28    1.45    1.78
  -1 -10  28    2.67    1.74
   1 -10  29   40.28    4.53
  -1 -10  29   37.51    4.84
   1 -10  30    7.88    2.41
  -1  11   0    2.49    1.43
   1 -11   0    1.83    1.54
   1  11   0    2.78    1.70
  -1  11   1  220.51    8.32
   1  11  -1  215.29    8.33
   1  11   1  217.15    8.41
  -1  11  -1  209.65    8.16
   1 -11   1  215.91    8.37
  -1  11   2 1107.15   23.34
   1  11  -2 1168.00   23.79
  -1  11  -2 1129.93   23.48
   1 -11   2 1219.36   24.23
   1  11   2 1143.50   23.90
   1 -11   3    1.38    0.77
  -1  11   3    0.39    1.27
   1  11   3    0.91    1.54
   1 -11   3    1.48    1.53
   1  11  -3    2.41    1.61
   1 -11   4    3.69    0.76
  -1  11  -4    3.64    1.35
   1  11  -4    5.80    1.54
  -1  11   4    8.51    2.05
   1 -11   4    4.74    1.27
   1  11   4   10.16    2.28
   1 -11   5 1023.74   17.05
  -1  11  -5 1000.93   21.62
  -1  11   5  969.47   21.30
   1  11  -5 1020.23   21.59
   1 -11   5 1069.75   22.39
   1  11  -6   14.17    2.21
  -1  11   6   13.39    2.26
  -1  11  -6   15.70    2.41
   1 -11   6   17.54    2.63
   1  11  -7  120.77    5.99
   1 -11   7  121.84    6.28
  -1  11   7  108.93    5.72
  -1  11   8  698.23   16.94
   1  11  -8  725.80   17.13
   1 -11   8  780.98   18.26
  -1  11   9  288.87    9.82
   1  11  -9  299.59    9.93
   1 -11   9  312.65   10.54
   1  11 -10   93.48    5.24
  -1  11  10   94.29    5.33
   1 -11  10   96.70    5.62
   1  11 -11   21.04    2.59
   1 -11  11   20.61    2.75
  -1  11  11   23.47    2.72
  -1  11  12  394.72   12.05
   1  11 -12  416.72   12.01
   1 -11  12  444.08   13.24
  -1  11 -13    1.18    0.64
   1 -11  13    0.96    1.32
  -1  11  13    2.99    1.34
  -1  11 -14    2.12    0.78
   1  11 -14    1.89    0.46
  -1  11  14    2.01    1.45
   1  11 -15   83.30    2.76
  -1  11 -15   78.20    3.68
  -1  11  15   77.21    4.99
   1  11 -16  100.80    3.38
  -1  11 -16   96.20    4.26
  -1  11  16   93.14    5.57
  -1  11 -17    5.55    1.23
  -1  11  17    5.48    1.73
  -1  11 -18  410.79   10.48
  -1  11  18  381.75   12.09
  -1  11 -19    0.53    0.90
  -1 -11  19    3.70    2.13
  -1  11  19    1.53    1.48
   1 -11  20   50.33    4.46
  -1 -11  20   47.92    4.67
  -1  11  20   44.09    3.91
   1 -11  21    0.52    1.41
  -1 -11  21    2.65    1.87
  -1  11  21    1.33    1.40
   1 -11  22  373.65   13.07
  -1 -11  22  367.55   13.87
  -1  11  22  351.08   11.68
   1 -11  23   66.48    5.54
  -1 -11  23   75.23    6.17
  -1  11  23   73.55    5.03
  -1 -11  24    0.04    1.53
   1 -11  24   -1.00    1.75
  -1 -11  25   72.80    6.27
   1 -11  25   63.13    5.48
  -1 -11  26  117.95    8.07
   1 -11  26  104.84    7.09
   1 -11  27   12.65    2.75
  -1 -11  27   15.45    3.26
   1 -11  28    8.65    2.65
  -1 -11  28   14.48    3.44
   1 -11  29  144.98    8.83
  -1  12   0    3.76    1.60
   1  12   0   -0.22    1.34
  -1  12  -1  155.94    7.17
   1  12  -1  158.03    7.30
   1  12   1  157.01    7.39
  -1  12   1  142.09    6.89
   1 -12   1  171.94    7.58
   1  12   2  316.53   10.79
  -1  12   2  297.11   10.32
   1  12  -2  320.64   10.69
  -1  12  -2  308.80   10.52
   1 -12   2  327.72   10.98
   1 -12   3    9.83    1.20
  -1  12  -3    9.45    2.01
  -1  12   3    9.63    2.08
   1  12  -3   10.64    2.05
   1 -12   3   13.63    2.36
   1  12   3    6.55    1.87
   1 -12   4  183.02    5.01
   1 -12   4  189.73    8.13
  -1  12   4  169.34    7.56
   1  12  -4  180.46    7.81
  -1  12  -4  166.01    7.52
   1  12   4  176.92    7.93
   1 -12   5  385.98    8.10
  -1  12  -5  374.86   11.96
   1  12  -5  392.75   12.04
   1 -12   5  401.37   12.43
  -1  12   5  374.96   11.84
   1  12   5  389.09   12.37
  -1  12  -6   57.97    4.47
   1  12  -6   57.31    4.36
   1 -12   6   66.00    4.71
  -1  12   6   53.70    4.26
   1  12  -7   68.26    4.77
   1 -12   7   78.28    5.19
  -1  12   7   83.47    5.24
   1 -12   8  421.12   13.08
  -1  12   8  373.30   11.87
   1  12  -8  404.38   12.23
   1 -12   9  354.49   11.97
  -1  12   9  344.75   11.23
   1  12  -9  358.05   11.36
  -1  12  10  101.09    5.86
   1  12 -10   99.47    5.65
  -1  12  11   89.75    5.44
   1  12 -11   81.72    5.09
  -1  12  12  106.82    5.96
   1  12 -12  100.24    5.70
  -1  12  13    4.05    1.63
  -1  12  14  106.99    6.09
  -1  12 -15   66.26    3.24
  -1  12  15   64.93    4.70
  -1  12 -16  159.57    5.43
   1  12 -16  163.04    3.75
  -1  12  16  148.57    7.37
  -1  12 -17    7.50    1.26
   1  12 -17    6.49    0.82
  -1  12  17    6.44    1.62
  -1  12  18   67.58    4.94
  -1 -12  19   36.13    4.29
  -1  12  19   27.66    3.23
  -1 -12  20   81.10    6.34
  -1  12  20   97.39    6.00
   1 -12  21   61.61    5.19
  -1 -12  21   63.27    5.59
  -1  12  21   69.63    5.06
   1 -12  22  202.95    9.62
  -1 -12  22  210.49   10.48
  -1  12  22  202.54    8.87
  -1 -12  23  146.48    8.92
   1 -12  23  157.45    8.51
  -1  12  23  174.06    8.09
   1 -12  24   13.08    2.83
  -1 -12  24   10.70    2.87
  -1 -12  25   24.87    3.93
   1 -12  25   24.36    3.75
   1 -12  26  137.46    8.30
  -1 -12  26  138.79    8.91
  -1 -12  27    1.87    2.11
   1 -12  27    4.48    2.15
   1 -12  28   20.37    3.55
   1 -12  29   83.41    6.82
  -1  13   0    0.62    1.57
   1  13   0    1.92    1.64
   1  13   1  305.98   11.03
   1  13  -1  324.60   11.19
  -1  13  -1  305.56   10.85
  -1  13   1  306.06   10.81
  -1  13  -2   23.24    2.99
  -1  13   2   23.48    2.98
   1  13   2   27.81    3.18
   1  13  -2   27.94    3.22
   1 -13   2   30.88    3.44
   1 -13   3   13.96    1.40
  -1  13  -3   13.55    2.36
   1  13  -3   14.92    2.52
  -1  13   3   11.85    2.40
   1  13   3   12.54    2.44
   1 -13   4  417.28    8.80
  -1  13   4  406.85   12.88
  -1  13  -4  407.16   12.81
   1  13  -4  415.53   12.94
   1  13   4  434.34   13.51
   1 -13   5 1003.18   16.90
  -1  13  -5  997.10   22.62
   1  13  -5  995.65   22.66
  -1  13   5  948.04   22.25
   1  13   5 1035.50   23.36
   1  13  -6  245.56    9.66
  -1  13   6  258.86    9.85
  -1  13  -6  252.36    9.83
   1  13   6  258.60   10.26
  -1  13   7    5.42    1.90
   1  13  -7    4.32    1.61
   1  13   7    2.00    1.66
   1  13  -8   -0.03    1.27
  -1  13   8   -1.20    1.52
   1  13   8    0.38    1.32
   1  13  -9  578.80   15.75
  -1  13   9  553.20   15.51
  -1  13  10   32.45    3.48
   1  13 -10   36.50    3.63
   1  13 -11    1.04    1.30
  -1  13  11    3.38    1.56
  -1  13  12  205.26    8.91
   1  13 -12  221.94    9.03
  -1  13  13    0.50    1.26
  -1  13  14   52.20    4.56
  -1  13  15  605.94   16.79
  -1  13  16   21.09    3.05
  -1  13  17   67.83    5.20
  -1  13  18   51.69    4.52
  -1  13  19  160.64    8.04
  -1 -13  20   41.55    4.57
  -1  13  20   47.31    4.40
  -1 -13  21   24.45    3.80
  -1  13  21   25.56    3.44
  -1 -13  22   36.26    4.67
   1 -13  22   31.36    4.04
  -1  13  22   37.37    3.95
   1 -13  23   26.43    3.90
  -1 -13  23   26.31    4.16
  -1  13  23   27.42    3.32
   1 -13  24   49.49    5.07
  -1 -13  24   48.71    5.22
  -1 -13  25  173.28   10.06
   1 -13  25  165.76    9.22
   1 -13  26    6.16    2.41
  -1 -13  26    7.99    2.51
   1 -13  27   -1.28    1.72
   1 -13  28   61.49    5.91
  -1  14   0   -0.56    1.50
   1  14   0    0.35    1.44
   1  14  -1  143.83    7.56
  -1  14  -1  145.17    7.48
   1  14   1  139.86    7.41
  -1  14   1  140.43    7.33
   1  14   2  116.88    6.76
  -1  14  -2  105.32    6.35
   1  14  -2  102.25    6.26
  -1  14   2  106.20    6.35
   1 -14   3   34.47    2.16
  -1  14   3   32.95    3.65
  -1  14  -3   27.73    3.33
   1  14  -3   39.42    4.01
   1  14   3   29.11    3.60
   1 -14   4  297.83    6.99
  -1  14   4  272.73   10.63
  -1  14  -4  290.47   10.94
   1  14  -4  287.42   10.90
   1  14   4  302.71   11.44
   1 -14   5   17.90    1.47
  -1  14   5   14.58    2.67
   1  14  -5   19.47    2.98
  -1  14  -5   17.09    2.71
   1  14   5   16.23    2.93
   1  14  -6   44.69    4.27
  -1  14   6   40.41    4.04
  -1  14  -6   44.50    4.25
   1  14   6   50.22    4.58
  -1  14   7    3.54    1.75
   1  14  -7   -1.54    1.46
   1  14   7    0.90    1.57
  -1  14   8  444.58   14.12
   1  14  -8  477.50   14.44
   1  14   8  456.65   14.73
   1  14  -9    6.88    1.97
  -1  14   9    6.32    1.71
   1  14   9    7.27    2.33
   1  14 -10    0.32    1.36
  -1  14  10    3.17    1.61
   1  14  10    2.31    1.73
   1  14 -11   32.59    3.64
  -1  14  11   29.62    3.53
   1  14  11   33.88    4.05
   1  14 -12  182.35    8.47
  -1  14  12  191.69    8.74
   1  14 -13   79.88    5.50
  -1  14  13   70.27    5.27
  -1  14  14   72.15    5.38
  -1  14  15   57.69    4.87
  -1  14  16   62.49    5.13
  -1  14  17    8.29    2.16
  -1  14  18  154.35    8.08
  -1  14  19   -0.23    1.47
  -1  14  20    8.67    2.12
  -1 -14  21   23.20    3.93
  -1  14  21   20.48    3.01
  -1 -14  22  127.38    8.47
   1 -14  22  130.42    7.98
  -1  14  22  138.98    7.71
   1 -14  23   12.99    2.88
  -1 -14  23   16.92    3.51
   1 -14  24   -1.58    1.86
  -1 -14  24    2.82    1.70
   1 -14  25   -0.64    1.77
  -1 -14  25    7.83    2.77
   1 -14  26   54.13    5.57
   1 -14  27   14.43    3.28
  -1  15   0    2.99    1.79
   1  15   0    2.58    2.10
  -1  15  -1  389.29   13.30
   1  15   1  398.53   13.68
  -1  15   1  381.55   13.27
   1  15  -1  388.78   13.32
   1 -15   2  245.12    6.72
   1  15   2  260.92   10.74
  -1  15   2  235.79   10.14
   1  15  -2  237.05   10.21
  -1  15  -2  238.97   10.17
   1 -15   3  333.15    7.80
   1  15  -3  321.91   12.07
  -1  15  -3  315.36   11.84
   1  15   3  329.65   12.32
  -1  15   3  308.83   11.79
   1 -15   4   10.45    1.21
  -1  15  -4   13.60    2.68
  -1  15   4   10.31    2.36
   1  15  -4   12.64    2.75
   1  15   4    9.91    2.46
   1 -15   5    1.79    0.66
   1  15  -5    2.78    1.69
  -1  15   5   -0.25    1.43
  -1  15  -5    1.85    1.50
   1  15   5    1.20    1.50
   1  15  -6    5.44    1.92
  -1  15  -6    6.23    2.08
  -1  15   6   10.51    2.52
   1  15   6    5.66    2.14
  -1  15   7  196.29    9.28
   1  15   7  212.53    9.84
   1  15  -7  203.98    9.33
  -1  15   8  462.06   14.94
   1  15   8  481.54   15.55
   1  15  -8  458.19   14.75
   1  15  -9  100.80    6.52
  -1  15   9  100.46    6.64
   1  15   9   91.08    6.52
   1  15 -10    8.04    2.01
  -1  15  10   13.98    2.50
   1  15  10    7.70    2.21
   1  15 -11   31.19    3.77
  -1  15  11   24.52    3.40
   1  15  11   36.42    4.30
   1  15 -12  277.01   10.96
  -1  15  12  248.76   10.75
   1  15  12  284.89   11.89
  -1  15  13   27.38    3.65
   1  15 -13   33.00    3.68
   1  15  13   30.54    3.84
  -1  15  14   48.07    4.60
   1  15  14   52.76    5.03
  -1  15  15    1.23    1.36
   1  15  15   -0.76    1.99
  -1  15  16   58.38    5.09
   1  15  16   67.89    5.93
  -1  15  17   12.83    2.59
   1  15  17   13.17    2.98
  -1  15  18  115.37    7.20
   1  15  18  116.57    7.79
  -1  15  19   32.85    3.87
   1  15  19   30.17    4.13
  -1  15  20   -0.74    1.56
   1  15  20    3.25    2.26
  -1 -15  21   94.74    7.35
  -1  15  21   97.13    6.71
   1  15  21   97.80    7.41
  -1 -15  22  142.97    9.11
  -1  15  22  136.26    7.94
   1  15  22  131.86    8.51
   1 -15  23  136.86    8.56
  -1 -15  23  139.90    9.13
   1  15  23  147.75    9.12
   1 -15  24    0.24    1.69
   1  15  24   -1.07    1.86
   1 -15  25    3.21    1.64
   1  15  25    3.25    2.36
   1 -15  26   31.28    4.35
   1  16   0    4.38    2.42
  -1  16   0   -1.81    1.85
  -1  16  -1   68.08    5.51
   1  16   1   73.55    5.80
   1  16  -1   63.59    5.43
  -1  16   1   64.95    5.50
   1 -16   2   10.64    1.39
  -1  16  -2    9.59    2.52
   1  16  -2   10.19    2.56
  -1  16   2   12.62    2.79
   1  16   2   10.95    2.40
   1 -16   3   26.94    2.00
  -1  16   3   23.44    3.36
  -1  16  -3   22.23    3.31
   1  16  -3   17.99    3.00
   1  16   3   19.24    3.14
   1 -16   4   52.26    2.57
   1  16  -4   56.74    5.14
  -1  16  -4   51.97    4.96
  -1  16   4   41.86    4.36
   1  16   4   51.38    5.02
  -1  16   5  142.18    8.08
   1  16  -5  163.51    8.65
  -1  16  -5  166.24    8.69
   1  16   5  160.01    8.77
  -1  16  -6   47.69    4.67
  -1  16   6   43.16    4.56
   1  16  -6   47.04    4.66
   1  16   6   42.43    4.61
  -1  16   7    2.49    1.74
   1  16  -7    5.53    2.36
   1  16   7    7.83    2.72
   1  16  -8   -0.06    1.47
  -1  16   8    1.20    1.44
   1  16   8    2.17    2.13
   1  16  -9  300.22   12.00
   1  16   9  326.18   12.99
  -1  16   9  305.20   12.30
   1  16 -10  119.65    7.28
   1  16  10  123.87    7.86
  -1  16  10  117.98    7.44
  -1  16  11    1.57    1.45
   1  16 -11    1.70    1.63
   1  16  11    3.91    2.05
  -1  16  12    4.46    2.05
   1  16 -12    5.72    2.15
   1  16  12    3.05    1.87
  -1  16  13   28.31    3.78
   1  16 -13   28.77    3.64
   1  16  13   32.32    4.31
  -1  16  14   28.98    3.85
   1  16  14   30.86    4.30
  -1  16  15  273.88   11.77
   1  16  15  300.41   12.92
  -1  16  16   61.99    5.54
   1  16  16   69.67    6.29
  -1  16  17    7.70    2.29
   1  16  17   15.74    3.24
  -1  16  18   36.24    4.25
   1  16  18   40.62    4.77
  -1  16  19  138.01    8.23
   1  16  19  144.35    9.08
  -1  16  20    5.55    2.05
   1  16  20    6.91    2.44
  -1  16  21   70.77    5.93
   1  16  21   70.68    6.59
  -1 -16  22    9.31    2.86
  -1  16  22    6.34    2.19
   1  16  22    2.87    1.76
   1 -16  23   10.95    3.00
   1  16  23   17.57    3.66
   1 -16  24    8.94    2.60
   1  16  24    4.80    2.37
  -1  17   0   -0.87    1.56
   1  17   0   -0.45    1.59
  -1  17   1    7.81    2.36
  -1  17  -1    9.41    2.61
   1  17  -1    9.25    2.78
   1  17   1   12.70    3.03
   1 -17   2   24.32    2.03
  -1  17  -2   19.49    3.19
   1  17   2   22.16    3.48
  -1  17   2   25.18    3.65
   1  17  -2   19.60    3.17
   1 -17   3   39.05    2.38
  -1  17  -3   39.71    4.47
   1  17  -3   37.70    4.47
  -1  17   3   43.59    4.74
   1  17   3   40.07    4.70
   1 -17   4  840.10   14.84
   1  17  -4  812.39   22.29
   1  17   4  808.40   22.54
  -1  17   4  805.48   22.12
  -1  17  -4  807.56   22.14
   1  17  -5   55.85    5.37
  -1  17   5   47.26    4.99
  -1  17  -5   56.45    5.42
   1  17   5   59.83    5.60
  -1  17  -6  253.83   11.28
   1  17   6  237.23   11.26
  -1  17   6  264.59   11.65
   1  17  -6  247.12   11.23
   1  17  -7   25.28    3.67
  -1  17   7   29.89    4.01
   1  17   7   38.93    4.70
   1  17   8  151.14    8.90
  -1  17   8  147.23    8.60
   1  17  -8  160.68    8.88
  -1  17   9   84.47    6.57
   1  17   9   89.31    6.90
   1  17  -9   76.95    6.15
   1  17 -10   19.85    3.33
  -1  17  10   15.33    3.21
   1  17  10   17.09    3.39
   1  17 -11    1.97    1.53
  -1  17  11    5.20    2.17
   1  17  11    3.82    1.90
   1  17 -12    8.45    2.32
  -1  17  12    8.89    2.30
   1  17  12    8.10    2.50
  -1  17  13    2.62    1.82
   1  17  13    5.21    2.23
   1  17  14  180.49   10.10
  -1  17  14  179.69    9.64
  -1  17  15   32.41    4.17
   1  17  15   36.92    4.77
  -1  17  16  164.03    9.28
   1  17  16  192.75   10.58
  -1  17  17    0.22    1.68
   1  17  17    3.14    2.09
  -1  17  18   60.57    5.67
   1  17  18   68.65    6.34
  -1  17  19    9.32    2.38
   1  17  19   16.86    3.55
  -1  17  20   33.57    4.45
   1  17  20   45.15    5.29
  -1  17  21    1.66    1.85
   1  17  21    7.10    2.61
   1  17  22   10.89    3.09
   1  17  23   -2.22    1.70
  -1  18   0    0.83    1.96
   1  18   0    1.15    1.90
   1 -18   1   66.58    3.43
  -1  18  -1   60.14    5.55
  -1  18   1   63.65    5.74
   1  18   1   67.70    6.02
   1  18  -1   50.24    5.20
   1 -18   2  246.74    6.82
   1  18  -2  239.32   11.55
  -1  18   2  241.74   11.46
  -1  18  -2  216.98   10.78
   1  18   2  239.87   11.38
   1 -18   3   22.25    1.84
  -1  18  -3   22.66    3.55
   1  18  -3   24.00    3.88
   1  18   3   16.30    3.08
  -1  18   3   22.88    3.77
   1  18  -4   26.60    3.85
  -1  18  -4   35.73    4.59
  -1  18   4   30.90    4.27
   1  18   4   26.95    3.99
   1  18   5  118.42    7.99
  -1  18  -5  118.23    7.82
  -1  18   5  113.16    7.66
   1  18  -5  106.62    7.55
   1  18  -6   48.72    5.28
  -1  18   6   52.47    5.27
  -1  18  -6   52.98    5.42
   1  18   6   57.75    5.73
   1  18  -7    4.09    2.16
  -1  18   7    2.94    1.98
   1  18   7   -0.63    1.71
  -1  18   8  180.99    9.91
   1  18  -8  206.67   10.41
   1  18   8  212.67   10.87
  -1  18   9  127.51    8.31
   1  18  -9  134.78    8.31
   1  18   9  137.48    8.81
   1  18 -10   25.80    3.80
  -1  18  10   20.85    3.48
   1  18  10   25.97    4.07
  -1  18  11   27.67    4.02
   1  18 -11   25.15    3.77
   1  18  11   30.53    4.27
   1  18 -12   17.04    3.26
  -1  18  12   24.01    3.89
   1  18  12   19.77    3.67
  -1  18  13   21.56    3.62
   1  18  13   28.17    4.32
  -1  18  14  101.37    7.50
   1  18  14   99.92    7.83
  -1  18  15  128.49    8.42
   1  18  15  126.94    8.85
  -1  18  16   54.17    5.47
   1  18  16   53.08    5.73
  -1  18  17   17.33    3.31
   1  18  17   13.91    3.07
   1  18  18   68.96    6.57
  -1  18  18   77.47    6.59
  -1  18  19   77.59    6.65
   1  18  19   78.43    7.03
  -1  18  20   28.11    4.31
   1  18  20   24.05    3.98
  -1  18  21   44.82    5.16
   1  18  21   47.72    5.67
   1  18  22   17.40    3.49
  -1  19   0   -1.36    1.81
   1  19   0    0.88    1.99
   1  19  -1  174.80   10.09
   1  19   1  177.25   10.06
  -1  19  -1  164.80    9.69
  -1  19   1  179.32   10.05
   1  19  -2  106.08    7.76
  -1  19   2   89.61    7.15
   1  19   2   85.92    6.98
  -1  19  -2   95.90    7.25
   1  19  -3   80.77    6.80
  -1  19   3   84.87    6.96
   1  19   3   86.41    7.15
  -1  19  -3   80.63    6.74
  -1  19   4    2.33    1.64
   1  19   4    1.26    2.23
   1  19  -4    3.90    2.15
  -1  19  -4    3.16    2.02
   1  19   5    3.76    1.99
  -1  19   5    4.51    2.03
   1  19  -5    1.56    1.73
  -1  19  -5    7.22    2.28
   1  19  -6   11.76    2.82
  -1  19   6   11.11    2.88
  -1  19  -6    8.37    2.58
   1  19   6   10.25    2.67
   1  19   7  199.69   10.77
   1  19  -7  199.55   10.53
  -1  19   7  185.42   10.29
   1  19  -8    6.39    2.40
  -1  19   8    8.67    2.81
   1  19   8   12.52    3.31
  -1  19   9  164.20    9.77
   1  19   9  163.39    9.97
   1  19  -9  168.40    9.68
   1  19 -10    7.81    2.30
  -1  19  10    5.23    2.42
   1  19  10    7.21    2.60
  -1  19  11   69.60    6.41
   1  19  11   78.91    6.92
   1  19 -11   69.90    6.34
  -1  19  12   18.18    3.37
   1  19 -12   16.43    3.19
   1  19  12   21.20    3.72
  -1  19  13   20.67    3.77
   1  19  13   17.19    3.60
  -1  19  14   19.85    3.57
   1  19  14   14.83    3.31
  -1  19  15   64.46    6.22
   1  19  15   67.21    6.56
  -1  19  16    2.54    2.08
   1  19  16    5.44    2.55
  -1  19  17    8.91    2.78
   1  19  17   10.70    3.25
  -1  19  18    9.69    2.92
   1  19  18   14.90    3.56
  -1  19  19   12.33    3.17
   1  19  19   13.32    3.25
  -1  19  20   21.19    3.95
   1  20   0   -0.49    2.13
  -1  20   0   -0.35    2.26
  -1  20  -1    7.03    2.50
   1  20  -1    6.59    2.46
  -1  20   1    2.02    2.11
   1  20   1    9.48    3.07
   1  20  -2   63.11    6.18
  -1  20  -2   68.67    6.43
  -1  20   2   65.83    6.24
   1  20   2   66.12    6.43
  -1  20   3    6.43    2.46
   1  20   3    1.42    1.75
   1  20  -3    1.77    1.87
  -1  20  -3   -0.53    1.77
   1  20   4  115.25    8.48
  -1  20   4  118.44    8.40
  -1  20  -4  113.53    8.23
   1  20  -4  124.73    8.52
   1  20   5   -2.02    2.33
   1  20  -5    1.63    1.86
  -1  20   5   -1.06    2.32
  -1  20  -5    0.96    1.92
   1  20  -6  256.37   12.49
  -1  20   6  259.14   12.66
   1  20   6  258.65   12.79
   1  20  -7   18.44    3.69
   1  20   7   16.49    3.61
  -1  20   7    9.67    2.72
   1  20   8  154.52    9.86
   1  20  -8  135.11    8.93
  -1  20   8  136.27    9.06
   1  20  -9   15.08    3.30
  -1  20   9   13.68    3.22
   1  20   9   16.13    3.80
  -1  20  10   39.48    5.01
   1  20 -10   35.77    4.86
   1  20  10   40.94    5.26
   1  20 -11    4.81    2.36
  -1  20  11    2.04    2.26
   1  20  11    3.86    2.15
  -1  20  12  191.32   10.99
   1  20  12  190.87   11.21
   1  20 -12  204.62   10.95
  -1  20  13   -0.44    1.99
   1  20  13    3.05    2.02
  -1  20  14   34.86    4.90
   1  20  14   38.93    5.17
  -1  20  15   31.31    4.77
   1  20  15   27.72    4.58
  -1  20  16  117.55    8.60
  -1  20  17   -0.34    1.73
  -1  20  18   77.26    7.08
  -1  20  19    5.20    2.43
  -1  21   0    0.25    2.05
   1  21   0    0.60    2.02
  -1  21  -1   30.46    4.78
  -1  21   1   31.01    4.66
   1  21   1   21.64    3.92
   1  21  -1   27.22    4.38
  -1  21   2    8.93    2.90
   1  21  -2    7.63    2.46
  -1  21  -2    5.62    2.63
   1  21   2    7.26    2.30
  -1  21   3   10.97    3.14
   1  21  -3   13.58    3.22
   1  21   3    9.84    3.22
  -1  21  -3   13.70    3.37
   1  21   4   39.73    5.30
  -1  21   4   42.14    5.34
   1  21  -4   48.18    5.52
  -1  21  -4   50.25    5.66
   1  21   5   50.13    5.73
  -1  21   5   48.27    5.64
   1  21  -5   51.33    5.87
  -1  21  -5   42.51    5.10
   1  21   6  159.26   10.19
  -1  21   6  158.10   10.06
   1  21  -6  151.70    9.89
   1  21   7   15.06    3.60
   1  21  -7    7.87    2.59
  -1  21   7    9.75    3.06
   1  21   8   10.17    2.85
   1  21  -8   10.14    2.86
  -1  21   8   12.80    3.22
   1  21  -9   63.36    6.48
   1  21   9   59.01    6.33
  -1  21   9   63.00    6.47
   1  21 -10   63.77    6.21
   1  21  10   63.34    6.49
  -1  21  10   67.21    6.61
   1  21 -11   76.85    7.05
  -1  21  11   89.03    7.55
  -1  21  12    8.76    3.03
  -1  21  13   21.92    3.81
  -1  21  14   59.31    6.36
   2   0   0   23.15    1.61
   2   0   0   24.18    1.25
  -2   0   0   25.47    1.30
   2   0   1    1.19    0.86
  -2   0  -1    0.23    0.76
  -2   0   1    0.81    0.61
   2   0   1    0.20    0.39
  -2   0  -1   -0.17    0.39
   2   0  -1   -0.10    0.45
   2   0   2 1156.39   18.83
  -2   0  -2 1124.91   18.81
   2   0  -2 1112.69   18.12
  -2   0   2 1154.93   18.20
   2   0   2 1128.20   16.49
  -2   0  -2 1134.93   16.51
  -2   0  -3    0.98    0.84
  -2   0   3    3.04    1.10
   2   0  -3    2.81    0.93
  -2   0  -4  374.86    8.36
  -2   0   4  383.06    8.26
   2   0  -4  374.76    8.14
  -2   0   5    0.94    1.12
   2   0  -5   -0.13    0.70
   2   0  -6  771.20   14.62
  -2   0   6  791.32   14.80
   2   0  -7   -1.73    0.83
  -2   0   7    1.14    1.13
   2   0  -8   -0.73    0.80
  -2   0   8    0.05    1.01
   2   0   8   -0.08    0.32
  -2   0   9    1.04    0.92
   2   0  -9   -0.83    0.90
   2   0   9   -0.86    0.51
   2   0 -10   60.68    3.50
  -2   0  10   60.25    3.60
   2   0  10   61.89    2.19
  -2   0  11    0.12    0.98
   2   0 -11   -0.61    0.99
   2   0  11    0.06    0.52
   2   0 -12  556.80   13.19
   2   0  12  548.04   10.31
  -2   0  12  556.63   13.28
  -2   0  13   -1.43    1.11
   2   0 -13   -2.43    1.41
   2   0  13   -0.59    0.71
   2   0 -14   46.38    3.49
   2   0  14   42.38    2.33
  -2   0  14   40.89    3.30
   2   0 -15    0.71    0.90
  -2   0  15   -0.59    1.24
   2   0  15   -0.34    0.70
   2   0 -16   43.81    3.83
   2   0  16   46.75    2.73
  -2   0  16   49.57    3.88
   2   0 -17   -0.73    1.20
  -2   0  17   -1.83    1.71
   2   0  17   -0.12    0.84
  -2   0  18    3.10    1.44
   2   0  18    1.28    0.74
   2   0  19    0.08    0.77
  -2   0  19   -1.69    1.59
  -2   0  20   33.08    3.48
   2   0  20   27.76    2.49
  -2   0  21   -1.64    1.74
   2   0  21   -2.47    1.20
   2   0  22   10.21    1.64
  -2   0  22   12.91    2.59
  -2   0  23   -0.62    1.89
   2   0  23    0.54    0.96
  -2   0  24   34.45    3.93
  -2   0  25   -0.02    1.51
  -2   0  26  241.23   10.95
  -2   0  27   -1.49    1.92
  -2   0  28   29.05    4.21
  -2   0  29    1.62    2.09
  -2   0  30    3.93    2.16
  -2   0  31   -0.79    1.96
   2   1   0  109.61    3.49
   2  -1   0  110.13    3.65
  -2  -1   0  106.87    3.49
  -2  -1   0  114.26    3.03
  -2   1   0  113.47    3.02
   2  -1   0  114.12    3.02
   2   1   1  373.09    7.78
   2  -1   1  382.87    7.95
  -2  -1  -1  367.57    7.72
   2   1  -1  367.66    7.59
  -2  -1  -1  368.31    6.58
  -2  -1   1  374.50    7.21
  -2   1   1  375.52    7.23
   2  -1   1  370.52    6.55
   2  -1  -1  366.43    7.17
  -2  -1  -2    1.21    0.41
  -2   1  -2    1.65    0.81
  -2  -1  -2    0.93    0.72
   2  -1   2    1.13    0.83
  -2  -1   2    1.28    0.71
   2  -1  -2    0.33    0.55
  -2   1   2    1.36    0.65
   2  -1   2    1.10    0.36
   2  -1   3    8.66    1.25
   2   1  -3    9.51    1.15
  -2  -1  -3    7.09    1.17
  -2   1  -3    8.00    1.17
   2  -1  -3    8.87    1.09
  -2  -1   3   10.35    1.28
  -2   1   3    7.18    1.10
  -2   1  -4  229.94    6.00
   2   1  -4  230.25    5.87
   2  -1  -4  228.08    5.85
  -2  -1   4  230.66    5.94
  -2   1   4  232.81    5.92
  -2   1  -5  285.86    7.08
  -2  -1   5  280.02    7.07
   2  -1  -5  279.84    6.95
   2   1  -5  278.88    6.96
  -2   1   5  285.55    7.09
   2  -1  -6  160.67    5.09
  -2  -1   6  157.02    5.15
   2   1  -6  158.82    5.06
   2  -1  -6  156.53    3.18
  -2   1   6  157.91    5.13
   2   1  -7  350.43    8.51
   2  -1  -7  349.19    8.54
  -2  -1  -7  329.61    5.69
   2  -1   7  339.66    5.73
  -2  -1   7  357.09    8.61
  -2   1   7  347.01    8.50
   2  -1   8  339.53    6.10
  -2  -1   8  347.26    8.85
   2   1  -8  350.49    8.81
   2  -1  -8  360.36    8.90
  -2  -1  -8  337.76    6.11
  -2   1   8  357.09    8.87
   2  -1   9  755.58   12.24
   2  -1  -9  755.75   15.46
   2   1  -9  790.45   15.56
  -2  -1   9  766.34   15.49
  -2  -1  -9  752.63   12.25
  -2   1   9  764.90   15.48
   2   1 -10  331.31    9.08
  -2  -1 -10  327.22    6.52
   2  -1 -10  333.85    9.11
  -2  -1  10  339.25    9.19
  -2   1  10  346.65    9.26
   2  -1  10  326.17    6.53
  -2  -1 -11  796.81   13.68
   2  -1 -11  831.35   16.99
   2   1 -11  832.40   16.97
  -2  -1  11  809.86   16.89
  -2   1  11  810.50   16.86
   2  -1  11  811.40   13.70
   2   1 -12    7.00    1.59
  -2   1  12   14.32    2.28
  -2  -1 -12    6.98    0.91
   2  -1 -12    6.56    1.41
  -2  -1  12    5.16    1.48
   2  -1  12    7.04    0.94
  -2  -1 -13 1523.95   24.76
   2  -1 -13 1582.30   28.49
   2   1 -13 1577.82   28.41
  -2  -1  13 1551.44   28.36
  -2   1  13 1572.67   28.40
   2  -1  13 1553.82   24.77
   2   1 -14  731.79   16.45
  -2  -1 -14  679.80   13.21
   2  -1 -14  718.83   16.32
   2  -1  14  717.74   13.32
  -2  -1  14  703.53   16.30
  -2   1  14  715.19   16.35
  -2  -1 -15   69.31    3.19
   2  -1 -15   71.98    4.51
   2   1 -15   69.03    4.45
   2  -1  15   73.50    3.27
  -2  -1  15   69.59    4.44
  -2   1  15   66.20    4.36
   2   1 -16   28.33    3.02
  -2  -1  16   26.17    2.87
   2  -1 -16   31.89    3.08
  -2  -1 -16   27.21    2.05
  -2   1  16   23.45    2.83
   2  -1  16   28.12    2.13
   2  -1 -17 1757.33   32.73
  -2  -1 -17 1711.93   28.90
   2   1 -17 1773.30   32.77
  -2  -1  17 1754.62   32.69
   2  -1  17 1754.22   28.99
  -2   1  17 1715.11   32.50
  -2  -1  18   12.23    2.36
   2  -1  18   12.85    1.75
  -2   1  18   15.57    2.59
  -2  -1  19   53.86    4.35
   2  -1  19   54.97    3.35
  -2   1  19   53.02    4.27
  -2   1  20   59.19    4.71
   2  -1  20   64.38    3.78
  -2  -1  20   63.84    4.78
   2  -1  21  377.86   10.31
  -2   1  21  366.78   12.46
  -2  -1  21  358.29   12.39
  -2  -1  22  104.64    6.57
  -2   1  22  100.90    6.46
   2  -1  22  105.19    5.17
  -2  -1  23  431.56   14.26
   2  -1  23  421.09   11.75
  -2   1  23  431.93   14.27
   2  -1  24  145.39    6.49
  -2  -1  24  137.89    7.91
  -2   1  24  152.37    8.27
   2  -1  25  175.54    7.34
  -2   1  25  160.87    8.71
  -2  -1  25  160.01    8.73
  -2  -1  26   -0.13    1.67
   2  -1  26    0.97    1.04
  -2   1  26    2.19    1.88
   2  -1  27  192.36    8.11
  -2  -1  27  183.04    9.73
  -2   1  27  205.11   10.32
  -2  -1  28   -0.01    1.95
  -2   1  28    0.49    1.76
  -2  -1  29   -0.91    2.21
  -2   1  29   -3.81    2.74
  -2  -1  30    3.59    2.32
  -2   1  30    9.08    2.74
  -2   1  31  131.70    8.87
  -2  -1  31  134.27    8.91
  -2  -2   0  502.10    9.53
   2   2   0  514.44    9.59
   2  -2   0  504.63    9.09
  -2  -2  -1 2305.42   35.10
   2  -2   1 2352.12   35.48
   2   2  -1 2369.32   34.83
   2   2   1 2342.06   35.13
   2  -2  -1 2322.90   34.70
  -2   2  -2  614.45   11.66
  -2  -2  -2  619.95   11.52
   2  -2   2  612.57   11.65
   2   2  -2  602.96   11.01
  -2  -2   2  636.82   11.37
   2  -2  -2  624.16   11.30
   2  -2   3 2877.80   43.14
  -2   2  -3 2891.08   43.10
  -2  -2   3 2911.59   42.95
   2  -2  -3 2819.21   42.84
  -2   2   3 2910.52   42.96
  -2   2  -4  532.16   10.84
  -2  -2   4  556.48   10.97
  -2   2   4  547.17   10.91
   2  -2  -4  556.69   10.89
  -2  -2   5   69.84    3.27
  -2   2  -5   62.93    3.02
   2  -2  -5   64.60    2.17
   2  -2  -5   69.25    3.16
  -2   2   5   70.94    3.26
   2  -2  -6    0.40    0.80
  -2  -2   6    2.06    1.16
  -2   2  -6    0.62    0.81
   2  -2  -6    1.41    0.49
  -2   2   6    0.63    1.05
  -2  -2   7  510.28   11.11
   2  -2  -7  501.37    8.34
  -2  -2  -7  479.40    8.40
   2  -2  -7  507.29   11.06
   2   2  -7  507.30    8.53
  -2   2   7  506.32   11.09
   2  -2   8   34.06    1.52
  -2  -2   8   34.66    2.56
   2  -2  -8   31.70    2.37
   2   2  -8   33.34    1.33
  -2   2   8   33.71    2.58
  -2  -2  -8   33.52    1.50
   2  -2  -9   62.19    3.44
   2  -2   9   62.44    2.25
  -2  -2   9   55.38    3.33
   2   2  -9   63.91    1.81
  -2   2   9   65.14    3.55
  -2  -2  -9   58.43    2.19
  -2  -2  10   55.97    3.44
   2  -2  10   56.06    2.23
   2  -2 -10   56.44    3.46
  -2   2  10   58.03    3.55
  -2  -2 -10   53.40    2.19
   2  -2  11    2.72    0.72
  -2  -2 -11    3.23    0.69
   2  -2 -11    4.49    1.22
  -2  -2  11    3.28    1.35
  -2   2  11    1.79    1.03
  -2  -2 -12   83.16    3.15
   2  -2  12   87.56    3.26
  -2  -2  12   83.50    4.53
   2  -2 -12   85.61    4.57
  -2   2  12   85.62    4.51
   2  -2  13    1.85    0.73
  -2  -2  13    2.76    1.27
   2  -2 -13    0.93    0.87
  -2  -2 -13   -0.42    0.62
  -2   2  13    0.36    1.27
   2  -2 -14   17.16    2.26
  -2  -2  14   14.03    2.13
  -2  -2 -14   16.08    1.47
   2  -2  14   17.73    1.57
  -2   2  14   13.00    1.96
   2  -2 -15  110.96    5.62
  -2  -2 -15  109.55    4.15
  -2  -2  15  111.61    5.68
  -2   2  15  109.47    5.60
   2  -2  15  106.72    4.10
  -2  -2  16   42.66    3.57
   2  -2 -16   50.42    3.88
  -2  -2 -16   43.04    2.67
   2  -2  16   43.57    2.67
  -2   2  16   45.17    3.74
  -2  -2  17  368.12   11.50
   2  -2 -17  390.08   11.84
  -2  -2 -17  367.05    9.24
   2  -2  17  367.02    9.28
  -2   2  17  365.68   11.53
  -2  -2 -18   33.52    2.57
  -2  -2  18   32.39    3.49
   2  -2  18   35.30    2.62
  -2   2  18   37.50    3.75
  -2  -2 -19  282.92    8.34
  -2   2  19  286.46   10.44
   2  -2  19  293.18    8.40
  -2  -2  19  292.43   10.54
  -2  -2  20   35.70    3.66
  -2  -2 -20   35.32    2.81
   2  -2  20   36.13    2.90
  -2   2  20   41.42    3.96
  -2  -2 -21  162.42    6.38
  -2  -2  21  152.66    7.77
  -2   2  21  156.99    7.88
   2  -2  21  157.79    6.28
  -2  -2 -22   56.95    3.79
  -2   2  22   54.48    4.81
   2  -2  22   59.28    3.89
  -2  -2  22   52.92    4.75
  -2  -2  23    7.31    2.27
   2  -2  23    5.05    1.44
  -2   2  23    0.97    1.44
  -2  -2  24    1.27    1.61
   2  -2  24    4.17    1.44
  -2   2  24    1.68    1.47
  -2  -2  25    4.62    1.89
  -2   2  25    1.98    1.53
   2  -2  25    3.47    1.20
   2  -2  26    3.53    1.30
  -2  -2  26    5.01    2.11
  -2   2  26    6.19    2.08
  -2  -2  27   19.98    3.47
  -2   2  27   17.26    3.21
   2  -2  27   21.56    2.79
  -2   2  28    1.05    1.93
  -2  -2  28   -0.95    1.75
   2  -2  28   -1.60    1.49
  -2  -2  29   32.78    4.41
  -2  -2  30    9.96    2.86
  -2  -2  31   35.23    4.56
  -2  -3   0 9863.01  138.71
   2   3   0 9999.00  138.72
  -2  -3  -1  254.26    5.95
   2   3  -1  254.88    5.69
   2  -3   1  255.72    6.36
  -2  -3   1  254.99    5.68
  -2  -3  -2 2207.38   33.61
   2   3  -2 2220.95   32.90
   2  -3   2 2216.37   33.94
   2  -3  -2 2204.20   33.75
   2  -3   3  344.23    7.72
  -2   3  -3  338.42    7.70
   2  -3  -3  330.75    7.12
   2  -3  -3  346.80    7.78
  -2   3  -4 1124.22   19.08
   2  -3   4 1133.34   19.11
   2  -3  -4 1103.16   18.04
   2  -3  -4 1126.24   19.29
  -2  -3   5   25.78    2.05
  -2   3  -5   30.29    2.06
   2  -3  -5   28.45    1.62
   2  -3  -5   26.07    1.98
  -2  -3   6  475.81   10.58
  -2   3  -6  466.44   10.18
   2  -3  -6  462.80    8.64
   2  -3  -6  482.33   10.53
  -2   3  -7    5.56    1.11
  -2  -3   7    4.42    1.28
   2  -3  -7    3.84    1.04
  -2   3   7    6.56    1.44
   2  -3  -7    4.92    0.74
   2   3  -7    6.47    0.85
  -2  -3   8 1928.18   31.63
  -2   3  -8 1876.15   30.84
   2   3  -8 1887.98   28.37
  -2   3   8 1913.03   31.61
   2  -3  -8 1902.85   31.59
  -2  -3   9   92.55    4.38
   2   3  -9   88.85    2.74
  -2   3   9   90.35    4.41
  -2  -3  -9   87.35    2.98
   2  -3  -9   90.21    4.26
   2  -3  10 1488.96   23.18
  -2  -3  10 1516.30   26.50
  -2   3  10 1413.15   21.93
   2   3 -10 1501.28   22.34
  -2   3  10 1527.75   26.53
   2  -3 -10 1501.12   26.47
  -2  -3 -10 1454.50   23.18
   2  -3 -11    0.50    0.87
  -2  -3  11    0.78    1.06
  -2  -3 -11    0.77    0.56
   2  -3  11    0.30    0.61
  -2   3  11    0.25    0.34
  -2   3  11    1.15    1.49
   2  -3 -12   10.02    1.63
  -2  -3  12    7.59    1.72
   2  -3  12   10.22    1.25
  -2  -3 -12    9.49    1.12
  -2   3  12   10.18    0.78
  -2   3  12    9.34    1.67
   2  -3  13   95.88    3.69
   2  -3 -13   98.49    5.05
  -2  -3  13   86.93    4.78
  -2   3  13   91.92    2.45
  -2   3  13   90.86    4.94
  -2  -3 -13   91.98    3.65
   2  -3  14 1208.68   20.68
   2  -3 -14 1267.77   24.16
  -2  -3 -14 1156.23   20.53
  -2  -3  14 1194.26   23.89
  -2   3  14 1184.11   17.86
  -2   3  14 1217.26   23.93
  -2  -3  15    0.86    1.18
   2  -3 -15    2.25    1.29
  -2  -3 -15    1.76    0.80
   2  -3  15   -0.44    0.69
  -2   3  15    0.99    0.35
  -2   3  15    4.02    1.70
   2  -3  16  257.45    7.23
   2  -3 -16  270.78    9.47
  -2  -3  16  257.86    9.25
  -2  -3 -16  249.61    7.20
  -2   3  16  249.53    4.70
  -2   3  16  240.77    8.98
   2  -3 -17  191.96    7.92
  -2  -3 -17  170.80    5.87
   2  -3  17  172.46    5.87
  -2  -3  17  173.94    7.56
  -2   3  17  161.39    3.37
  -2   3  17  167.85    7.46
  -2  -3 -18   33.45    2.59
  -2  -3  18   37.78    3.67
   2  -3  18   40.74    2.92
  -2   3  18   36.13    3.55
  -2  -3  19   28.07    3.26
  -2  -3 -19   28.88    2.52
   2  -3  19   32.21    2.66
  -2   3  19   28.06    3.23
  -2  -3 -20  346.50    9.75
  -2  -3  20  348.90   12.01
  -2   3  20  343.41   11.87
   2  -3  20  347.08    9.81
   2  -3  21   13.57    1.95
  -2  -3  21   15.22    2.67
  -2  -3 -21   10.25    1.66
  -2   3  21   11.30    2.45
  -2  -3 -22   77.75    4.48
  -2  -3  22   75.91    5.63
   2  -3  22   79.58    4.56
  -2   3  22   80.62    5.83
  -2  -3 -23    2.12    0.95
  -2  -3  23   -0.95    1.83
  -2   3  23   -0.40    1.63
   2  -3  23    1.35    1.25
  -2  -3 -24  229.45    8.49
  -2  -3  24  224.99   10.26
   2  -3  24  236.60    8.58
  -2   3  24  222.50   10.26
  -2  -3  25   26.64    3.69
   2  -3  25   30.76    3.14
  -2  -3  26  151.78    8.71
   2  -3  26  160.11    7.26
  -2  -3  27   -0.20    1.56
   2  -3  27    3.44    1.18
   2  -3  28   49.82    4.16
  -2  -3  28   48.38    5.05
  -2  -3  29   10.53    2.97
  -2  -3  30  225.79   11.63
  -2  -3  31    1.02    2.16
  -2  -4   0 1807.52   27.57
  -2  -4   1 2312.33   34.27
   2   4  -1 2322.49   34.27
  -2  -4  -1 2280.46   34.75
   2  -4  -1 2349.44   35.62
   2   4  -2  827.34   13.66
   2  -4   2  823.22   14.80
   2  -4  -2  823.93   14.73
   2  -4   3   72.61    3.14
   2   4  -3   74.08    2.55
   2  -4  -3   73.99    2.99
  -2   4  -4  136.19    4.42
   2  -4   4  129.40    4.37
   2  -4  -4  134.45    4.17
   2  -4  -4  131.39    4.62
  -2   4  -5  117.38    4.18
   2  -4  -5  124.12    3.87
   2  -4  -5  115.18    4.50
  -2   4  -6   55.33    2.87
   2  -4  -6   52.67    2.44
   2  -4  -6   54.37    3.02
  -2   4  -7   31.71    2.26
  -2   4   7   28.41    1.73
   2   4  -7   30.35    1.87
   2  -4  -7   32.00    1.80
   2  -4  -7   32.54    2.44
  -2  -4   8   14.99    1.90
  -2   4  -8   13.38    1.60
  -2   4   8   15.61    1.29
   2   4  -8   16.24    1.37
   2  -4  -8   15.30    1.76
   2  -4  -9    0.16    0.88
  -2   4  -9    0.25    0.85
  -2  -4   9   -0.03    1.09
  -2   4   9   -0.13    0.49
   2   4  -9    1.03    0.61
  -2  -4  10  523.13   12.63
  -2   4  10  498.42    9.61
   2   4 -10  535.72    9.94
  -2  -4 -10  523.13   10.36
   2  -4 -10  553.95   12.81
  -2  -4  11  104.49    5.06
   2   4 -11  102.48    3.33
  -2   4  11  101.19    3.20
   2  -4 -11  110.53    5.19
  -2  -4 -11  103.40    3.78
   2  -4  12   99.61    3.83
  -2  -4  12   93.11    4.90
  -2   4  12   97.99    3.11
   2  -4 -12  104.87    5.18
  -2  -4 -12   95.73    3.76
   2  -4  13  195.94    5.77
  -2  -4  13  195.25    7.40
  -2   4  13  186.01    4.65
   2  -4 -13  207.27    7.60
  -2  -4 -13  186.10    5.68
   2  -4 -14  114.30    5.73
   2  -4  14  105.02    4.18
  -2  -4  14  105.34    5.48
  -2   4  14  101.05    3.17
  -2  -4 -14  103.06    4.17
   2  -4 -15    0.80    1.02
  -2  -4  15    0.14    1.34
  -2  -4 -15    0.58    0.62
   2  -4  15    0.97    0.81
  -2   4  15    1.26    0.55
  -2  -4 -16   -0.41    0.76
   2  -4  16    0.91    0.85
   2  -4 -16   -0.90    1.16
  -2  -4  16    0.04    1.51
  -2   4  16    0.84    0.49
  -2  -4 -17    5.86    1.20
   2  -4  17    5.27    1.14
  -2  -4  17    6.10    1.75
  -2   4  17    6.27    0.79
   2  -4  18    4.09    1.11
  -2  -4  18    4.12    1.37
  -2  -4 -18    5.24    1.19
  -2   4  18    4.21    0.64
  -2  -4 -19   36.18    2.87
  -2  -4  19   32.03    3.56
   2  -4  19   38.87    2.99
  -2   4  19   37.65    1.72
   2  -4  20   65.67    3.97
  -2  -4 -20   60.94    3.83
  -2  -4  20   69.59    5.15
  -2   4  20   69.12    2.29
  -2  -4  21  132.48    7.34
  -2  -4 -21  131.48    5.82
  -2   4  21  132.30    3.25
   2  -4  21  140.94    6.07
  -2  -4  22    1.23    1.53
  -2  -4 -22    1.80    1.15
   2  -4  22    2.12    1.15
  -2   4  22    0.93    0.31
  -2  -4 -23    0.48    1.00
  -2  -4  23   -0.86    1.59
   2  -4  23   -0.72    1.05
  -2  -4 -24   25.16    2.69
  -2  -4  24   27.37    3.60
   2  -4  24   26.85    2.95
  -2  -4  25    2.99    1.85
   2  -4  25    4.13    1.48
  -2  -4  26   51.29    5.12
   2  -4  26   49.91    4.11
  -2  -4  27   10.72    2.71
   2  -4  27    8.65    1.82
  -2  -4  28   23.46    3.61
   2  -4  28   27.91    3.53
  -2  -4  29   15.42    3.20
  -2  -4  30   -1.74    1.92
  -2  -5   0    9.09    1.03
   2  -5   0   10.40    1.40
  -2  -5   1  435.35    8.23
  -2  -5  -1  436.33    8.69
   2  -5   1  441.89   10.01
   2  -5  -1  436.92    9.73
   2  -5   2  210.18    5.78
   2  -5   2  214.45    6.37
   2  -5  -2  209.46    6.01
   2  -5   3 1318.03   22.01
   2   5  -3 1319.22   20.34
   2  -5  -3 1349.37   22.36
   2  -5   4  869.93   15.80
   2   5  -4  881.35   14.14
   2  -5  -4  874.72   15.85
   2  -5   5  223.93    6.12
  -2   5  -5  216.11    6.11
   2  -5  -5  228.81    6.07
  -2   5   5  218.03    5.94
   2  -5  -5  224.71    6.75
  -2   5  -6  187.56    5.62
  -2   5   6  182.45    5.26
   2  -5  -6  179.69    5.29
   2  -5  -6  186.20    6.24
   2   5  -6  186.82    5.49
  -2   5  -7  363.01    8.65
  -2   5   7  342.86    7.89
   2   5  -7  361.50    8.24
   2  -5  -7  365.94    9.50
   2  -5  -7  349.24    8.04
  -2   5  -8  223.83    6.55
   2   5  -8  229.53    6.08
  -2   5   8  217.71    5.77
   2  -5  -8  230.68    7.36
  -2   5  -9  668.76   13.74
  -2   5   9  640.08   12.37
   2   5  -9  693.53   12.89
   2  -5  -9  691.51   15.01
  -2  -5  10  957.47   19.34
  -2   5 -10  928.56   17.94
  -2   5  10  904.38   16.26
   2   5 -10  973.72   16.66
   2  -5 -10  970.37   19.34
  -2  -5  11  125.27    5.65
  -2   5 -11  125.87    5.08
  -2   5  11  121.72    4.02
   2   5 -11  127.47    4.14
   2  -5 -11  121.92    5.58
  -2  -5 -11  118.78    4.36
  -2  -5  12    2.84    1.24
   2  -5 -12    1.02    1.02
  -2   5  12    2.39    0.77
  -2  -5 -12    2.11    0.78
  -2  -5  13  514.22   13.34
  -2   5  13  480.58    9.97
  -2  -5 -13  506.19   11.16
   2  -5 -13  551.86   13.75
   2  -5  14  262.65    7.39
  -2  -5  14  277.79    9.34
  -2   5  14  246.72    6.28
  -2  -5 -14  251.80    7.29
   2  -5 -14  271.43    9.24
  -2  -5  15   88.42    5.20
   2  -5  15   92.04    4.21
  -2   5  15   83.82    3.27
   2  -5 -15   97.41    5.38
  -2  -5 -15   89.89    4.14
  -2  -5  16  466.73   13.29
   2  -5 -16  472.11   13.32
   2  -5  16  457.44   10.99
  -2   5  16  425.13    9.09
  -2  -5 -16  445.00   10.89
  -2  -5  17  769.54   18.54
   2  -5  17  765.51   15.84
  -2   5  17  721.20   13.38
  -2  -5 -17  755.66   15.82
  -2  -5 -18  130.98    5.53
  -2  -5  18  138.67    7.15
   2  -5  18  143.13    5.75
  -2   5  18  127.10    4.06
  -2  -5 -19   67.37    3.99
   2  -5  19   65.82    3.99
  -2  -5  19   59.54    4.89
  -2   5  19   63.62    2.72
  -2  -5 -20  169.65    6.76
   2  -5  20  172.34    6.80
  -2  -5  20  181.81    8.48
  -2   5  20  172.67    4.73
  -2  -5  21    2.58    1.50
   2  -5  21    4.33    1.33
  -2  -5 -21    4.03    1.32
  -2   5  21    4.04    0.76
   2  -5  22    1.17    1.18
  -2  -5  22    2.77    1.47
  -2  -5 -22    3.82    1.31
  -2   5  22    3.98    0.73
  -2  -5 -23  363.19   11.12
  -2  -5  23  366.50   13.31
   2  -5  23  364.98   11.14
  -2  -5  24  256.11   11.18
   2  -5  24  263.19    9.39
  -2  -5  25  124.29    7.79
   2  -5  25  128.69    6.53
   2  -5  26   20.88    2.77
  -2  -5  26   19.39    3.44
   2  -5  27  127.52    6.73
  -2  -5  27  127.68    8.28
   2  -5  28  121.11    6.71
  -2  -5  28  122.64    8.21
  -2  -5  29    3.94    2.13
  -2  -5  30  109.28    8.01
  -2  -6   0  792.07   13.62
   2  -6   0  823.36   15.89
  -2  -6   1  167.61    4.22
   2  -6  -1  178.10    5.80
   2  -6   1  167.46    5.82
   2  -6   2   48.17    2.60
   2  -6  -2   53.11    2.96
   2  -6   2   48.02    3.01
   2  -6   3   31.09    2.11
   2  -6   3   34.60    2.62
  -2   6   3   32.18    2.36
   2  -6  -3   33.95    2.32
   2   6  -4   19.82    1.14
   2  -6   4   15.65    1.56
  -2   6   4   18.15    1.85
   2  -6   4   21.13    2.11
   2  -6  -4   20.36    1.76
   2  -6   5  241.43    6.41
   2   6  -5  238.48    4.90
   2  -6  -5  229.40    6.61
   2  -6   5  237.62    7.44
  -2   6   5  229.13    6.55
  -2   6  -6  616.71   12.34
  -2   6   6  584.68   12.27
   2  -6   6  629.41   13.82
   2  -6  -6  600.44   12.46
   2   6  -6  626.80   12.77
  -2   6  -7  529.62   11.22
   2   6  -7  534.50   11.42
  -2   6   7  511.24   11.06
   2  -6  -7  535.67   12.59
  -2   6  -8   41.62    2.65
   2   6  -8   42.15    2.61
  -2   6   8   40.50    2.50
   2  -6  -8   44.26    3.18
  -2   6  -9   55.89    3.10
   2   6  -9   58.61    3.03
  -2   6   9   56.31    2.94
   2  -6  -9   54.61    3.63
  -2   6 -10  120.79    4.76
   2   6 -10  119.85    4.50
  -2   6  10  106.61    4.14
   2  -6 -10  120.03    5.54
  -2  -6  11   42.88    3.42
  -2   6 -11   39.11    2.78
  -2   6  11   35.76    2.31
   2   6 -11   42.76    2.56
   2  -6 -11   44.70    3.45
  -2  -6  12    5.67    1.50
  -2   6 -12    5.68    1.27
  -2   6  12    5.44    1.08
   2   6 -12    4.72    1.00
   2  -6 -12    6.01    1.58
  -2  -6 -12    5.86    1.18
  -2  -6  13   52.78    3.99
  -2   6 -13   56.57    3.56
  -2   6  13   53.68    2.88
  -2  -6 -13   52.62    3.11
   2  -6 -13   60.81    4.14
  -2  -6  14   28.93    3.08
  -2   6  14   31.87    2.23
  -2  -6 -14   39.11    2.73
   2  -6 -14   37.06    3.30
  -2  -6  15  270.72    9.66
   2  -6  15  271.97    8.00
  -2   6  15  242.68    6.80
   2  -6 -15  273.89    9.68
  -2  -6 -15  263.68    7.90
   2  -6  16  245.41    7.73
  -2  -6  16  256.76    9.52
  -2   6  16  231.61    6.52
  -2  -6 -16  239.07    7.64
   2  -6  17  164.06    6.28
  -2  -6  17  180.30    7.99
  -2   6  17  159.95    5.09
  -2  -6 -17  174.37    6.50
   2  -6  18   95.01    4.81
  -2  -6  18   88.43    5.74
  -2   6  18   90.53    3.67
  -2  -6 -18   94.37    4.80
  -2  -6  19  125.18    7.00
   2  -6  19  126.33    5.72
  -2  -6 -19  130.35    5.84
  -2   6  19  127.46    4.43
   2  -6  20   15.46    2.12
  -2  -6 -20   13.15    1.84
  -2  -6  20   14.13    2.58
  -2   6  20   14.57    1.49
   2  -6  21   11.75    1.95
  -2  -6  21   14.01    2.62
  -2  -6 -21   12.98    1.99
  -2   6  21   12.24    1.31
   2  -6  22   10.31    1.97
  -2  -6  22   12.15    2.74
  -2  -6 -22    9.17    1.80
  -2   6  22    9.43    1.14
  -2  -6  23   70.15    5.73
   2  -6  23   71.96    4.74
  -2  -6 -23   66.10    4.52
   2  -6  24    6.94    1.96
  -2  -6  24    5.11    2.08
  -2  -6  25   34.51    4.29
   2  -6  25   39.50    3.70
  -2  -6  26   14.34    2.91
   2  -6  26   12.04    2.32
  -2  -6  27   37.03    4.62
   2  -6  27   40.28    3.87
  -2  -6  28    4.38    2.23
   2  -6  28    7.64    2.07
  -2  -6  29   36.86    4.78
  -2  -6  30   -2.54    2.36
  -2  -7   0  825.07   14.17
   2  -7   0  876.97   17.14
  -2  -7   1 2144.22   31.97
   2  -7  -1 2127.08   35.65
   2  -7   1 2214.17   35.80
   2  -7   2   65.09    3.11
  -2  -7   2   61.22    2.16
  -2   7   2   61.47    3.55
   2  -7  -2   69.66    3.71
   2  -7   2   69.97    3.87
   2  -7   3 1840.19   29.63
   2  -7  -3 1865.13   31.02
  -2   7   3 1802.17   30.83
   2  -7   3 1926.61   31.90
   2  -7   4    6.92    1.23
  -2   7   4    4.51    1.11
   2  -7   4    9.45    1.59
   2  -7  -4    5.16    1.19
   2  -7   5   11.47    1.44
   2  -7   5   12.40    1.80
  -2   7   5    9.83    1.66
   2  -7  -5   13.58    1.68
   2   7  -5   12.89    1.75
   2   7  -6  121.41    2.96
   2   7  -6  121.26    4.93
   2  -7   6  122.87    5.48
  -2   7   6  124.69    4.85
   2  -7  -6  130.16    5.05
   2   7  -7 2637.54   37.72
  -2   7  -7 2594.11   40.57
   2  -7   7 2711.22   43.32
  -2   7   7 2491.83   41.04
   2   7  -7 2668.00   41.66
  -2   7  -8  101.46    4.15
   2   7  -8  101.95    4.39
   2  -7   8  104.41    5.14
  -2   7   8   96.97    4.23
   2  -7  -8  102.50    5.03
  -2   7  -9  276.85    7.56
   2   7  -9  268.39    7.65
  -2   7   9  262.66    7.49
   2  -7   9  282.29    8.99
   2  -7  -9  281.10    8.94
  -2   7 -10   74.96    3.70
  -2   7  10   72.06    3.65
   2   7 -10   75.60    3.76
   2  -7  10   78.27    4.49
   2  -7 -10   74.61    4.49
  -2   7 -11  734.48   15.05
  -2   7  11  678.14   14.46
   2  -7  11  758.83   16.91
   2   7 -11  740.26   14.81
   2  -7 -11  744.41   17.07
  -2   7 -12   10.42    1.56
   2   7 -12   11.53    1.51
  -2   7  12   12.21    1.57
   2  -7  12   13.96    2.12
   2  -7 -12   10.57    1.91
  -2  -7  13  646.84   16.22
  -2   7 -13  664.68   14.55
   2   7 -13  660.79   13.57
  -2   7  13  609.94   13.46
   2  -7  13  673.69   16.06
  -2  -7 -13  648.84   14.18
   2  -7 -13  697.09   16.56
  -2  -7  14   71.67    4.80
  -2   7 -14   65.69    3.89
  -2   7  14   58.75    3.32
   2  -7  14   65.56    4.39
  -2  -7 -14   64.70    3.75
   2  -7 -14   66.77    4.55
  -2  -7  15   38.49    3.65
  -2   7 -15   39.55    3.10
  -2   7  15   39.87    2.72
   2  -7  15   44.72    3.68
  -2  -7 -15   41.30    3.04
  -2  -7  16    4.05    1.52
  -2   7 -16    7.87    1.61
  -2   7  16    5.77    1.17
   2  -7  16    4.37    1.43
  -2  -7 -16    5.70    1.36
   2  -7  17   86.14    4.62
  -2  -7  17   83.51    5.59
  -2   7  17   82.35    3.83
   2  -7  17  102.85    5.75
  -2  -7 -17   88.59    4.67
   2  -7  18    7.62    1.60
  -2  -7 -18    9.11    1.57
  -2  -7  18    6.26    2.03
  -2   7  18    6.46    1.14
   2  -7  18    8.20    1.99
   2  -7  19  230.58    8.19
  -2  -7  19  241.92    9.98
  -2   7  19  224.42    6.73
  -2  -7 -19  229.89    8.18
   2  -7  20    2.12    1.27
  -2  -7  20    2.52    1.85
  -2  -7 -20    1.86    1.16
  -2   7  20    1.22    0.62
  -2  -7 -21  109.09    5.65
   2  -7  21  116.81    5.89
  -2  -7  21  109.31    6.89
  -2   7  21  105.70    4.34
  -2  -7 -22    7.06    1.51
  -2  -7  22    4.69    1.84
   2  -7  22    3.41    1.50
  -2   7  22    6.93    1.21
   2  -7  23  144.27    6.95
  -2  -7  23  148.72    8.50
  -2  -7  24   18.97    3.24
   2  -7  24   15.71    2.41
   2  -7  25   20.31    2.82
  -2  -7  25   18.44    3.30
   2  -7  26    4.36    1.67
  -2  -7  26    4.05    2.00
  -2  -7  27  178.90    9.96
   2  -7  27  173.06    8.20
  -2  -7  28    0.86    2.30
   2  -7  28   -1.35    1.29
  -2  -7  29   19.78    3.71
  -2  -8   0  242.02    5.66
   2  -8   0  258.19    8.03
  -2  -8   1   20.91    1.33
   2  -8  -1   25.01    2.35
   2  -8   1   25.60    2.51
  -2   8   1   21.20    2.25
   2  -8   2  279.30    7.31
  -2  -8   2  282.72    5.65
   2  -8   2  300.34    8.92
   2  -8  -2  295.30    8.61
  -2   8   2  275.47    8.32
   2  -8   3   38.14    2.45
  -2   8   3   35.26    2.71
   2  -8  -3   38.99    2.95
   2  -8   3   38.25    3.08
   2  -8   4    0.01    0.73
  -2   8   4    0.09    0.90
   2  -8   4    1.86    1.10
   2  -8  -4    2.94    1.18
   2   8  -4    1.24    1.12
   2  -8   5   92.73    3.85
  -2   8   5   86.92    4.33
   2  -8   5  102.37    5.08
   2   8  -5   99.47    4.71
   2  -8  -5  101.38    4.69
   2  -8   6    0.64    0.82
   2  -8   6    1.42    1.11
  -2   8   6    2.45    1.17
   2   8  -6    2.10    1.12
   2  -8  -6    2.75    1.28
   2   8  -7  218.46    4.12
   2   8  -7  232.21    7.39
   2  -8   7  236.90    8.20
  -2   8   7  205.99    6.94
   2   8  -8   -0.01    0.29
   2  -8   8    0.08    0.99
   2   8  -8    0.28    0.93
  -2   8   8    0.21    0.90
  -2   8  -9    5.22    1.11
   2   8  -9    7.44    1.44
   2  -8   9    8.69    1.74
  -2   8   9    8.06    1.46
   2  -8  -9    6.62    1.26
  -2   8 -10  307.80    8.21
  -2   8  10  285.58    8.47
   2   8 -10  310.73    8.74
   2  -8  10  303.56    9.83
   2  -8 -10  311.90    9.97
  -2   8 -11   27.50    2.32
   2  -8  11   28.22    2.93
  -2   8  11   21.91    2.16
   2   8 -11   28.12    2.50
   2  -8 -11   30.74    3.09
  -2   8 -12    1.18    0.80
   2  -8  12   -1.14    1.13
   2   8 -12    0.76    0.79
  -2   8  12    1.66    0.84
   2  -8 -12    0.91    0.98
  -2   8 -13  122.42    5.18
  -2   8  13  106.96    4.88
   2   8 -13  126.73    5.17
   2  -8  13  125.62    6.32
   2  -8 -13  122.90    6.37
  -2  -8  14  293.79   10.28
  -2   8 -14  270.04    8.46
  -2   8  14  261.79    8.11
   2  -8  14  298.41   10.14
  -2  -8 -14  275.90    8.61
  -2   8 -15   11.41    1.81
  -2  -8  15    9.04    2.16
   2  -8  15   10.80    2.08
  -2   8  15   10.16    1.56
  -2  -8 -15    9.71    1.78
  -2  -8  16  259.18   10.06
  -2   8 -16  260.17    8.50
  -2   8  16  232.16    7.50
   2  -8  16  259.50    9.63
  -2  -8 -16  248.83    8.40
  -2  -8  17   53.59    4.53
  -2   8 -17   60.38    4.04
  -2   8  17   55.76    3.44
  -2  -8 -17   62.10    4.05
   2  -8  18  163.35    6.85
  -2  -8  18  167.34    8.22
  -2   8 -18  169.67    7.05
  -2   8  18  159.73    5.96
  -2  -8 -18  159.22    6.83
   2  -8  19    6.16    1.65
  -2  -8  19    4.55    1.85
  -2  -8 -19    7.04    1.62
  -2   8 -19    7.94    1.70
  -2   8  19    7.34    1.40
  -2  -8  20  138.57    7.80
   2  -8  20  127.17    6.27
  -2   8 -20  142.37    6.72
  -2   8  20  121.09    5.14
  -2  -8 -20  126.22    6.22
  -2  -8  21   34.85    4.12
   2  -8  21   36.28    3.40
  -2   8  21   38.82    2.78
  -2  -8 -21   43.56    3.69
  -2  -8  22   31.91    3.91
   2  -8  22   28.84    3.14
  -2   8  22   26.74    2.33
   2  -8  23   21.84    2.93
  -2  -8  23   21.84    3.40
  -2  -8  24   49.49    5.15
   2  -8  24   50.03    4.27
  -2  -8  25   60.44    5.71
   2  -8  25   61.19    4.77
   2  -8  26   24.82    3.23
  -2  -8  26   22.34    3.73
   2  -8  27    2.19    1.56
  -2  -8  27    4.74    2.24
  -2  -8  28   -1.10    1.59
  -2  -8  29    3.11    2.12
  -2   9   0  631.80   14.88
   2  -9   0  678.13   15.30
  -2  -9   1   85.06    2.80
   2  -9  -1   89.84    4.81
  -2   9   1   88.89    4.66
   2  -9   1   86.02    4.72
  -2  -9   2  166.05    3.86
   2  -9   2  183.32    7.04
  -2   9   2  162.85    6.47
   2  -9  -2  172.06    6.72
   2  -9   3   57.43    3.01
   2  -9   3   63.22    4.13
   2  -9  -3   60.61    3.85
  -2   9   3   58.14    3.74
   2   9  -3   58.83    3.91
   2  -9   4  535.00   11.43
   2  -9   4  567.06   14.16
  -2   9   4  515.76   12.92
   2  -9  -4  564.75   13.50
   2   9  -4  551.89   13.51
   2  -9   5   89.75    3.82
   2  -9   5  103.76    5.40
   2   9  -5   87.08    4.72
  -2   9   5   92.76    4.73
   2  -9  -5   99.02    4.92
   2  -9   6  720.39   14.12
  -2   9   6  675.53   15.54
   2  -9   6  773.59   17.30
   2   9  -6  733.73   16.16
   2   9  -7  574.36   13.65
  -2   9   7  527.67   13.15
   2  -9   7  599.03   14.82
   2  -9   8  204.97    8.06
   2   9  -8  207.97    7.27
  -2   9   8  192.32    6.98
   2  -9   9    0.47    0.99
  -2   9   9    2.16    1.04
   2   9  -9    2.28    1.34
  -2   9 -10  665.31   13.81
  -2   9  10  615.84   14.70
   2   9 -10  684.32   15.23
   2  -9  10  703.25   16.82
   2  -9 -10  699.43   16.73
  -2   9 -11  261.68    7.61
  -2   9  11  242.57    8.15
   2  -9  11  285.75    9.84
   2   9 -11  271.17    8.49
   2  -9 -11  285.35    9.85
  -2   9 -12   94.78    4.35
  -2   9  12   88.00    4.64
   2   9 -12   95.81    4.74
   2  -9  12   94.58    5.56
   2  -9 -12   93.13    5.55
  -2   9 -13  208.14    6.94
  -2   9  13  201.76    7.26
   2   9 -13  215.81    7.37
   2  -9  13  219.52    8.79
  -2   9 -14  660.09   14.58
  -2   9  14  613.51   14.69
   2   9 -14  665.19   14.79
   2  -9  14  691.11   17.32
  -2   9 -15    0.18    0.78
  -2  -9  15    1.85    1.62
  -2   9  15    0.65    1.03
  -2  -9 -15    1.55    1.09
  -2  -9  16  500.20   14.92
  -2   9 -16  501.18   12.57
  -2   9  16  452.80   12.02
  -2  -9 -16  496.33   13.07
  -2  -9  17  217.46    9.54
  -2   9 -17  224.13    7.96
  -2   9  17  211.18    7.47
  -2  -9 -17  220.37    8.24
  -2  -9  18  236.88   10.10
  -2   9 -18  241.98    8.52
  -2   9  18  225.24    7.73
  -2  -9 -18  236.63    8.69
  -2  -9  19   20.89    3.29
   2  -9  19   24.36    2.91
  -2   9 -19   23.39    2.66
  -2   9  19   20.37    2.22
  -2  -9 -19   17.59    2.44
   2  -9  20  255.86    9.43
  -2  -9  20  266.43   11.22
  -2   9 -20  258.52    9.26
  -2   9  20  255.93    8.25
  -2  -9 -20  244.69    9.20
  -2  -9  21   82.89    6.18
   2  -9  21   80.92    5.23
  -2   9  21   82.00    4.38
  -2   9 -21   85.29    5.25
   2  -9  22   43.49    3.90
  -2  -9  22   40.44    4.57
  -2   9  22   48.20    3.33
  -2  -9  23   -1.36    1.74
   2  -9  23   -0.84    1.27
  -2  -9  24  286.55   12.46
   2  -9  24  276.74   10.52
  -2  -9  25   -1.61    1.85
   2  -9  25    0.66    1.19
   2  -9  26   56.91    4.85
  -2  -9  26   44.51    5.07
   2  -9  27    9.66    2.26
  -2  -9  27   12.53    3.12
  -2  -9  28  118.60    8.42
  -2  10   0    4.03    1.60
   2 -10   0    3.69    1.41
  -2 -10   1   10.50    0.95
  -2  10  -1    8.52    1.67
  -2  10   1   11.56    1.95
   2 -10  -1   10.82    2.03
   2 -10   1   10.37    1.90
  -2 -10   2    0.87    0.38
  -2  10   2    3.57    1.54
   2 -10   2    1.31    1.18
   2 -10  -2    3.66    1.47
   2  10  -2    1.51    1.17
   2 -10   3  321.41    8.19
   2 -10  -3  339.85   10.28
  -2  10   3  312.67    9.86
   2 -10   3  335.94   10.54
   2  10  -3  335.41   10.37
   2 -10   4   39.16    2.52
   2 -10   4   43.29    3.62
  -2  10   4   45.71    3.49
   2  10  -4   44.82    3.51
   2 -10  -4   42.79    3.47
   2 -10   5   11.68    1.45
  -2  10   5   12.53    2.07
   2 -10   5   13.74    2.29
   2  10  -5   12.12    2.09
   2 -10  -5    9.63    1.70
   2 -10   6   77.91    3.57
   2 -10   6   79.21    4.94
   2  10  -6   65.31    4.27
  -2  10   6   70.75    4.34
   2  10  -7  260.37    8.83
   2 -10   7  287.50    9.88
  -2  10   7  253.21    8.64
   2  10  -8   22.94    2.60
   2 -10   8   16.37    2.32
  -2  10   8   13.70    1.93
   2  10  -9  115.68    5.58
  -2  10   9   94.40    5.07
   2 -10   9  117.52    6.18
  -2  10  10    0.87    0.95
   2  10 -10    1.89    1.10
   2 -10  10   -0.74    1.34
  -2  10  11    0.11    0.99
   2  10 -11    1.81    1.23
   2 -10  11   -0.33    1.08
  -2  10 -12   11.85    1.54
   2  10 -12   10.08    1.91
  -2  10  12   11.81    1.96
   2 -10  12   12.61    2.24
  -2  10 -13  115.25    4.92
  -2  10  13  108.39    5.45
   2  10 -13  117.76    5.52
  -2  10 -14   39.49    2.91
  -2  10  14   39.65    3.30
   2  10 -14   39.03    3.22
  -2  10 -15    0.15    0.77
  -2  10  15    0.80    0.99
  -2 -10  16    5.92    2.11
  -2  10 -16    4.92    1.37
  -2  10  16    4.29    1.41
  -2 -10 -16    4.62    1.39
  -2 -10  17  389.47   13.36
  -2  10 -17  399.45   11.06
  -2  10  17  380.91   11.11
  -2 -10 -17  391.38   11.90
  -2 -10  18   21.29    3.16
  -2  10 -18   24.95    2.60
  -2  10  18   24.29    2.67
  -2 -10 -18   19.68    2.52
  -2 -10  19    6.47    2.16
  -2  10  19    6.07    1.49
  -2  10 -19    5.51    1.50
  -2 -10  20   32.65    4.04
  -2  10  20   26.66    2.63
   2 -10  20   27.70    3.17
  -2  10 -20   33.38    3.18
  -2 -10  21   61.82    5.51
   2 -10  21   56.58    4.54
  -2  10  21   65.51    4.18
  -2 -10  22    8.25    2.47
   2 -10  22   11.10    2.23
  -2  10  22    9.53    1.70
   2 -10  23    0.45    1.25
  -2 -10  23    0.80    1.80
  -2 -10  24    4.59    2.43
   2 -10  24    4.59    1.75
  -2 -10  25   40.74    4.96
   2 -10  25   38.26    4.05
  -2 -10  26   -0.10    1.96
   2 -10  26    0.57    1.58
   2 -10  27   81.49    5.95
  -2 -10  27   87.61    7.25
  -2  11   0  566.83   14.80
   2 -11   0  620.73   15.58
  -2 -11   1  402.60    7.86
  -2  11  -1  393.23   11.89
  -2  11   1  390.09   11.76
   2 -11   1  464.73   12.90
   2 -11  -1  446.22   12.57
   2  11  -1  411.50   12.29
  -2 -11   2   13.31    0.91
  -2  11   2   13.94    2.28
   2 -11   2   17.94    2.58
   2 -11  -2   15.83    2.30
   2  11  -2   14.94    2.27
   2 -11   3  198.77    6.18
   2  11  -3  206.74    8.24
   2 -11   3  223.49    8.55
  -2  11   3  186.78    7.68
   2 -11  -3  216.24    8.31
   2 -11   4  437.22   10.16
  -2  11   4  426.60   12.21
   2  11  -4  457.09   12.81
   2 -11   4  445.11   12.94
   2 -11  -4  450.91   12.72
   2 -11   5   -0.14    0.77
  -2  11   5    0.86    1.26
   2 -11   5    0.25    1.23
   2  11  -5   -0.95    1.37
   2 -11   6  409.86    9.60
   2  11  -6  409.25   12.08
   2 -11   6  450.67   13.15
  -2  11   6  380.24   11.55
   2 -11   7   22.24    2.86
   2  11  -7   25.37    2.82
  -2  11   7   27.14    2.83
   2 -11   8  173.76    7.86
   2  11  -8  165.80    7.08
  -2  11   8  149.16    6.80
   2 -11   9  252.98    9.67
   2  11  -9  228.57    8.50
  -2  11   9  201.39    8.01
  -2  11  10  864.91   19.64
   2  11 -10  952.62   20.34
  -2  11  11   99.02    5.43
   2  11 -11  105.50    5.61
  -2  11  12    8.45    1.70
   2  11 -12    9.13    2.00
  -2  11  13   68.07    4.50
   2  11 -13   74.89    4.71
  -2  11 -14  433.47   10.79
  -2  11  14  382.35   11.83
   2  11 -14  443.57   12.27
  -2  11 -15    3.60    1.11
  -2  11  15    5.90    1.70
  -2  11 -16  472.30   11.84
  -2  11  16  436.88   12.66
  -2 -11 -16  462.88   13.32
  -2 -11  17  160.51    8.42
  -2  11  17  140.73    6.66
  -2  11 -17  168.16    6.56
  -2  11  18   34.29    3.30
  -2  11 -18   35.90    3.07
  -2 -11  18   46.90    4.63
  -2  11  19    4.39    1.63
  -2  11 -19    2.41    1.07
  -2 -11  19    1.32    1.90
   2 -11  20  623.31   16.73
  -2 -11  20  617.89   18.80
  -2  11  20  619.29   15.60
  -2 -11  21   44.18    4.83
  -2  11  21   43.15    3.60
   2 -11  21   39.25    4.01
  -2 -11  22    2.57    2.11
   2 -11  22    4.06    1.66
  -2  11  22    4.07    1.46
  -2 -11  23   55.19    5.58
   2 -11  23   56.50    4.81
   2 -11  24   78.61    5.70
  -2 -11  24   78.47    6.72
  -2 -11  25   27.21    4.14
   2 -11  25   30.63    3.77
  -2 -11  26   53.50    5.76
   2 -11  26   56.06    4.91
   2 -11  27   35.22    4.19
  -2  12   0  869.48   20.34
   2 -12   0  964.31   21.38
   2  12   0  899.71   21.00
  -2 -12   1   27.17    1.53
  -2  12  -1   36.47    3.77
   2 -12   1   35.28    3.70
   2 -12  -1   33.53    3.41
  -2  12   1   24.41    2.95
   2  12  -1   31.26    3.52
  -2 -12   2   22.71    1.12
   2 -12   2   23.09    2.13
  -2  12   2   21.99    2.82
   2 -12   2   28.30    3.20
   2  12  -2   25.26    3.12
   2 -12  -2   24.36    2.95
   2 -12   3   16.21    1.71
  -2  12   3   16.71    2.58
   2 -12   3   17.94    2.58
   2  12  -3   13.42    2.43
   2 -12  -3   15.75    2.41
   2 -12   4    1.58    0.91
  -2  12   4   -0.05    1.09
   2 -12   4    0.04    1.16
   2  12  -4   -0.79    1.21
   2 -12   5   26.48    2.19
  -2  12   5   23.02    2.87
   2 -12   5   30.63    3.39
   2  12  -5   29.44    3.21
   2  12  -6   64.80    4.62
  -2  12   6   58.62    4.34
   2 -12   6   63.78    3.29
   2  12  -7    0.49    1.15
  -2  12   7    6.79    1.93
   2  12  -8   83.70    5.23
  -2  12   8   86.12    5.24
   2  12  -9   37.31    3.51
  -2  12   9   32.58    3.27
   2  12 -10   87.81    5.44
  -2  12  10   80.57    5.10
  -2  12  11  117.15    6.18
   2  12 -11  123.19    6.33
  -2  12  12   22.54    2.77
   2  12 -12   24.01    2.81
   2  12 -13   10.73    2.05
  -2  12  13    8.48    1.82
  -2  12  14  116.70    6.27
   2  12 -14  127.52    6.44
  -2  12  15    5.99    1.74
  -2  12  16  439.60   13.27
  -2  12 -16  481.67   11.82
  -2  12  17   30.16    3.20
  -2  12 -17   31.33    2.76
  -2 -12  18  282.81   11.82
  -2  12  18  266.70    9.86
  -2  12  19    4.12    1.54
  -2 -12  19    0.77    1.79
  -2 -12  20  133.46    8.28
  -2  12  20  139.48    6.83
  -2 -12  21   16.98    3.34
  -2  12  21   16.21    2.43
   2 -12  21   15.48    2.65
   2 -12  22   14.86    2.74
  -2 -12  22   10.39    2.58
  -2 -12  23   28.75    3.98
   2 -12  23   21.78    3.21
   2 -12  24   40.63    4.45
  -2 -12  24   44.17    5.27
   2 -12  25    8.07    2.34
  -2 -12  25    6.53    2.24
   2 -12  26   22.72    3.50
  -2  13   0    6.55    2.07
   2  13   0    3.57    2.13
  -2 -13   1  249.94    5.46
  -2  13  -1  239.68    9.52
  -2  13   1  241.20    9.52
   2  13  -1  260.13   10.10
   2  13   1  260.99   10.15
  -2 -13   2  189.84    3.81
   2 -13   2  188.79    6.31
  -2  13  -2  187.69    8.30
  -2  13   2  179.91    8.12
   2  13  -2  188.36    8.53
   2  13   2  197.40    8.86
   2 -13   3  662.81   13.71
   2  13  -3  667.07   17.49
  -2  13   3  607.87   16.61
   2 -13   4  178.91    5.99
   2  13  -4  196.79    8.57
  -2  13   4  185.11    8.21
   2 -13   5    7.71    1.24
  -2  13   5    9.00    1.97
   2  13  -5    7.03    1.78
   2  13  -6   17.88    2.76
  -2  13   6   16.84    2.72
   2 -13   6   15.52    1.77
   2  13  -7 1134.06   24.44
  -2  13   7 1062.83   23.83
  -2  13   8    6.41    1.92
   2  13  -8    6.03    1.94
   2  13  -9    1.80    1.19
  -2  13   9    2.74    1.27
  -2  13  10   39.06    3.79
   2  13 -10   48.95    4.18
   2  13 -11  311.47   10.89
  -2  13  11  292.85   10.65
   2  13 -12   28.90    3.33
  -2  13  12   27.19    3.28
  -2  13  13  365.41   12.23
   2  13 -13  391.02   12.33
  -2  13  14   16.46    2.56
   2  13 -14   20.38    2.93
  -2  13  15  120.27    6.66
   2  13 -15  127.78    6.68
  -2  13  16   22.36    2.96
  -2  13  17  226.69    9.29
  -2  13  18   -0.46    1.25
  -2 -13  19  107.97    7.48
  -2  13  19  105.22    6.20
  -2  13  20    6.05    1.73
  -2 -13  20    6.96    2.02
  -2 -13  21  239.04   11.62
  -2  13  21  241.11    9.60
   2 -13  22   34.45    3.91
  -2 -13  22   39.74    4.86
   2 -13  23  149.05    8.23
  -2 -13  23  154.29    9.55
  -2 -13  24    6.49    2.64
   2 -13  24    3.00    1.89
   2 -13  25    6.76    2.42
   2 -13  26   12.68    2.77
  -2  14   0    6.96    1.96
   2  14   0    8.05    2.12
  -2 -14   1    6.19    0.79
  -2  14   1    4.22    1.72
  -2  14  -1    4.78    1.91
   2  14  -1    4.72    1.92
   2  14   1    7.43    2.22
   2 -14   2    2.35    0.93
  -2  14   2    1.44    1.33
  -2  14  -2    3.16    1.66
   2  14  -2    4.46    1.81
   2  14   2    1.66    1.66
   2 -14   3   14.22    1.79
  -2  14   3   13.52    2.37
   2  14  -3   16.26    2.70
   2  14   3   14.93    2.77
   2 -14   4   76.05    3.82
   2  14  -4   81.27    5.72
  -2  14   4   72.02    5.26
   2  14   4   87.69    6.02
  -2  14   5    8.30    2.05
   2  14  -5    9.19    2.25
   2 -14   5    7.76    1.38
   2  14  -6    1.63    1.38
  -2  14   6    3.13    1.60
   2 -14   6    2.12    0.88
   2  14  -7   78.64    5.64
  -2  14   7   81.74    5.62
  -2  14   8   10.63    2.34
   2  14  -8   12.51    2.41
   2  14  -9   83.75    5.68
  -2  14   9   74.54    5.38
  -2  14  10    0.91    1.35
   2  14 -10   -1.93    1.55
   2  14 -11   45.22    4.25
  -2  14  11   42.29    4.12
   2  14 -12   29.00    3.43
  -2  14  12   21.64    3.17
   2  14 -13    4.67    1.82
  -2  14  13    3.55    1.63
   2  14 -14   23.27    3.06
  -2  14  14   24.84    3.22
  -2  14  15   38.20    3.95
   2  14 -15   34.68    3.68
  -2  14  16   39.25    3.89
  -2  14  17   86.02    5.83
  -2  14  18   10.21    2.07
  -2  14  19   73.62    5.45
  -2  14  20    2.19    1.32
  -2 -14  20    5.70    1.77
  -2  14  21    5.82    1.84
  -2 -14  21    9.38    3.09
  -2 -14  22    9.33    2.66
   2 -14  23   16.95    3.10
  -2 -14  23   17.10    3.55
   2 -14  24   10.28    2.66
   2 -14  25   32.91    4.05
  -2 -15   0    8.76    1.03
  -2  15   0   10.19    2.49
   2  15   0    8.53    2.57
  -2 -15   1   24.35    1.30
  -2  15  -1   21.68    3.08
  -2  15   1   23.42    3.19
   2  15  -1   22.83    3.35
   2  15   1   23.89    3.40
   2 -15   2  181.81    6.35
  -2  15  -2  173.14    8.54
  -2  15   2  169.46    8.38
   2  15  -2  174.97    8.76
   2  15   2  179.24    9.06
   2 -15   3   75.04    3.86
   2  15  -3   64.26    5.33
  -2  15   3   74.29    5.58
   2  15   3   70.82    5.73
   2 -15   4  245.14    7.30
   2  15  -4  236.23   10.22
  -2  15   4  209.04    9.57
   2  15   4  244.08   10.70
   2 -15   5   33.66    2.48
  -2  15   5   37.60    4.08
   2  15  -5   26.98    3.38
   2  15   5   36.12    4.12
   2 -15   6   92.23    4.07
   2  15  -6   90.78    6.24
  -2  15   6   83.68    5.85
   2  15   6   89.41    6.48
   2  15  -7  294.00   11.45
  -2  15   7  250.16   10.49
  -2  15   8    3.34    1.56
   2  15  -8    1.10    1.50
   2  15  -9   95.27    6.47
  -2  15   9  100.45    6.47
  -2  15  10  483.15   15.27
   2  15 -10  518.53   15.74
   2  15 -11  100.34    6.48
  -2  15  11   91.44    6.19
   2  15 -12    0.90    1.29
  -2  15  12    1.25    1.35
   2  15 -13  227.60    9.84
  -2  15  13  210.34    9.63
   2  15 -14  191.55    9.02
  -2  15  14  179.10    8.85
   2  15 -15   18.41    2.94
  -2  15  15   16.03    2.98
  -2  15  16  201.12    9.40
  -2  15  17  336.89   12.53
  -2  15  18  125.37    7.37
  -2  15  19   20.04    3.04
  -2 -15  20  224.02   11.41
  -2  15  20  197.22    9.32
  -2 -15  21  176.53   10.31
   2 -15  23   11.17    2.79
   2 -15  24  196.03   10.08
   2 -15  25   28.79    4.07
  -2 -16   0  539.38   10.01
  -2  16   0  492.60   16.16
   2  16   0  516.52   16.74
  -2 -16   1   83.71    2.35
   2  16   1   82.00    6.35
  -2  16  -1   78.20    6.00
  -2  16   1   64.07    5.41
   2  16  -1   87.14    6.46
   2 -16   2   25.28    2.40
  -2  16   2   20.61    3.30
  -2  16  -2   22.65    3.50
   2  16  -2   29.30    3.85
   2  16   2   32.23    4.11
   2 -16   3   23.87    2.22
  -2  16   3   20.52    3.18
   2  16  -3   21.06    3.22
   2  16   3   17.76    3.12
   2 -16   4    1.85    0.91
  -2  16   4    4.63    1.98
   2  16  -4    5.02    1.99
   2  16   4   -0.97    1.58
   2 -16   5   52.41    3.11
  -2  16   5   46.26    4.56
   2  16  -5   49.09    4.83
   2  16   5   56.81    5.34
   2  16  -6    7.47    2.31
  -2  16   6    9.07    2.34
   2  16   6    6.48    2.37
  -2  16   7    6.68    2.11
   2  16  -7    4.97    2.03
   2  16   7    5.52    2.19
   2  16  -8  228.32   10.46
  -2  16   8  215.82   10.04
   2  16   8  245.22   11.37
  -2  16   9   60.33    5.34
   2  16  -9   62.94    5.40
   2  16   9   67.11    6.04
  -2  16  10  124.30    7.51
   2  16 -10  122.49    7.47
   2  16  10  132.70    8.33
   2  16 -11   81.20    6.02
  -2  16  11   69.18    5.66
   2  16 -12    0.85    1.50
  -2  16  12    4.19    2.05
   2  16 -13    0.95    1.41
  -2  16  13    1.08    1.51
  -2  16  14    5.74    1.76
   2  16 -14    7.90    2.26
   2  16 -15    1.96    1.42
  -2  16  15    1.28    1.39
  -2  16  16   73.26    5.76
  -2  16  17    0.16    1.39
  -2  16  18    8.90    2.32
  -2  16  19    0.03    1.39
  -2  16  20   41.48    4.37
   2 -16  24   84.38    6.76
   2  17   0  559.30   17.86
  -2  17   0  514.46   16.86
   2 -17   1   85.73    4.48
   2  17  -1   84.16    6.57
  -2  17  -1   82.47    6.33
  -2  17   1   80.34    6.22
   2  17   1   87.21    6.63
   2 -17   2   17.97    2.01
  -2  17   2   20.18    3.57
  -2  17  -2   18.09    3.40
   2  17  -2   16.31    2.85
   2  17   2   19.68    3.43
   2 -17   3   58.20    3.50
  -2  17   3   49.40    4.97
   2  17  -3   51.40    5.05
   2  17   3   47.55    5.41
   2 -17   4  353.54    9.23
  -2  17   4  329.13   12.99
   2  17  -4  349.17   13.56
   2  17   4  350.76   13.98
   2 -17   5   -0.32    0.76
  -2  17   5   -0.06    1.97
   2  17  -5    0.12    1.67
   2  17   5    1.01    2.19
   2  17  -6  276.68   12.03
  -2  17   6  249.44   11.25
   2  17   6  266.96   12.17
   2  17  -7   17.18    3.21
  -2  17   7   10.60    2.74
   2  17   7   14.84    3.46
   2  17  -8  149.12    8.62
  -2  17   8  138.83    8.15
   2  17   8  148.44    9.07
  -2  17   9    1.80    1.91
   2  17  -9    0.86    1.87
   2  17   9    6.91    2.66
  -2  17  10  318.54   12.90
   2  17 -10  327.06   13.01
   2  17  10  350.73   14.37
   2  17 -11   21.19    3.45
  -2  17  11   18.80    3.26
   2  17  11   20.22    3.59
   2  17 -12    0.71    1.53
  -2  17  12    4.12    2.06
   2  17  12    5.70    2.31
   2  17 -13   13.89    2.79
  -2  17  13   13.26    2.86
   2  17  13   15.55    3.55
   2  17 -14  146.99    8.38
  -2  17  14  141.51    8.48
   2  17  14  142.98    9.16
  -2  17  15   26.91    3.79
   2  17  15   35.22    4.86
  -2  17  16  145.51    8.58
   2  17  16  150.51    9.61
  -2  17  17    6.67    2.33
  -2  17  18  111.79    7.45
  -2  17  19    8.32    2.51
  -2  17  20   95.22    6.91
   2  17  21   40.03    5.13
   2  17  22   11.23    3.14
  -2  18   0   24.12    3.61
   2  18   0   21.28    3.69
   2 -18   1   35.46    3.00
   2  18  -1   31.33    4.18
  -2  18  -1   42.01    4.72
  -2  18   1   39.73    4.63
   2  18   1   36.96    4.60
   2 -18   2   87.08    4.42
  -2  18   2   77.63    6.41
   2  18   2   93.92    7.20
   2  18  -2   82.08    6.62
   2 -18   3    2.10    1.13
  -2  18   3   -0.51    1.65
   2  18  -3   -0.41    1.75
   2  18   3    2.71    2.17
   2 -18   4   36.52    2.70
  -2  18   4   31.79    4.19
   2  18  -4   37.00    4.57
   2  18   4   31.47    4.24
   2 -18   5   17.41    1.89
  -2  18   5   12.93    2.95
   2  18  -5   15.72    3.06
   2  18   5   14.34    3.20
   2  18  -6   74.62    6.34
  -2  18   6   66.83    5.94
   2  18   6   76.51    6.76
   2  18  -7   14.60    3.08
  -2  18   7   11.69    2.72
   2  18   7   16.66    3.30
  -2  18   8    5.42    2.30
   2  18  -8    5.79    2.38
   2  18   8    3.76    2.02
  -2  18   9   50.10    5.14
   2  18  -9   49.53    5.13
   2  18   9   43.02    5.08
  -2  18  10    2.62    2.07
   2  18 -10    0.66    1.89
   2  18  10    1.75    1.91
   2  18 -11    6.96    2.36
  -2  18  11    9.26    2.72
   2  18  11    9.83    2.95
   2  18 -12   10.04    2.61
  -2  18  12    9.27    2.71
   2  18  12    6.33    2.28
  -2  18  13    9.90    2.46
   2  18 -13    9.35    2.50
   2  18  13   13.54    2.97
  -2  18  14    4.24    2.32
   2  18 -14   -0.79    1.97
   2  18  14    1.66    2.01
  -2  18  15   -1.34    1.65
   2  18  15   -0.15    2.03
  -2  18  16   44.47    4.86
   2  18  16   61.16    6.33
  -2  18  17   62.93    5.81
   2  18  17   70.79    6.88
  -2  18  18   23.54    3.81
   2  18  18   27.23    4.41
  -2  18  19   86.92    6.87
   2  18  19   91.71    7.81
   2 -19   0   47.70    3.47
   2  19   0   40.33    4.92
  -2  19   0   35.14    4.44
   2 -19   1   81.06    4.38
   2  19   1   73.72    6.64
  -2  19  -1   72.23    6.33
  -2  19   1   72.63    6.35
   2  19  -1   79.89    6.87
   2  19  -2    7.84    2.82
  -2  19   2    9.14    2.92
   2  19   2   11.15    3.28
   2  19   3  616.35   20.29
   2  19  -3  613.42   19.94
  -2  19   3  584.82   19.28
  -2  19   4    2.77    1.91
   2  19  -4    8.88    2.92
   2  19   4    5.10    2.64
  -2  19   5   -1.66    2.43
   2  19  -5   -3.51    2.43
   2  19   5    1.26    1.75
  -2  19   6   33.63    4.50
   2  19  -6   40.66    4.87
   2  19   6   37.33    4.92
   2  19   7  405.58   16.27
  -2  19   7  344.07   14.31
   2  19  -7  401.48   15.43
  -2  19   8   38.23    4.71
   2  19  -8   38.10    4.80
   2  19   8   39.11    5.19
  -2  19   9    6.61    2.31
   2  19  -9    8.53    2.73
   2  19   9    5.98    2.44
   2  19  10   77.79    7.04
  -2  19  10   70.06    6.20
   2  19 -10   76.42    6.63
   2  19 -11   28.05    4.04
  -2  19  11   31.83    4.37
   2  19  11   29.58    4.40
   2  19 -12    5.17    2.28
  -2  19  12    6.08    2.53
   2  19  12    6.45    2.60
  -2  19  13   49.63    5.47
   2  19  13   69.39    6.66
   2  19 -13   59.56    5.74
  -2  19  14   52.17    5.53
   2  19 -14   49.00    5.33
   2  19  14   55.00    6.19
  -2  19  15   -0.11    1.94
   2  19  15    7.00    3.02
  -2  19  16    3.75    2.55
   2  19  16    0.82    2.30
  -2  19  17  142.62    9.02
  -2  19  18    7.36    2.45
  -2  19  19    8.08    2.73
   2  20   0   48.38    5.72
  -2  20   0   40.21    4.84
   2  20  -1   35.09    4.87
  -2  20   1   29.48    4.25
   2  20   1   30.36    4.57
   2  20  -2   22.38    4.16
   2  20   2   15.00    3.29
  -2  20   2   21.91    3.79
   2  20  -3   15.35    3.33
  -2  20   3   16.54    3.17
   2  20   3   16.01    3.69
   2  20  -4    8.46    2.86
  -2  20   4    8.94    2.65
   2  20   4    6.92    2.50
  -2  20   5   16.79    3.47
   2  20  -5   18.76    3.55
   2  20   5   13.85    3.24
  -2  20   6   73.72    6.56
   2  20  -6   54.22    5.69
   2  20   6   60.70    6.38
  -2  20   7    7.63    2.55
   2  20  -7   13.93    3.45
   2  20   7    7.74    2.71
  -2  20   8   47.12    5.33
   2  20  -8   47.67    5.56
   2  20   8   51.67    5.88
  -2  20   9   -0.34    1.62
   2  20  -9    0.47    1.88
   2  20   9    0.97    2.06
  -2  20  10    8.85    2.62
   2  20 -10   11.67    3.08
   2  20  10   12.88    3.44
   2  20 -11   39.09    4.91
  -2  20  11   34.75    4.80
   2  20  11   41.60    5.41
  -2  20  12   22.37    3.71
   2  20 -12   30.67    4.33
   2  20  12   27.15    4.43
  -2  20  13    0.91    2.20
   2  20 -13    1.39    1.96
  -2  20  14   10.88    2.79
   2  20 -14   15.21    3.15
  -2  20  15   17.32    3.62
  -2  20  16   50.07    5.54
  -2  20  17   -0.38    1.78
  -2  20  18   38.98    4.89
   2  21   0   39.00    5.10
  -2  21   0   43.28    5.37
   2  21  -1  146.99    9.86
   2  21   1  124.99    9.16
  -2  21   1  142.10    9.42
   2  21   2   43.49    5.48
   2  21  -2   49.36    5.83
  -2  21   2   46.13    5.50
   2  21  -3   87.70    7.58
  -2  21   3   72.58    6.78
   2  21   3   70.97    6.80
   2  21  -4   53.76    6.00
   2  21   4   52.32    5.85
  -2  21   4   55.54    6.09
   2  21  -5    6.33    2.65
  -2  21   5    9.24    2.98
   2  21   5    4.34    2.19
  -2  21   6   50.92    5.77
   2  21  -6   62.80    6.37
   2  21   6   62.77    6.75
  -2  21   7  294.98   13.83
   2  21  -7  303.52   14.17
  -2  21   8    3.90    1.94
   2  21  -8    5.25    2.12
  -2  21   9    3.32    2.27
   2  21  -9    4.72    2.22
  -2  21  10  110.78    8.35
   2  21 -10  137.04    9.25
   2  21 -11   64.66    6.36
  -2  21  11   71.95    6.67
  -2  21  12   -2.10    2.27
   2  21 -12   -2.59    2.34
  -2  21  13  106.77    8.17
  -2  21  14   16.92    3.28
  -2  21  15    5.52    1.98
   3   0   0   -1.03    1.01
   3   0   0   -0.65    0.67
  -3   0   0    2.06    0.67
   3   0   1   -0.10    0.55
   3   0   1   -1.62    1.13
   3   0  -1   -0.30    0.91
   3   0  -1   -0.50    0.61
  -3   0  -1   -0.31    0.47
  -3   0   1   -0.23    0.65
   3   0   2  113.48    4.41
  -3   0  -2  114.62    4.44
   3   0  -2  108.20    3.76
  -3   0  -2  111.28    2.93
  -3   0   2  113.37    3.85
  -3   0  -3   -0.65    0.82
   3   0   3   -0.61    1.19
  -3   0   3    0.15    0.80
   3   0  -3    0.50    0.66
  -3   0  -3   -0.03    0.34
  -3   0  -4  283.89    7.80
   3   0  -4  277.36    7.26
  -3   0   4  293.04    7.42
  -3   0  -5    0.67    1.03
   3   0  -5   -0.03    0.72
  -3   0   5    0.77    1.04
  -3   0  -6  734.49   15.23
   3   0  -6  728.87   14.80
  -3   0   6  753.28   14.92
  -3   0  -7    1.68    1.10
  -3   0   7    1.41    1.15
   3   0  -7    0.60    1.04
  -3   0  -8  161.59    6.09
   3   0  -8  156.76    5.89
  -3   0   8  157.28    5.90
   3   0  -9   -0.97    0.89
  -3   0   9    0.40    1.05
   3   0 -10  525.57   12.76
  -3   0  10  503.59   12.57
   3   0 -11   -0.78    1.24
  -3   0  11   -1.14    1.44
   3   0 -12  596.14   14.54
  -3   0  12  591.16   14.55
   3   0 -13   -0.85    0.95
  -3   0  13   -0.84    1.24
   3   0 -14  167.65    7.17
  -3   0  14  152.24    6.88
   3   0 -15   -0.98    1.12
  -3   0  15   -2.43    1.72
  -3   0  16  260.05    9.63
  -3   0  17   -1.61    1.67
  -3   0  18  183.92    8.34
  -3   0  19    0.97    1.42
  -3   0  20   10.97    2.45
  -3   0  21   -1.67    2.10
  -3   0  22    4.15    1.77
  -3   0  23   -3.69    2.19
  -3   0  24    5.48    2.24
  -3   0  25   -1.57    2.16
  -3   0  26   15.58    3.11
  -3   0  27    0.65    1.88
  -3   0  28   -0.07    2.02
  -3   0  29   -1.96    2.22
   3   1   0   -1.02    1.13
   3  -1   0    1.11    1.00
  -3  -1   0    4.60    1.12
   3  -1   0    7.71    1.27
  -3   1   0    2.26    0.77
   3   1   1 1175.15   20.46
   3  -1  -1 1194.47   20.67
  -3  -1  -1 1147.20   20.40
   3  -1   1 1198.77   20.70
   3   1  -1 1179.22   20.28
   3  -1   1 1167.04   18.43
   3  -1  -1 1162.44   19.23
  -3  -1   1 1147.35   19.26
  -3  -1  -1 1172.69   18.49
  -3   1  -1 1171.26   18.41
  -3   1   1 1168.71   19.22
  -3   1  -2 1776.69   29.33
   3   1  -2 1784.47   28.80
  -3  -1  -2 1755.00   29.13
   3   1   2 1786.99   29.17
   3  -1   2 1819.94   29.37
   3  -1   2 1776.15   26.47
   3  -1  -2 1783.44   28.16
  -3  -1  -2 1781.19   26.48
  -3  -1   2 1801.82   28.23
  -3   1   2 1791.96   28.12
  -3   1  -3  328.34    8.45
   3  -1   3  339.38    8.46
  -3  -1  -3  329.15    8.38
  -3  -1  -3  327.06    5.97
   3   1  -3  315.01    7.68
  -3  -1   3  337.04    7.94
   3  -1   3  324.07    5.94
   3  -1  -3  337.53    7.86
  -3   1   3  334.97    7.87
   3  -1   4    0.09    1.00
   3   1  -4    1.73    0.94
  -3  -1  -4    1.42    0.95
  -3   1  -4    0.30    0.85
   3  -1   4    0.99    0.31
  -3  -1  -4    0.51    0.32
  -3  -1   4    0.87    0.86
   3  -1  -4   -1.34    0.78
  -3   1   4    0.70    0.88
  -3  -1  -5 2247.01   36.18
  -3   1  -5 2215.60   36.20
   3   1  -5 2209.83   35.57
   3  -1  -5 2240.86   35.62
  -3  -1   5 2271.65   35.76
  -3   1   5 2247.23   35.65
  -3  -1  -6   18.51    1.98
  -3   1  -6   17.60    1.90
   3   1  -6   20.18    2.00
  -3  -1   6   18.93    2.03
   3  -1  -6   16.69    1.82
  -3   1   6   15.50    2.01
  -3  -1  -7    1.46    0.98
  -3   1  -7    0.36    0.79
   3   1  -7   -0.35    0.89
   3  -1  -7    0.16    0.78
  -3   1   7    0.38    1.02
  -3  -1   7    1.13    0.98
  -3   1  -8  227.76    7.30
   3  -1  -8  220.08    7.14
  -3  -1   8  216.19    7.14
   3   1  -8  220.88    7.16
  -3   1   8  220.27    7.18
   3  -1  -9  739.66   15.90
  -3  -1   9  749.53   15.92
   3   1  -9  743.85   15.86
  -3   1  -9  708.02   15.71
   3  -1  -9  740.98   11.42
  -3   1   9  725.91   15.78
   3   1 -10    7.11    1.45
  -3  -1  10    5.60    1.62
   3  -1 -10    7.70    1.33
  -3   1  10   11.30    1.98
   3  -1 -11  586.77   14.09
  -3  -1  11  579.58   14.09
   3   1 -11  586.71   14.03
  -3   1  11  569.79   14.01
  -3  -1  12  979.65   20.70
   3  -1 -12 1001.24   20.68
   3   1 -12  986.43   20.65
   3  -1  12  991.84   15.30
  -3   1  12 1005.20   20.73
   3   1 -13    5.54    1.48
   3  -1 -13    5.61    1.41
  -3  -1  13    8.65    1.74
  -3   1  13   10.37    2.12
   3  -1  13    8.34    0.84
   3   1 -14   41.76    3.55
   3  -1 -14   32.08    3.16
   3  -1  14   37.03    1.84
  -3  -1  14   40.11    3.53
  -3   1  14   35.49    3.31
   3  -1 -15  826.52   18.87
   3   1 -15  851.82   19.07
  -3  -1  15  789.03   18.63
   3  -1  15  778.38   13.76
  -3   1  15  777.44   18.60
   3  -1  16   71.53    2.98
  -3   1  16   76.95    5.07
  -3  -1  16   68.44    4.85
  -3  -1  17   13.34    2.40
   3  -1  17   15.21    1.46
  -3   1  17   12.88    2.40
   3  -1  18   48.93    2.73
  -3   1  18   46.13    4.17
  -3  -1  18   48.37    4.27
   3  -1  19  437.04    9.89
  -3   1  19  427.34   13.69
  -3  -1  19  431.90   13.80
  -3  -1  20   55.47    4.83
  -3   1  20   62.82    5.09
  -3  -1  21   -0.59    1.61
  -3   1  21   -0.30    1.66
  -3  -1  22  132.24    7.71
  -3   1  22  136.42    7.88
  -3   1  23   16.28    2.97
  -3  -1  23   13.96    2.89
  -3   1  24    3.13    2.02
  -3  -1  24    2.28    1.91
  -3   1  25  241.04   11.31
  -3  -1  25  268.48   11.83
  -3   1  26   10.08    2.77
  -3  -1  26    8.25    2.30
  -3   1  27    0.15    1.70
  -3  -1  27    1.00    1.75
  -3  -1  28   -1.33    1.63
  -3   1  28   -1.65    1.87
  -3   1  29  302.09   13.65
  -3  -1  29  306.18   13.74
   3   2   0   -0.69    0.91
  -3  -2   0   -0.08    0.72
   3  -2   0    0.44    0.57
   3   2   1  124.65    4.50
   3   2  -1  122.29    4.38
   3  -2   1  125.71    4.70
  -3  -2  -1  117.36    4.41
  -3  -2  -1  123.90    3.60
  -3  -2   1  126.47    4.05
   3  -2  -1  118.17    3.93
   3  -2   1  124.01    3.58
   3   2  -2  231.91    6.37
   3  -2   2  245.05    6.95
  -3  -2  -2  238.23    6.73
  -3  -2  -2  225.28    5.10
  -3  -2   2  237.92    6.19
  -3   2   2  239.71    6.20
   3  -2  -2  231.01    6.08
   3  -2   2  232.19    5.13
   3   2  -3  124.53    4.40
   3  -2   3  137.02    4.94
  -3  -2  -3  130.58    4.79
  -3   2  -3  119.41    4.72
  -3  -2   3  127.63    4.47
  -3   2   3  128.03    4.48
   3  -2  -3  123.74    4.32
   3  -2   3  124.36    3.22
  -3   2  -4   12.01    1.58
  -3  -2  -4   14.31    1.62
   3  -2   4    9.53    1.60
   3  -2  -4   10.99    1.40
  -3  -2   4   14.00    1.68
  -3   2   4   13.17    1.59
   3  -2   4   12.49    0.86
  -3  -2  -5  616.93   13.35
  -3   2  -5  630.05   13.43
   3  -2  -5  644.28   13.05
  -3  -2   5  640.17   13.11
   3  -2   5  616.57    9.86
  -3   2   5  626.84   13.01
  -3   2  -6  208.49    6.70
  -3  -2  -6  198.10    6.62
  -3  -2   6  207.89    6.57
   3  -2  -6  206.46    6.51
  -3   2   6  200.07    6.48
  -3  -2   7   16.03    1.89
   3  -2  -7   13.96    1.78
  -3   2  -7   15.65    1.90
   3  -2  -7   13.25    1.10
  -3   2   7   16.02    1.94
   3  -2  -8    5.79    1.28
   3  -2   8    3.25    0.39
  -3  -2   8    1.65    1.02
  -3   2  -8    4.62    1.35
   3  -2  -8    3.57    0.62
  -3  -2  -8    3.82    0.40
  -3   2   8    4.18    1.37
   3  -2   9  397.02    6.58
   3  -2  -9  424.88   10.91
  -3  -2   9  402.52   10.72
  -3   2  -9  416.82   10.71
   3  -2  -9  402.76    7.17
  -3  -2  -9  392.05    6.62
  -3   2   9  392.91   10.55
   3  -2  10  121.28    2.82
  -3  -2 -10  120.57    2.85
  -3  -2  10  123.83    5.63
   3  -2 -10  124.96    5.55
  -3   2 -10  127.90    5.51
   3   2 -10  122.35    3.00
  -3   2  10  123.80    5.56
  -3  -2 -11  827.62   13.25
  -3  -2  11  857.75   18.24
   3  -2 -11  867.51   18.34
   3   2 -11  833.33   12.65
  -3   2  11  857.16   18.24
   3  -2  11  845.92   13.23
  -3  -2 -12   25.41    1.36
  -3  -2  12   28.09    2.83
   3  -2 -12   27.95    2.71
   3  -2  12   28.32    1.41
  -3   2  12   25.65    2.74
   3  -2 -13    8.83    1.84
  -3  -2 -13    5.28    0.72
  -3  -2  13    4.95    1.65
   3  -2  13    5.85    0.75
  -3   2  13    6.08    1.62
  -3  -2  14    9.85    2.04
  -3  -2 -14   10.27    1.04
   3  -2 -14    9.51    1.87
   3  -2  14    9.19    0.95
  -3   2  14   10.72    2.08
   3  -2 -15  614.88   15.67
  -3  -2 -15  584.76   11.09
  -3  -2  15  582.19   15.36
   3  -2  15  598.93   11.14
  -3   2  15  587.87   15.49
  -3  -2  16   77.14    5.16
  -3  -2 -16   73.75    3.01
  -3   2  16   70.71    4.91
   3  -2  16   63.73    2.85
  -3  -2 -17   44.33    2.45
  -3  -2  17   51.51    4.30
   3  -2  17   42.43    2.39
  -3   2  17   41.00    3.82
  -3  -2  18    1.22    1.64
  -3   2  18    0.66    1.35
   3  -2  18    0.88    0.62
  -3   2  19   64.81    5.00
   3  -2  19   62.59    3.23
  -3  -2  19   62.79    4.88
  -3   2  20   58.38    4.90
   3  -2  20   65.09    3.38
  -3  -2  20   60.11    5.06
  -3  -2  21   35.39    3.96
  -3   2  21   36.28    3.99
   3  -2  21   38.68    2.73
  -3  -2  22   22.96    3.43
  -3   2  22   29.24    3.54
   3  -2  22   22.72    2.22
  -3  -2  23    2.86    1.52
   3  -2  23    6.72    1.26
  -3   2  23    4.88    1.94
  -3  -2  24   13.85    2.73
   3  -2  24   16.57    2.04
  -3   2  24   12.91    2.72
  -3  -2  25  106.55    7.38
  -3   2  25   94.85    6.98
   3  -2  25  104.22    5.09
  -3  -2  26   -1.46    1.92
  -3   2  26    1.71    1.70
  -3   2  27   82.55    6.87
  -3  -2  27  107.35    7.73
  -3   2  28    9.72    2.80
  -3  -2  28    5.30    2.32
  -3  -2  29   25.01    3.89
  -3   2  29   29.16    4.29
   3   3   0    0.23    0.82
  -3  -3   0    0.00    0.67
   3  -3   0    0.55    1.01
   3  -3   0    0.69    0.75
   3   3  -1    2.21    0.98
   3  -3   1    0.55    0.95
  -3  -3  -1    4.45    1.06
   3  -3   1    4.55    0.88
   3  -3  -1    5.35    1.21
  -3  -3  -2 2305.31   36.31
   3   3  -2 2326.28   35.75
   3  -3   2 2303.49   36.72
  -3  -3   2 2308.96   35.82
   3  -3   2 2281.15   34.39
   3  -3  -2 2297.63   35.74
   3  -3   3   12.59    1.76
  -3  -3  -3   14.43    1.70
  -3  -3   3   12.43    1.56
   3   3  -3   14.34    1.50
   3  -3  -3   11.86    1.44
  -3  -3  -4   22.40    2.05
  -3   3  -4   24.80    2.22
   3  -3   4   25.15    2.23
  -3  -3   4   25.68    2.14
   3  -3  -4   25.63    2.15
  -3   3  -5  275.35    7.87
  -3  -3  -5  279.08    7.87
   3  -3   5  277.76    7.87
  -3  -3   5  293.15    7.94
   3  -3  -5  281.18    7.82
  -3  -3   6 1070.20   19.95
  -3   3  -6 1055.00   19.95
   3  -3  -6 1060.76   17.67
  -3   3   6 1054.98   19.81
   3  -3  -6 1057.85   19.85
  -3  -3   7    7.45    1.53
   3  -3  -7   10.39    1.58
  -3   3  -7    7.97    1.45
   3  -3  -7    8.34    0.96
  -3   3   7    7.73    1.49
  -3  -3   8  917.76   18.50
  -3   3  -8  924.59   18.34
   3  -3  -8  912.28   15.30
  -3   3   8  913.47   18.45
   3  -3  -8  922.43   18.47
   3  -3  -9   74.28    4.20
  -3  -3   9   73.91    4.22
  -3   3  -9   71.93    4.04
   3  -3  -9   73.77    2.58
  -3  -3  -9   69.94    2.29
  -3   3   9   72.21    4.16
   3  -3  10   18.49    1.18
   3  -3 -10   21.16    2.35
  -3  -3  10   20.08    2.33
  -3   3 -10   18.60    2.14
   3   3 -10   18.16    1.23
  -3  -3 -10   17.86    1.15
  -3   3  10   17.33    2.24
   3  -3 -11  233.62    8.10
  -3  -3  11  218.51    7.95
   3  -3  11  224.59    5.01
  -3   3 -11  228.98    7.86
   3   3 -11  231.16    4.93
  -3   3  11  216.42    7.89
  -3  -3 -11  213.00    5.00
   3  -3  12 2678.71   39.49
   3  -3 -12 2732.83   45.20
  -3  -3  12 2686.83   45.12
  -3   3 -12 2704.41   44.62
   3   3 -12 2716.65   38.57
  -3   3  12 2688.62   45.09
  -3  -3 -12 2630.82   39.53
  -3  -3 -13   25.95    1.61
   3  -3 -13   28.26    2.98
  -3  -3  13   27.10    2.98
   3  -3  13   24.52    1.58
  -3   3  13   29.44    3.23
  -3  -3  14   39.57    3.60
   3  -3 -14   41.22    3.59
  -3  -3 -14   38.14    2.04
   3  -3  14   39.82    2.09
  -3   3  14   39.06    3.54
  -3  -3 -15  137.29    4.33
  -3  -3  15  132.24    6.63
   3  -3  15  132.92    4.23
   3  -3 -15  143.85    6.91
  -3   3  15  139.95    6.78
  -3  -3 -16   62.96    2.93
  -3  -3  16   61.78    4.67
  -3   3  16   65.24    4.64
   3  -3  16   63.16    2.97
  -3  -3 -17    2.91    0.81
  -3  -3  17    8.01    2.09
   3  -3  17    5.02    1.08
  -3   3  17    2.64    1.50
  -3  -3 -18  283.24    7.56
  -3  -3  18  286.35   10.73
  -3   3  18  289.84   10.89
   3  -3  18  290.98    7.59
  -3  -3 -19  341.29    8.66
  -3  -3  19  323.11   11.83
  -3   3  19  340.78   12.04
   3  -3  19  331.20    8.54
  -3  -3 -20   36.70    2.58
  -3  -3  20   34.21    3.88
  -3   3  20   32.70    3.67
   3  -3  20   34.71    2.55
  -3  -3 -21  117.16    4.93
  -3   3  21  119.56    7.18
  -3  -3  21  116.02    7.21
   3  -3  21  121.14    5.01
  -3   3  22  625.09   18.28
   3  -3  22  629.02   13.90
  -3  -3  22  598.16   18.03
  -3  -3  23   13.63    2.83
   3  -3  23   15.01    2.00
  -3   3  23   18.63    3.25
  -3  -3  24   17.67    3.18
  -3   3  24   14.82    2.81
   3  -3  24   18.74    2.19
  -3  -3  25    1.51    1.68
   3  -3  25    1.88    1.08
  -3   3  25    3.10    1.76
  -3  -3  26   97.12    7.27
  -3   3  26  105.72    7.40
  -3  -3  27    8.88    2.96
  -3  -3  28   57.19    5.81
  -3  -3  29    6.18    2.35
  -3  -4   0   -0.61    0.69
   3  -4   0    0.25    0.59
   3   4  -1  206.08    5.72
  -3  -4  -1  195.35    5.85
   3  -4   1  189.90    6.13
   3  -4  -1  198.65    5.74
   3  -4   2  170.01    5.71
  -3  -4  -2  167.36    5.42
   3   4  -2  163.06    5.01
   3  -4  -2  166.38    5.32
  -3  -4  -3  224.68    6.65
   3   4  -3  224.12    6.01
   3  -4   3  224.30    6.81
   3  -4  -3  227.69    6.58
   3   4  -4   95.48    3.65
   3  -4   4   90.38    4.14
  -3  -4  -4   93.29    4.14
   3  -4  -4   97.23    3.74
   3  -4  -4   94.25    4.12
  -3  -4   5  117.78    4.86
   3  -4   5  126.28    5.01
  -3   4  -5  115.97    4.86
   3  -4  -5  123.06    4.21
   3  -4  -5  112.73    4.74
  -3  -4   6 1065.21   19.75
  -3   4  -6 1022.48   19.42
   3  -4  -6 1007.35   17.64
   3  -4  -6  997.56   19.45
  -3  -4   7  183.16    6.54
  -3   4  -7  172.03    6.22
   3  -4  -7  182.49    5.15
   3  -4  -7  181.76    6.49
  -3  -4   8   13.13    1.96
   3  -4  -8   13.94    1.83
  -3   4  -8   14.49    1.83
   3  -4  -8   13.05    1.27
  -3  -4   9  541.58   13.34
  -3   4  -9  550.80   12.87
   3  -4  -9  535.79   10.35
   3  -4  -9  552.64   13.34
   3   4  -9  543.43   10.63
  -3  -4  10  170.92    6.82
  -3   4 -10  169.83    6.57
   3   4 -10  172.90    4.77
   3  -4 -10  179.17    6.97
  -3  -4  11  580.28   14.34
  -3   4 -11  568.17   13.75
   3   4 -11  586.11   10.69
   3  -4 -11  606.88   14.55
  -3  -4 -11  548.89   10.62
   3  -4  12   85.18    3.15
  -3  -4  12   82.18    4.90
   3  -4 -12   82.31    4.86
  -3   4 -12   84.96    4.65
   3   4 -12   87.41    2.94
  -3  -4 -12   78.49    3.05
  -3   4  12   83.08    4.97
   3  -4  13  326.81    7.37
  -3  -4  13  335.88   10.62
   3  -4 -13  332.71   10.54
  -3   4 -13  319.99    9.97
   3   4 -13  327.45    6.62
  -3  -4 -13  315.16    7.33
  -3   4  13  314.55   10.30
  -3   4 -14   23.62    2.60
  -3  -4  14   22.06    2.82
   3  -4 -14   15.33    2.22
   3  -4  14   19.65    1.58
  -3  -4 -14   20.66    1.67
  -3   4  14   18.70    2.64
   3  -4  15  286.58    7.12
  -3  -4  15  296.34   10.36
  -3  -4 -15  269.99    6.97
  -3   4  15  285.95   10.17
   3  -4  16  143.27    4.83
  -3  -4  16  141.92    7.14
  -3  -4 -16  134.04    4.72
  -3   4  16  139.12    7.10
   3  -4  17   13.55    1.52
  -3  -4  17   13.01    2.28
  -3  -4 -17   12.21    1.48
  -3   4  17   14.13    2.71
   3  -4  18    0.61    0.66
  -3  -4 -18    0.34    0.73
  -3  -4  18    0.21    1.32
  -3   4  18    0.68    1.55
  -3  -4 -19  322.11    8.59
  -3  -4  19  316.91   11.73
   3  -4  19  331.56    8.68
  -3   4  19  313.64   11.77
  -3  -4  20    6.22    2.07
   3  -4  20    5.87    1.33
  -3  -4 -20    7.42    1.25
  -3  -4  21   57.89    5.07
  -3  -4 -21   57.84    3.50
   3  -4  21   66.31    3.75
  -3  -4 -22    4.02    1.16
   3  -4  22    2.81    1.19
  -3  -4  22    1.84    1.98
  -3  -4  23  157.35    8.71
   3  -4  23  148.67    6.03
  -3  -4  24   14.45    2.99
   3  -4  24   16.06    2.08
  -3  -4  25   83.38    6.69
   3  -4  25   92.34    4.90
  -3  -4  26    1.82    1.74
  -3  -4  27   13.26    3.06
  -3  -4  28   59.25    5.92
  -3  -4  29   56.16    5.86
  -3  -5   0    2.01    0.80
  -3  -5   1   69.52    3.10
   3  -5   1   65.36    3.51
  -3  -5  -1   65.32    3.18
   3   5  -2  333.33    7.71
   3  -5   2  332.40    8.74
  -3  -5  -2  337.79    8.35
   3  -5  -2  351.73    8.69
   3  -5  -2  327.77    8.46
  -3  -5  -3  290.94    7.79
   3  -5   3  281.55    7.96
   3   5  -3  287.62    6.95
   3  -5  -3  292.74    7.69
   3  -5  -3  295.55    8.06
   3  -5   4  169.15    5.94
   3   5  -4  181.81    5.15
  -3  -5  -4  171.26    5.88
   3  -5  -4  183.36    5.80
   3  -5  -4  185.07    6.22
   3   5  -5 1514.80   24.36
   3  -5   5 1500.28   26.16
   3  -5  -5 1511.86   25.20
   3  -5  -5 1496.18   26.48
   3  -5   6  239.75    7.40
  -3   5  -6  239.68    7.44
   3  -5  -6  261.86    6.86
   3  -5  -6  239.13    7.65
  -3  -5   7   11.65    1.76
  -3   5  -7   12.24    1.73
   3  -5  -7   14.02    1.49
   3  -5  -7   14.46    1.90
  -3  -5   8   58.20    3.80
  -3   5  -8   55.85    3.45
   3  -5  -8   58.35    2.90
   3  -5  -8   61.22    3.80
  -3  -5   9  140.65    6.14
  -3   5  -9  147.17    5.83
   3  -5  -9  135.52    4.50
   3   5  -9  142.83    4.74
   3  -5  -9  145.40    6.16
  -3  -5  10  143.39    6.31
  -3   5 -10  134.01    5.74
   3   5 -10  144.75    4.69
   3  -5 -10  145.65    6.28
  -3  -5  11  475.14   12.94
  -3   5 -11  469.97   12.23
   3   5 -11  488.49   10.03
   3  -5 -11  489.50   13.08
   3  -5 -12   20.86    2.55
  -3  -5  12   18.33    2.40
  -3   5 -12   20.18    2.29
   3   5 -12   20.15    1.64
  -3  -5 -12   18.67    1.58
  -3  -5  13   74.29    4.87
  -3   5 -13   71.94    4.39
   3   5 -13   67.51    2.87
   3  -5 -13   79.03    4.89
  -3  -5 -13   74.68    3.27
  -3   5 -14  502.67   13.25
   3  -5 -14  525.52   14.27
  -3  -5  14  480.11   13.84
   3  -5  14  501.38   10.61
  -3  -5 -14  491.50   10.60
  -3   5 -15  664.86   16.13
   3  -5  15  675.09   13.25
  -3  -5  15  634.52   16.82
  -3  -5 -15  646.43   13.15
  -3   5 -16  250.18    9.22
  -3  -5  16  262.08   10.02
   3  -5  16  252.97    7.08
  -3  -5 -16  254.53    7.14
  -3   5 -17   93.90    5.53
  -3  -5  17   91.57    5.89
   3  -5  17   90.86    4.05
  -3  -5 -17   86.10    3.96
  -3  -5 -18  356.12    9.30
  -3  -5  18  364.06   12.66
   3  -5  18  370.06    9.42
  -3  -5  19  270.41   10.87
  -3  -5 -19  260.45    7.85
   3  -5  19  266.33    7.88
  -3  -5 -20  108.94    4.88
   3  -5  20  110.04    4.88
  -3  -5  20  112.86    7.03
  -3  -5  21   34.77    4.01
  -3  -5 -21   33.95    2.80
   3  -5  21   33.37    2.74
  -3  -5  22   -0.22    1.58
  -3  -5 -22    0.37    0.92
   3  -5  22    1.57    1.17
  -3  -5  23   92.95    6.72
   3  -5  23   91.13    4.80
   3  -5  24  148.78    6.33
  -3  -5  24  142.86    8.58
   3  -5  25  277.83    9.14
  -3  -5  25  269.06   12.21
  -3  -5  26   49.46    5.42
  -3  -5  27    8.78    3.01
  -3  -5  28   91.95    7.43
  -3  -6   0    0.04    0.66
   3  -6   0   -0.75    0.83
   3  -6   1    6.44    1.45
  -3  -6   1    5.31    0.99
  -3  -6  -1    4.78    0.96
   3  -6  -1    6.06    1.46
   3  -6   1    5.08    1.16
  -3  -6  -2  609.89   12.54
   3  -6   2  592.16   13.13
   3  -6  -2  631.11   13.41
   3  -6   3   52.19    3.19
   3   6  -3   52.33    2.50
  -3  -6  -3   52.03    3.00
   3  -6  -3   51.58    3.10
   3  -6   4    1.16    0.85
   3   6  -4   -1.06    0.78
   3  -6  -4    2.60    1.05
   3  -6  -4    1.01    0.76
   3   6  -5  298.10    6.90
   3  -6   5  283.97    8.23
   3  -6  -5  296.24    8.03
   3  -6  -5  297.41    8.72
   3  -6   6   59.12    3.40
   3   6  -6   60.81    2.74
   3  -6  -6   62.58    3.26
   3  -6  -6   68.38    3.92
  -3   6  -7   48.21    3.17
   3  -6  -7   44.05    2.74
   3  -6  -7   47.89    3.41
  -3   6  -8  684.33   15.07
   3  -6  -8  697.25   14.03
   3  -6  -8  713.21   16.12
   3   6  -8  729.35   14.42
  -3  -6   9  535.31   13.68
  -3   6  -9  534.93   12.76
   3   6  -9  550.77   11.79
   3  -6  -9  556.92   13.83
   3  -6  -9  525.06   11.45
  -3   6 -10   26.69    2.52
  -3  -6  10   28.78    2.85
   3   6 -10   31.95    2.33
   3  -6 -10   34.93    3.13
  -3  -6  11   55.40    4.10
  -3   6 -11   53.98    3.67
   3   6 -11   55.67    2.99
   3  -6 -11   59.22    4.14
  -3  -6  12  692.89   16.98
  -3   6 -12  685.15   15.81
   3   6 -12  706.81   13.74
   3  -6 -12  701.66   17.01
  -3  -6  13   51.85    4.15
  -3   6 -13   58.35    3.95
   3   6 -13   58.66    2.94
  -3  -6 -13   55.16    2.99
   3  -6 -13   61.29    4.37
  -3  -6  14  102.98    5.94
  -3   6 -14  100.39    5.29
   3   6 -14  108.49    4.00
  -3  -6 -14   96.94    4.13
  -3   6 -15  228.19    8.44
   3  -6  15  221.14    6.70
  -3  -6  15  208.97    8.83
  -3  -6 -15  222.65    6.73
  -3   6 -16  230.30    8.68
   3  -6  16  241.48    7.12
  -3  -6  16  235.03    9.54
  -3  -6 -16  222.39    6.92
  -3   6 -17   28.43    3.07
   3  -6  17   27.03    2.31
  -3  -6  17   28.82    3.52
  -3  -6 -17   25.51    2.24
  -3  -6  18  162.80    8.29
   3  -6  18  179.47    6.27
  -3  -6 -18  174.87    6.26
   3  -6  19    0.09    1.02
  -3  -6 -19    1.87    0.88
  -3  -6  19    2.50    1.98
  -3  -6 -20    3.30    1.23
   3  -6  20    4.97    1.37
  -3  -6  20    3.76    2.04
   3  -6  21    1.08    0.91
  -3  -6  21    4.49    1.78
  -3  -6 -21    3.97    1.06
  -3  -6  22  196.97    9.84
   3  -6  22  192.96    7.18
  -3  -6  23   -0.73    1.89
   3  -6  23    0.03    1.03
  -3  -6  24   11.12    2.80
   3  -6  24   14.66    2.12
  -3  -6  25   21.35    3.71
   3  -6  25   18.57    2.45
  -3  -6  26   87.13    7.00
  -3  -6  27   10.67    2.75
  -3  -6  28   19.53    3.71
  -3  -7   0   -0.29    0.64
   3  -7   0    2.81    1.33
  -3  -7   1  864.08   15.59
  -3  -7  -1  846.20   16.02
   3  -7   1  864.02   17.26
   3  -7   1  903.07   18.22
   3  -7  -1  925.74   18.17
  -3  -7  -2  471.84   10.57
   3  -7   2  467.13   11.25
   3  -7   2  508.58   12.39
   3  -7  -2  490.85   11.79
   3  -7   3  127.64    5.15
  -3  -7  -3  118.67    4.68
   3  -7  -3  128.83    5.37
   3  -7   3  129.07    5.67
   3  -7   4  411.01   10.36
   3   7  -4  411.57    8.58
   3  -7   4  442.70   11.61
   3  -7  -4  423.45   10.67
   3  -7   5   53.58    3.28
   3   7  -5   52.96    2.42
   3  -7  -5   54.22    3.28
   3  -7  -5   56.44    3.63
   3  -7   6    3.06    1.06
   3   7  -6    3.34    0.76
   3  -7  -6    1.75    0.94
   3  -7  -6    2.99    1.12
   3   7  -7  455.23    9.19
   3  -7  -7  452.73   10.91
   3  -7  -7  470.36   12.33
   3   7  -8   33.42    1.97
  -3   7  -8   35.84    2.81
   3  -7  -8   35.32    2.56
   3  -7  -8   36.89    3.17
   3   7  -8   38.78    2.78
  -3   7  -9  118.27    5.19
   3   7  -9  119.99    4.93
   3  -7  -9  107.28    4.56
   3  -7  -9  117.65    5.80
  -3   7 -10    4.16    1.19
   3  -7 -10    3.31    1.10
   3   7 -10    3.00    0.98
  -3  -7  11  722.72   17.49
  -3   7 -11  732.32   16.19
   3   7 -11  729.79   14.89
   3  -7 -11  740.67   17.59
  -3  -7  12  318.69   10.83
  -3   7 -12  342.63   10.05
   3   7 -12  339.50    8.84
   3  -7 -12  345.96   11.12
  -3  -7  13  361.92   11.75
  -3   7 -13  360.39   10.67
   3   7 -13  367.76    9.22
  -3  -7  14   15.95    2.60
  -3   7 -14   14.74    2.16
   3   7 -14   14.86    1.67
  -3  -7 -14   14.00    1.67
  -3   7 -15  385.39   11.34
  -3  -7  15  360.77   12.23
  -3  -7 -15  367.88    9.63
  -3   7 -16   23.17    2.71
   3  -7  16   20.72    2.20
  -3  -7  16   17.41    2.74
  -3  -7 -16   19.03    2.02
  -3   7 -17    7.63    1.85
   3  -7  17    6.92    1.25
  -3  -7  17    5.86    1.83
  -3  -7 -17   10.81    1.64
   3  -7  18   35.43    2.80
  -3  -7  18   42.42    4.11
  -3  -7 -18   39.46    2.97
  -3  -7  19  267.77   11.10
   3  -7  19  277.20    8.53
  -3  -7 -19  261.85    8.40
  -3  -7 -20   26.49    2.61
  -3  -7  20   32.92    4.04
   3  -7  20   30.54    2.80
   3  -7  21  204.77    7.52
  -3  -7 -21  203.69    7.50
  -3  -7  21  191.92    9.73
  -3  -7  22   47.28    5.04
   3  -7  22   55.85    3.89
   3  -7  23  167.75    7.02
  -3  -7  23  167.89    9.36
   3  -7  24    5.72    1.60
  -3  -7  24    5.27    2.43
  -3  -7  25   48.27    5.29
   3  -7  25   44.18    3.64
  -3  -7  26   16.85    3.69
  -3  -7  27   18.18    3.63
  -3  -8   0    0.41    0.56
   3  -8   0    0.88    0.98
  -3  -8  -1  202.32    6.01
  -3  -8   1  207.72    5.63
   3  -8  -1  223.97    7.66
   3  -8   1  233.85    7.93
  -3  -8  -2  194.30    5.98
   3  -8   2  191.28    6.55
   3  -8  -2  194.19    7.10
   3  -8   2  205.03    7.50
   3  -8   3   54.34    3.37
   3  -8  -3   57.26    3.65
   3  -8   3   68.42    4.18
   3  -8   4   30.71    2.56
   3  -8   4   27.30    2.73
   3  -8  -4   30.95    2.68
   3  -8   5   28.34    2.41
   3  -8  -5   29.54    2.59
   3  -8   5   33.10    3.14
   3  -8   6   44.41    3.06
   3   8  -6   51.46    2.26
   3  -8   6   58.18    4.09
   3  -8  -6   48.58    3.28
   3  -8  -6   52.32    3.69
   3   8  -7    0.61    0.47
   3  -8   7    2.49    1.24
   3  -8  -7    1.76    0.99
   3  -8  -7    0.34    0.83
   3   8  -7    0.78    1.00
   3   8  -8  468.95    9.17
   3   8  -8  463.91   11.69
   3  -8   8  502.49   13.45
   3  -8  -8  479.96   13.02
   3  -8  -8  448.80   11.42
  -3   8  -9   -1.16    1.03
   3   8  -9    0.73    0.55
   3  -8   9    2.50    1.42
   3  -8  -9    0.99    1.13
   3   8  -9    0.05    0.87
  -3   8 -10   51.62    3.47
   3   8 -10   56.26    3.48
   3  -8  10   57.85    4.30
   3  -8 -10   55.12    4.06
  -3   8 -11    9.32    1.54
   3   8 -11    9.05    1.60
   3  -8  11    8.30    1.83
   3  -8 -11    8.63    1.79
  -3  -8  12  300.24   10.54
   3   8 -12  302.56    8.69
  -3   8 -12  297.12    9.23
   3   8 -13   22.66    2.23
  -3  -8  13   22.06    3.07
  -3   8 -13   21.97    2.42
  -3  -8  14   90.94    5.80
  -3   8 -14   87.24    4.96
   3   8 -14   94.71    4.37
  -3  -8  15    0.11    1.51
  -3   8 -15    0.31    0.92
   3   8 -15    1.74    0.96
  -3  -8 -15    0.58    0.75
  -3   8 -16   21.39    2.59
  -3  -8  16   20.26    3.03
  -3  -8 -16   20.45    2.20
  -3   8 -17   66.03    4.55
  -3  -8  17   65.31    5.24
  -3  -8 -17   63.35    3.87
  -3   8 -18  156.75    7.34
  -3  -8  18  170.58    8.57
   3  -8  18  166.83    6.54
  -3  -8 -18  164.90    6.56
   3  -8  19   34.15    2.97
  -3  -8  19   35.11    4.09
  -3  -8 -19   37.62    3.11
  -3  -8 -20    9.44    1.92
  -3  -8  20   11.56    2.72
   3  -8  20    8.74    1.70
  -3  -8  21    1.63    1.66
   3  -8  21    2.96    1.26
  -3  -8 -21    3.42    1.31
  -3  -8  22  111.32    7.57
   3  -8  22  118.71    5.90
  -3  -8  23   22.65    3.87
   3  -8  23   25.15    2.83
  -3  -8  24   -1.67    2.13
   3  -8  24    0.10    1.14
  -3  -8  25  112.39    7.97
  -3  -8  26   47.25    5.33
  -3  -8  27    5.94    2.92
  -3  -9   0    0.37    0.58
   3  -9   0    0.54    0.89
  -3  -9  -1   13.69    1.48
  -3  -9   1   13.62    1.32
   3  -9  -1   20.12    2.41
   3  -9   1   18.13    2.21
  -3  -9  -2   15.18    1.67
   3  -9   2   18.03    2.07
   3  -9  -2   17.76    2.24
   3  -9   2   18.00    2.30
   3  -9   3    9.21    1.48
   3  -9   3   13.79    2.10
   3  -9  -3   11.90    1.92
   3  -9   4  245.45    7.72
   3  -9  -4  267.30    8.67
   3  -9   4  263.78    9.23
   3  -9   5   36.59    2.87
   3  -9   5   44.44    3.69
   3  -9  -5   42.68    3.31
   3  -9   6  547.99   12.90
   3  -9  -6  580.29   13.94
   3  -9   6  592.01   15.11
   3   9  -6  573.13   14.09
   3  -9   7   91.22    4.48
   3  -9   7   95.49    5.41
   3   9  -7   99.01    5.08
   3  -9  -7   89.15    4.70
   3  -9  -7   99.24    5.37
   3   9  -8  156.65    4.05
   3  -9   8  165.52    7.41
   3   9  -8  148.68    6.35
   3  -9  -8  164.65    7.20
   3  -9  -8  149.06    6.16
   3   9  -9   84.68    2.86
   3  -9   9   81.02    5.18
   3   9  -9   80.72    4.53
   3  -9  -9   85.30    5.21
   3   9 -10   75.56    4.26
  -3   9  10   69.37    4.02
   3  -9  10   80.90    5.27
   3   9 -10   80.53    2.86
  -3   9  11  106.45    4.93
   3   9 -11  110.63    5.20
   3   9 -11  110.33    3.56
  -3   9 -11  108.46    5.16
   3   9 -12  184.65    6.88
  -3   9  12  168.16    6.40
  -3   9 -12  190.90    7.09
  -3   9  13   54.88    3.50
   3   9 -13   61.47    3.79
  -3  -9  13   63.73    4.88
  -3   9 -13   55.25    3.81
  -3  -9  14  310.10   11.33
  -3   9 -14  309.50    9.72
  -3   9  14  291.32    8.70
   3   9 -14  312.68    9.11
  -3   9 -15   13.97    2.13
  -3  -9  15   14.06    2.70
  -3   9  15   16.90    1.93
   3   9 -15   15.60    1.96
  -3  -9 -15   17.79    2.18
  -3  -9  16  423.16   13.91
  -3   9 -16  403.53   11.85
  -3   9  16  394.19   10.28
  -3  -9 -16  402.06   11.13
  -3  -9  17   27.56    3.55
  -3   9 -17   32.00    3.12
  -3   9  17   26.74    2.32
  -3  -9 -17   30.68    2.84
  -3  -9  18  242.64   10.73
  -3   9 -18  242.12    9.17
  -3   9  18  238.06    7.37
  -3  -9 -18  239.23    8.41
  -3  -9  19  100.47    6.87
   3  -9  19   89.90    5.01
  -3   9  19   91.66    4.20
  -3  -9 -19   87.15    4.92
   3  -9  20   89.66    5.10
  -3  -9  20   85.68    6.49
  -3  -9 -20   87.22    5.00
   3  -9  21   71.33    4.63
  -3  -9  21   68.06    5.90
   3  -9  22   51.68    4.02
  -3  -9  22   49.14    5.22
  -3  -9  23  179.93   10.04
   3  -9  23  190.25    7.91
  -3  -9  24  105.52    7.83
   3  -9  24  110.84    6.07
  -3  -9  25    1.07    1.69
  -3  -9  26  141.65    9.20
  -3 -10   0    0.59    0.61
   3 -10   0    1.73    1.41
  -3 -10  -1   59.23    3.01
  -3 -10   1   61.04    2.75
   3 -10   1   67.79    4.58
   3 -10  -1   59.62    4.17
  -3 -10  -2  148.60    5.23
   3 -10   2  154.57    5.99
   3 -10   2  165.52    7.31
   3 -10  -2  162.12    6.97
   3 -10   3    3.66    1.18
   3 -10   3    3.14    1.32
   3 -10  -3    3.96    1.29
   3 -10   4    1.91    0.96
   3 -10   4    2.37    1.33
   3 -10  -4    6.09    1.70
   3 -10   5  222.05    7.36
   3 -10  -5  241.07    8.56
   3 -10   5  239.84    9.15
   3  10  -5  232.85    8.53
   3 -10   6   97.62    4.66
   3 -10   6  108.69    6.04
   3 -10  -6  110.08    5.56
   3  10  -6  111.59    5.66
   3 -10   7   -1.42    1.25
   3  10  -7   -0.16    1.18
   3 -10  -7    0.75    0.83
  -3  10   8   17.12    2.20
   3 -10  -8   19.09    2.50
   3  10  -8   25.36    2.68
   3  10  -9  317.59    9.92
  -3  10   9  286.76    9.27
  -3  10  10   59.21    4.01
   3  10 -10   61.60    4.12
   3  10 -10   65.37    2.21
   3  10 -11    0.79    1.06
  -3  10  11    1.20    0.97
   3  10 -11    1.38    0.47
   3  10 -12   10.85    1.94
  -3  10  12   10.39    1.85
   3  10 -12   11.63    1.03
   3  10 -13    1.07    0.94
  -3  10  13    3.36    1.19
   3  10 -13    2.34    0.66
  -3  10 -13    0.55    0.91
  -3  10  14   64.08    4.02
   3  10 -14   63.32    4.06
  -3  10 -14   69.25    4.27
  -3 -10  15  286.72   11.33
  -3  10 -15  301.91    9.62
  -3  10  15  268.21    8.72
   3  10 -15  296.01    9.21
  -3 -10  16   12.17    2.66
  -3  10 -16    9.92    1.80
   3  10 -16   10.86    1.85
  -3  10  16   11.45    1.77
  -3 -10 -16    8.97    1.88
  -3 -10  17    9.27    2.40
  -3  10 -17    7.96    1.59
  -3  10  17   12.12    1.78
  -3 -10 -17    9.03    1.77
  -3 -10  18    1.30    1.53
  -3  10 -18   -0.21    0.97
  -3  10  18    2.94    1.09
  -3 -10 -18    0.30    1.01
  -3 -10  19   66.72    5.74
  -3  10  19   63.30    3.75
  -3 -10 -19   63.71    4.38
  -3 -10  20    3.64    2.15
  -3  10  20    1.98    1.04
   3 -10  20    3.60    1.62
  -3 -10  21    1.21    1.66
   3 -10  21    3.43    1.44
   3 -10  22   27.10    3.10
  -3 -10  22   26.37    4.00
   3 -10  23    1.92    1.33
  -3 -10  23    5.89    2.25
  -3 -10  24   -0.76    1.96
   3 -10  24    4.04    1.77
  -3 -10  25   21.25    3.78
  -3 -11   0    0.14    0.55
   3 -11   0    2.68    1.42
  -3 -11  -1  482.53   10.50
  -3 -11   1  467.23    9.70
   3 -11  -1  502.65   13.89
   3 -11   1  507.59   14.09
  -3 -11  -2    8.45    1.31
   3 -11   2    9.87    1.89
   3 -11   2   13.42    2.39
   3 -11  -2    9.19    1.97
   3 -11   3  423.28   11.10
   3 -11   3  469.08   13.68
   3 -11  -3  456.08   13.05
   3 -11   4  230.90    7.65
   3 -11   4  251.98    9.71
   3 -11  -4  252.67    9.23
   3  11  -4  248.38    9.23
   3 -11   5   86.83    4.45
   3 -11  -5   95.41    5.43
   3  11  -5   90.53    5.44
   3 -11   6  466.37   11.71
   3  11  -6  466.45   13.33
   3 -11  -6  489.93   13.47
   3 -11   7   19.73    2.19
  -3  11   7   17.75    2.36
   3  11  -7   24.28    2.88
   3 -11  -7   23.65    2.78
  -3  11   8  310.50   10.09
   3  11  -8  338.00   10.76
   3  11  -9   39.54    3.51
  -3  11   9   34.31    3.30
  -3  11  10   38.73    3.28
   3  11 -10   40.95    3.45
   3  11 -11  156.30    6.96
  -3  11  11  145.31    6.53
   3  11 -12  161.16    7.06
  -3  11  12  146.90    6.66
  -3  11  13   91.46    5.18
   3  11 -13   95.62    5.37
   3  11 -13  101.65    2.70
  -3  11  14  137.01    6.35
   3  11 -14  139.76    6.47
   3  11 -14  152.40    3.80
  -3  11  15   61.89    4.20
   3  11 -15   76.18    4.59
   3  11 -15   74.55    2.67
  -3  11 -15   75.65    4.59
  -3 -11  16   68.74    5.67
  -3  11 -16   68.26    4.40
   3  11 -16   67.39    4.41
  -3  11  16   64.41    4.19
  -3 -11  17   11.54    2.77
  -3  11 -17   10.75    1.90
  -3  11  17    9.30    1.66
  -3 -11 -17   10.07    1.95
  -3 -11  18   84.84    6.50
  -3  11 -18   85.28    5.16
  -3  11  18   76.89    4.54
  -3 -11 -18   86.99    5.34
  -3 -11  19   42.80    4.81
  -3  11  19   40.12    3.23
  -3 -11  20   -0.38    1.86
  -3  11  20    1.00    0.93
   3 -11  20   -0.62    1.29
   3 -11  21  173.14    7.75
  -3 -11  21  175.71    9.84
   3 -11  22  133.71    6.93
  -3 -11  22  130.30    8.54
  -3 -11  23   82.84    6.90
   3 -11  23   67.70    5.03
   3 -11  24   25.85    3.15
  -3 -11  24   31.92    4.40
  -3 -12   0   -0.17    0.58
   3 -12   0    0.58    1.06
  -3 -12   1   23.17    1.67
  -3 -12  -1   24.32    1.94
   3 -12  -1   19.82    2.69
  -3 -12  -2   46.44    2.85
   3 -12   2   51.20    3.44
   3 -12  -2   51.21    4.16
   3 -12   3   87.12    4.52
   3 -12  -3   94.80    5.70
   3  12  -3   85.86    5.57
   3 -12   4   53.42    3.52
   3 -12  -4   59.97    4.51
   3  12  -4   64.21    4.79
   3 -12   5    4.24    1.39
   3  12  -5    4.89    1.88
   3 -12  -5    5.70    1.59
   3 -12   6   42.34    3.14
   3  12  -6   46.87    4.05
   3 -12  -6   52.51    4.22
   3 -12   7    3.19    1.10
  -3  12   7    1.31    1.25
   3  12  -7    0.13    1.34
   3  12  -8  160.12    7.42
  -3  12   8  152.77    7.08
  -3  12   9  267.32    9.61
   3  12  -9  282.76   10.05
   3  12 -10    1.73    1.27
  -3  12  10    2.99    1.37
   3  12 -11    1.36    1.29
  -3  12  11    1.83    1.19
   3  12 -12  126.46    6.50
  -3  12  12  128.69    6.44
   3  12 -13    3.03    1.60
  -3  12  13    3.44    1.38
  -3  12  14  166.35    7.39
   3  12 -14  188.53    7.90
  -3  12  15   87.91    5.26
   3  12 -15  109.94    5.90
   3  12 -16  187.43    7.78
  -3  12  16  165.33    7.28
  -3 -12  16  184.63    9.46
  -3  12  17    7.86    1.71
  -3 -12  17    9.80    2.68
  -3 -12  18   66.45    5.88
  -3  12  18   58.62    4.15
  -3  12  19    1.87    1.08
  -3 -12  19    0.40    1.65
  -3 -12  20    7.90    2.51
  -3  12  20    6.48    1.58
   3 -12  21   13.60    2.50
  -3 -12  21   17.06    3.52
   3 -12  22  100.60    6.18
  -3 -12  22   99.14    7.61
  -3 -12  23   -0.79    1.56
   3 -12  23    1.77    1.49
  -3 -13   0   -0.31    0.58
  -3 -13  -1  567.71   11.84
  -3 -13   1  579.47   10.94
  -3 -13  -2  293.99    7.97
   3 -13   2  306.21    9.28
   3  13  -2  309.72   11.42
   3 -13   3  360.26   10.20
   3  13  -3  368.98   12.58
   3 -13   4  127.92    5.60
   3  13  -4  134.06    7.17
   3 -13   5  124.92    5.55
   3  13  -5  134.11    7.09
   3 -13   6    4.36    1.27
  -3  13   6    4.39    1.39
   3  13  -6    6.51    2.00
   3 -13   7   47.24    3.33
  -3  13   7   40.97    3.81
   3  13  -7   49.57    4.42
  -3  13   8    4.59    1.57
   3  13  -8    8.62    2.00
  -3  13   9  288.74   10.52
   3  13  -9  303.84   10.92
   3  13 -10   12.17    2.39
  -3  13  10   10.34    2.22
   3  13 -11   43.90    4.06
  -3  13  11   37.35    3.62
   3  13 -12    7.71    1.94
  -3  13  12    7.33    1.87
  -3  13  13   68.05    4.89
   3  13 -13   77.97    5.27
   3  13 -14   10.59    2.29
  -3  13  14    6.49    1.71
  -3  13  15   38.22    3.62
   3  13 -15   46.34    4.07
  -3  13  16    3.89    1.54
   3  13 -16    5.02    1.64
  -3  13  17   22.93    2.86
  -3 -13  17   27.43    3.86
  -3  13  18    3.96    1.43
  -3 -13  18    8.31    2.77
  -3 -13  19  122.36    8.18
  -3  13  19  113.29    6.13
  -3 -13  20   -0.23    1.59
  -3 -13  21   62.09    6.06
   3 -13  22   17.27    2.72
  -3 -13  22   19.86    3.69
   3 -13  23   15.27    2.70
  -3 -14   0   -0.14    0.54
   3  14   0   -0.99    1.44
  -3 -14  -1  154.22    5.11
  -3 -14   1  154.39    4.39
   3 -14   1  147.25    6.36
   3  14  -1  163.05    8.38
  -3 -14  -2  107.88    4.38
   3 -14   2   93.35    4.96
   3  14  -2  109.62    6.82
   3 -14   3   52.56    3.60
   3  14  -3   48.28    4.52
   3 -14   4    2.12    1.10
   3  14  -4    2.20    1.58
   3 -14   5  135.16    5.85
   3  14  -5  144.85    7.75
   3 -14   6   74.09    4.22
  -3  14   6   62.41    4.92
   3  14  -6   72.79    5.47
  -3  14   7    0.59    1.46
   3  14  -7    2.24    1.64
  -3  14   8  289.06   10.90
   3  14  -8  310.91   11.48
  -3  14   9   95.21    6.12
   3  14  -9  105.56    6.52
   3  14 -10   67.15    5.13
  -3  14  10   58.58    4.78
   3  14 -11    5.77    1.94
  -3  14  11    3.46    1.70
   3  14 -12  162.41    8.01
  -3  14  12  141.07    7.40
   3  14 -13    6.21    2.00
  -3  14  13    7.42    1.86
  -3  14  14   78.73    5.50
   3  14 -14  102.47    6.29
  -3  14  15    0.67    1.22
   3  14 -15    4.26    1.70
   3  14 -16   84.65    5.63
  -3  14  16   77.23    5.39
  -3  14  17   -1.83    1.23
  -3 -14  18  186.66   10.23
  -3  14  18  157.54    7.70
  -3  14  19    0.98    1.12
  -3 -14  19    3.68    2.15
  -3 -14  20   40.59    4.95
  -3 -14  21    4.24    2.45
   3 -14  22   41.86    4.34
  -3 -15   0    0.01    0.53
   3  15   0   -0.75    1.75
  -3 -15  -1   29.54    2.13
   3 -15   1   25.26    2.73
   3  15  -1   28.28    3.77
   3  15   1   24.48    3.57
   3 -15   2  108.83    5.40
  -3 -15  -2  109.34    4.43
   3  15  -2  110.80    7.19
   3  15   2  115.53    7.43
   3 -15   3   83.34    4.62
   3  15  -3   82.93    6.18
   3 -15   4  165.05    6.66
   3  15  -4  174.32    8.87
   3 -15   5  797.37   17.26
   3  15  -5  795.49   21.11
   3 -15   6   24.02    2.52
  -3  15   6   19.62    3.00
   3  15  -6   21.49    3.27
   3  15  -7   40.00    4.18
  -3  15   7   26.91    3.47
  -3  15   8   81.49    5.77
   3  15  -8   92.50    6.29
  -3  15   9  160.33    8.23
   3  15  -9  181.06    8.89
   3  15 -10    0.38    1.54
  -3  15  10    0.80    1.44
   3  15 -11    0.35    1.47
  -3  15  11   -0.49    1.26
   3  15 -12   28.69    3.62
  -3  15  12   24.75    3.20
   3  15 -13   -0.73    1.52
  -3  15  13    0.53    1.44
  -3  15  14  270.32   10.98
   3  15 -14  326.09   11.94
  -3  15  15  152.75    8.01
   3  15 -15  184.97    8.78
   3  15 -16  168.66    8.39
  -3  15  16  141.59    7.66
  -3  15  17   -1.64    1.71
  -3  15  18  191.98    8.88
  -3 -15  19   77.87    6.96
  -3  15  19   71.07    5.32
  -3 -15  20    3.39    1.89
  -3 -16   0   -1.33    0.65
   3  16   0   -0.13    1.63
  -3 -16  -1  134.67    4.62
   3 -16   1  128.74    6.13
   3  16  -1  142.07    8.38
   3  16   1  132.21    8.22
   3 -16   2   90.41    4.99
  -3 -16  -2   92.55    4.02
   3  16  -2   91.91    6.84
   3  16   2   95.52    7.02
   3 -16   3   17.37    2.17
  -3 -16  -3   20.36    2.04
   3  16  -3   21.21    3.46
   3  16   3   15.55    3.23
   3 -16   4   18.17    2.24
   3  16  -4   18.49    3.22
   3  16   4   18.16    3.20
   3 -16   5  198.67    7.35
   3  16  -5  198.48    9.90
   3 -16   6   73.55    4.28
   3  16  -6   77.19    6.01
  -3  16   6   73.97    5.78
  -3  16   7   47.17    4.68
   3  16  -7   52.06    5.02
   3  16  -8   57.25    5.30
  -3  16   8   48.50    4.60
   3  16  -9  174.13    9.15
  -3  16   9  163.45    8.59
   3  16 -10   42.29    4.51
  -3  16  10   35.14    4.03
  -3  16  11   41.58    4.38
   3  16 -11   42.40    4.44
   3  16 -12   12.18    2.78
  -3  16  12   11.79    2.63
   3  16 -13    0.04    1.37
  -3  16  13   -1.16    1.54
   3  16 -14   -1.13    1.60
  -3  16  14   -0.10    1.73
  -3  16  15  165.94    8.72
   3  16 -15  196.85    9.39
   3  16 -16    0.41    1.42
  -3  16  16    1.93    1.67
  -3  16  17    4.45    1.78
  -3  16  18    4.37    1.78
   3 -17   0    1.34    1.24
   3  17   0    3.04    2.02
   3 -17   1    5.19    1.60
   3  17  -1    4.39    2.24
   3  17   1   11.94    3.11
   3 -17   2  365.34   10.91
   3  17  -2  355.82   14.12
   3  17   2  372.79   14.61
   3 -17   3    2.30    1.25
   3  17  -3    3.79    2.28
   3  17   3    1.39    2.06
   3 -17   4   45.61    3.49
   3  17  -4   58.13    5.46
   3  17   4   48.66    5.27
   3 -17   5    9.85    1.80
   3  17  -5   12.09    2.85
   3  17   5    9.70    2.65
   3 -17   6   20.32    2.37
  -3  17   6   20.48    3.51
   3  17  -6   24.42    3.71
   3  17   6   26.25    4.19
   3  17  -7   33.30    4.28
  -3  17   7   38.35    4.53
   3  17  -8  399.33   14.70
  -3  17   8  368.37   13.87
   3  17  -9   -0.18    1.61
  -3  17   9    3.39    2.04
   3  17 -10    0.30    1.70
  -3  17  10   -3.27    1.97
   3  17 -11    4.96    2.23
  -3  17  11    9.82    2.77
  -3  17  12  320.42   12.92
   3  17 -12  371.09   13.91
   3  17 -13   32.56    4.18
  -3  17  13   26.51    3.82
   3  17 -14    3.80    1.85
  -3  17  14    0.20    1.63
  -3  17  15    5.77    1.83
   3  17 -15   11.76    2.61
   3  17 -16   18.82    3.29
  -3  17  16   18.37    3.18
  -3  17  17   -2.24    1.89
  -3  17  18  132.91    7.95
   3 -18   0   -0.40    1.18
   3  18   0    3.55    2.43
   3 -18   1   52.27    3.91
   3  18  -1   56.69    5.80
   3  18   1   54.54    5.69
   3 -18   2   23.29    2.67
   3  18  -2   23.41    3.84
   3  18   2   23.43    3.89
   3 -18   3   48.56    3.63
   3  18  -3   50.28    5.45
   3  18   3   51.37    5.58
   3 -18   4    3.06    1.24
   3  18  -4    0.79    1.76
   3  18   4    3.95    2.74
   3 -18   5   11.62    1.98
   3  18  -5   12.65    2.93
   3  18   5   10.31    3.04
   3  18  -6    3.52    2.14
   3  18   6   -1.75    2.47
   3  18  -7   22.42    3.65
  -3  18   7   13.67    2.76
   3  18   7   17.03    3.55
   3  18  -8   24.82    3.91
  -3  18   8   21.48    3.58
   3  18   8   20.03    3.78
   3  18  -9  112.55    7.75
  -3  18   9   91.00    6.86
   3  18   9  109.86    8.30
  -3  18  10   23.87    3.71
   3  18 -10   20.58    3.53
   3  18  10   24.90    4.17
   3  18 -11   19.76    3.54
  -3  18  11   15.64    2.94
   3  18 -12    3.67    2.52
  -3  18  12    0.63    1.68
   3  18 -13   45.79    4.86
  -3  18  13   42.24    4.79
   3  18 -14   10.00    2.68
  -3  18  14    7.16    2.36
  -3  18  15   26.51    3.74
   3  18 -15   28.03    3.90
   3  18 -16   10.49    2.50
  -3  18  16    4.47    1.87
  -3  18  17    0.25    1.66
   3 -19   0   -1.27    1.29
   3  19   0    0.28    1.93
   3 -19   1   42.61    3.64
   3 -19  -1   40.44    3.63
   3  19  -1   49.16    5.54
   3  19   1   50.90    5.70
   3 -19   2  128.35    6.16
   3  19  -2  131.46    8.75
   3  19   2  136.20    9.09
   3 -19   3   40.69    3.38
   3  19  -3   35.34    4.63
   3  19   3   37.34    5.12
   3  19  -4    5.08    2.21
   3  19   4   13.38    3.70
   3  19   5  698.66   22.42
   3  19  -5  706.80   21.84
   3  19  -6    5.48    2.54
   3  19   6   -0.08    1.93
   3  19  -7    2.16    2.25
   3  19   7    2.02    2.19
   3  19  -8   55.67    5.79
  -3  19   8   67.15    6.14
   3  19   8   77.32    7.20
   3  19  -9  147.44    9.29
  -3  19   9  136.36    8.69
   3  19   9  149.09    9.96
   3  19 -10    2.79    1.95
  -3  19  10    1.99    1.76
   3  19  10    0.92    1.82
   3  19 -11   17.82    3.37
  -3  19  11   14.92    3.09
   3  19  11   20.35    3.80
  -3  19  12   84.92    6.78
   3  19 -12   91.26    7.29
   3  19  12   92.18    8.09
   3  19 -13   32.19    4.22
  -3  19  13   22.68    3.76
   3  19 -14    8.64    2.65
  -3  19  14    9.78    2.81
  -3  19  15  173.06    9.83
   3  19 -15  198.39   10.49
   3  19 -16   10.81    3.07
  -3  19  16    6.37    2.60
  -3  19  17   -0.65    2.06
   3  20   0   -3.09    2.47
   3  20   1   22.59    4.17
   3  20  -1   25.51    4.34
   3  20  -2   48.54    5.66
   3  20   2   61.11    6.26
   3  20  -3    1.61    2.12
   3  20   3    1.59    2.36
   3  20   4   92.61    7.90
   3  20  -4   82.51    7.18
   3  20  -5    2.51    2.31
   3  20   5    3.59    2.27
   3  20  -6   32.49    4.55
   3  20   6   39.19    5.39
   3  20  -7   22.87    4.13
   3  20   7   25.60    4.40
   3  20  -8   69.19    6.65
   3  20   8   80.72    7.50
  -3  20   9    1.00    1.87
   3  20  -9    4.12    2.37
   3  20 -10    8.59    2.79
  -3  20  10    6.02    2.27
   3  20 -11    5.59    2.44
  -3  20  11    3.56    1.94
   3  20 -12    7.11    2.43
  -3  20  12    6.23    2.43
   3  20 -13    7.51    2.60
  -3  20  13    5.07    2.84
  -3  20  14   31.40    4.38
   3  20 -14   42.94    5.03
  -3  20  15   15.47    3.12
   3  20 -15   22.09    3.78
  -3  20  16   63.56    6.04
   3  21   0    1.61    2.45
   3  21  -1  128.51    9.12
   3  21  -2   70.74    6.99
   3  21  -3   27.43    4.58
   3  21  -4   51.06    5.90
   3  21  -5  169.35   10.84
   3  21  -6    7.84    2.76
   3  21  -7    2.56    2.10
   3  21  -8   90.56    7.66
   3  21  -9   64.02    6.45
   3  21 -10   26.83    4.29
  -3  21  11   49.91    5.56
  -3  21  12   55.95    5.90
  -3  21  13    4.46    2.18
  -3  21  14    5.06    2.29
   4   0   0  283.92    8.33
   4   0   0  271.46    6.62
  -4   0   0  284.48    6.77
   4   0  -1   -0.45    1.02
   4   0   1   -0.16    1.10
   4   0  -1   -1.46    0.79
  -4   0   1    1.88    0.84
  -4   0  -1    0.16    0.57
   4   0   2   32.48    2.75
   4   0  -2   30.53    2.58
   4   0  -2   35.35    2.32
  -4   0  -2   32.83    1.74
  -4   0   2   38.52    2.41
  -4   0  -3    1.73    1.19
   4   0   3   -0.60    1.02
   4   0  -3    1.97    1.12
  -4   0   3   -0.24    0.92
  -4   0  -3    0.15    0.41
  -4   0  -4 1240.89   23.13
   4   0  -4 1190.91   21.73
  -4   0   4 1229.06   21.89
  -4   0  -5    4.58    1.49
   4   0  -5    0.05    1.00
  -4   0   5    2.40    1.27
  -4   0  -6  368.66   10.43
   4   0  -6  371.24    9.81
  -4   0   6  365.87    9.83
  -4   0  -7    1.33    1.18
   4   0  -7    2.22    1.11
  -4   0   7    3.86    1.68
  -4   0  -8 1535.79   28.51
   4   0  -8 1545.99   27.95
  -4   0   8 1528.22   27.89
  -4   0  -9    0.63    1.15
   4   0  -9    0.08    0.96
  -4   0   9    0.39    1.28
  -4   0 -10  157.33    6.88
   4   0 -10  174.72    7.00
  -4   0  10  150.04    6.56
  -4   0 -11    0.23    1.27
   4   0 -11   -1.22    1.06
  -4   0  11   -0.73    1.17
  -4   0 -12    5.03    1.39
   4   0 -12    3.46    1.29
  -4   0  12    5.05    1.48
   4   0 -13    0.65    0.98
  -4   0 -13    1.17    1.22
  -4   0  13    0.69    1.18
  -4   0  14  271.85    9.91
  -4   0  15   -1.18    1.34
  -4   0  16  126.22    6.81
  -4   0  17   -3.63    2.11
  -4   0  18  135.27    7.46
  -4   0  19   -0.47    1.83
  -4   0  20    1.59    1.69
  -4   0  21   -1.08    1.85
  -4   0  22  117.53    7.61
  -4   0  23   -4.73    2.58
  -4   0  24   54.70    5.48
  -4   0  25    0.47    1.93
  -4   0  26  338.10   14.31
  -4   0  27   -2.94    1.96
   4   1   0   49.09    3.23
   4  -1   0   46.98    3.31
   4  -1   0   45.32    2.41
  -4  -1   0   50.18    2.52
  -4   1   0   50.11    2.51
   4  -1   1   59.56    3.57
   4   1   1   64.20    3.65
   4  -1  -1   57.06    3.49
   4   1  -1   63.57    3.57
   4  -1  -1   60.04    2.93
  -4  -1   1   65.57    3.05
   4  -1   1   63.63    2.67
  -4   1  -1   61.80    2.65
  -4   1   1   64.88    3.03
  -4  -1  -1   60.61    2.61
  -4  -1  -2   59.32    3.56
   4  -1   2   59.04    3.59
   4  -1  -2   56.71    3.55
   4   1   2   55.91    3.52
   4   1  -2   55.56    3.31
   4  -1   2   52.86    2.33
   4  -1  -2   56.31    2.94
  -4  -1   2   60.28    3.07
  -4  -1  -2   58.00    2.41
  -4   1   2   63.42    3.14
   4   1   3  103.77    4.80
   4  -1   3   99.28    4.78
   4   1  -3  101.21    4.55
  -4   1  -3  105.67    4.91
  -4  -1  -3  103.72    4.80
   4  -1   3  101.90    3.02
   4  -1  -3  103.25    4.21
  -4  -1   3  109.14    4.37
  -4   1   3  103.74    4.24
  -4  -1  -3  104.93    3.09
   4  -1   4   76.41    4.23
  -4   1  -4   69.87    3.97
  -4  -1  -4   75.84    4.13
   4  -1  -4   76.42    3.72
  -4  -1   4   70.82    3.71
   4  -1   4   72.53    2.21
  -4  -1  -4   73.15    2.25
  -4   1   4   70.89    3.63
  -4   1  -5  301.54    9.13
  -4  -1  -5  298.59    9.03
   4   1  -5  298.41    8.39
  -4  -1   5  307.23    8.48
   4  -1  -5  297.95    8.42
  -4  -1  -5  298.49    5.24
  -4   1   5  302.88    8.44
  -4  -1  -6  128.03    5.66
  -4   1  -6  122.30    5.60
   4  -1  -6  119.43    5.14
  -4  -1   6  127.73    5.27
   4   1  -6  126.36    5.24
  -4   1   6  125.50    5.27
  -4  -1  -7    9.95    1.80
   4   1  -7   11.39    1.77
  -4   1  -7    7.28    1.52
  -4  -1   7    8.57    1.55
   4  -1  -7    7.96    1.38
  -4   1   7    9.70    1.58
  -4  -1  -8   10.12    1.76
   4   1  -8   10.38    1.75
  -4   1  -8   12.11    1.91
   4  -1  -8    9.48    1.67
  -4  -1   8   12.18    1.85
  -4   1   8   12.70    1.92
  -4   1  -9   62.81    4.16
  -4  -1  -9   57.15    3.97
   4   1  -9   57.07    3.77
   4  -1  -9   63.31    3.96
  -4  -1   9   59.71    3.91
  -4   1   9   55.29    3.69
   4   1 -10   56.85    3.91
   4  -1 -10   56.16    3.85
  -4  -1 -10   50.57    3.82
  -4   1 -10   55.15    3.92
   4  -1 -10   49.65    1.97
  -4  -1  10   50.58    3.78
  -4   1  10   46.20    3.58
   4  -1 -11   23.12    2.53
  -4  -1  11   29.67    2.96
   4   1 -11   29.04    2.92
  -4  -1 -11   25.67    2.76
  -4   1 -11   27.48    2.93
   4  -1 -11   25.28    1.19
  -4   1  11   23.96    2.69
   4   1 -12    5.84    1.42
  -4   1 -12    2.45    1.22
   4  -1 -12    4.27    1.44
  -4  -1  12    2.20    1.30
  -4   1  12    3.18    1.56
  -4   1 -13   53.01    4.15
   4   1 -13   55.16    4.17
   4  -1 -13   58.58    4.26
  -4  -1  13   46.41    3.86
  -4   1  13   50.53    4.01
  -4  -1  14   -1.09    1.57
  -4   1  14    0.92    1.22
  -4  -1  15  267.78   10.13
  -4   1  15  278.00   10.26
  -4  -1  16   20.50    2.98
  -4   1  16   21.96    2.99
  -4  -1  17   -1.92    1.79
  -4   1  17    0.20    1.40
  -4  -1  18   90.34    6.08
  -4   1  18   92.14    6.08
  -4  -1  19   10.70    2.63
  -4   1  19    8.62    2.39
  -4  -1  20   31.11    3.91
  -4   1  20   30.17    3.75
  -4  -1  21  254.32   11.19
  -4   1  21  258.44   11.29
  -4  -1  22    1.26    1.68
  -4   1  22    2.75    1.73
  -4   1  23    6.71    2.49
  -4  -1  23   -0.34    1.63
  -4   1  24   -2.37    2.03
  -4  -1  24   -1.10    1.96
  -4  -1  25   11.44    2.92
  -4   1  25   10.90    2.56
  -4   1  26   24.85    4.09
  -4  -1  26   21.57    3.72
  -4  -1  27   42.74    5.11
  -4   1  27   31.78    4.38
   4   2   0 1123.88   20.67
   4  -2   0 1073.95   21.02
  -4  -2   0 1106.39   18.97
   4  -2   0 1096.23   18.82
   4   2  -1  845.83   16.75
   4  -2  -1  825.69   17.06
   4   2   1  828.61   16.81
   4  -2   1  814.29   17.08
  -4  -2   1  840.74   15.47
  -4  -2  -1  837.93   14.73
   4  -2  -1  823.45   15.32
   4  -2   1  810.33   14.56
   4   2   2   64.55    3.75
  -4  -2  -2   67.89    3.80
   4  -2   2   65.90    3.87
   4   2  -2   56.19    3.41
  -4  -2   2   62.46    3.22
  -4  -2  -2   66.57    2.71
   4  -2   2   68.02    2.68
   4  -2  -2   61.53    3.13
  -4   2   2   57.58    3.12
   4  -2   3  120.22    5.31
  -4  -2  -3  118.30    5.14
   4   2  -3  115.57    4.78
  -4  -2  -3  116.61    3.45
   4  -2  -3  108.73    4.42
  -4  -2   3  112.60    4.57
   4  -2   3  111.65    3.36
  -4   2   3  109.78    4.50
   4  -2   4  358.06   10.01
   4   2  -4  369.44    9.50
  -4   2  -4  365.91   10.16
  -4  -2  -4  359.92    9.99
   4  -2  -4  362.90    9.34
   4  -2   4  365.67    6.96
  -4  -2   4  370.75    9.49
  -4  -2  -4  360.34    6.97
  -4   2   4  362.98    9.32
  -4  -2  -5   30.21    2.65
   4  -2   5   25.89    2.60
  -4   2  -5   27.93    2.69
  -4  -2   5   23.80    2.35
   4  -2  -5   25.45    2.31
   4  -2   5   25.91    1.24
  -4  -2  -5   29.24    1.33
  -4   2   5   25.36    2.27
  -4  -2  -6   91.53    4.74
  -4   2  -6   93.00    4.77
   4  -2   6   84.02    2.10
  -4  -2  -6   87.63    2.14
  -4  -2   6   89.47    4.53
   4  -2  -6   88.10    4.38
  -4   2   6   84.02    4.31
  -4   2  -7   17.00    2.15
  -4  -2  -7   16.87    2.19
  -4  -2   7   16.29    2.11
   4  -2  -7   15.93    1.99
  -4   2   7   15.28    2.07
  -4  -2  -8    9.78    1.80
  -4   2  -8    7.66    1.42
  -4  -2   8   13.66    1.99
   4  -2  -8    9.22    1.57
  -4   2   8   11.23    2.00
   4  -2  -9 1471.91   27.11
  -4  -2   9 1409.59   26.93
  -4   2  -9 1484.75   27.49
  -4  -2  -9 1426.18   27.40
   4  -2  -9 1409.94   22.60
  -4   2   9 1442.92   26.91
   4  -2 -10   74.54    4.51
  -4  -2  10   73.87    4.56
  -4   2 -10   72.69    4.59
  -4  -2 -10   68.62    4.50
   4  -2 -10   72.14    2.61
  -4   2  10   75.63    4.73
   4  -2 -11  345.26   10.70
  -4  -2  11  330.33   10.52
  -4   2 -11  352.80   10.87
   4  -2 -11  342.06    6.54
  -4   2  11  328.26   10.50
  -4   2 -12    3.18    1.31
  -4  -2  12    2.61    1.43
   4  -2 -12    3.85    1.54
   4   2 -12    2.79    0.48
  -4   2  12    3.99    1.75
  -4   2 -13  689.98   17.02
   4  -2 -13  684.15   17.01
  -4  -2  13  659.63   16.81
  -4   2  13  677.95   16.96
  -4  -2  14   68.64    4.89
  -4   2  14   73.51    5.05
  -4  -2  15   15.17    2.40
  -4   2  15   11.71    2.35
  -4   2  16   65.09    4.95
  -4  -2  16   51.00    4.41
  -4   2  17  389.89   13.06
  -4  -2  17  394.63   13.13
  -4  -2  18   44.62    4.36
  -4   2  18   42.52    4.33
  -4  -2  19   77.24    5.93
  -4   2  19   81.31    5.95
  -4  -2  20   38.69    4.36
  -4   2  20   40.32    4.45
  -4   2  21   64.86    5.65
  -4  -2  21   57.57    5.26
  -4  -2  22    6.94    2.44
  -4   2  22   13.24    2.89
  -4   2  23  392.77   14.72
  -4  -2  23  353.93   14.02
  -4  -2  24   74.97    6.46
  -4   2  24   77.60    6.51
  -4   2  25  229.62   11.44
  -4  -2  25  209.81   10.97
  -4  -2  26    7.13    2.36
  -4   2  26    5.14    1.95
  -4   2  27    5.46    2.21
  -4  -2  27    4.03    2.18
   4   3   0    0.84    0.95
   4  -3   0    1.30    1.03
  -4  -3   0    0.69    0.73
   4  -3   0    0.59    0.60
  -4  -3  -1   65.55    3.64
   4   3  -1   62.10    3.58
   4  -3   1   68.58    3.97
   4  -3  -1   61.98    3.84
   4   3   1   61.47    3.55
  -4  -3  -1   65.99    2.97
  -4  -3   1   66.07    3.23
   4  -3  -1   65.15    3.17
   4  -3   1   61.92    2.87
   4   3  -2  195.94    6.44
  -4  -3  -2  191.15    6.69
   4  -3   2  194.40    6.91
  -4  -3  -2  197.54    5.28
  -4  -3   2  203.76    6.19
   4  -3  -2  198.00    6.09
   4  -3   2  188.85    5.24
   4   3  -3    9.39    1.46
  -4  -3  -3   12.60    1.20
  -4  -3  -3   11.93    1.72
   4  -3   3    9.77    1.75
  -4  -3   3   11.59    1.54
   4  -3   3   11.27    1.13
   4  -3  -3    9.48    1.25
  -4  -3  -4  227.27    7.49
   4  -3   4  228.70    7.64
   4   3  -4  223.91    6.92
  -4  -3   4  220.69    6.98
   4  -3  -4  230.19    7.07
  -4  -3  -4  215.73    5.19
   4  -3   4  215.23    5.19
   4  -3   5   22.79    2.39
   4   3  -5   24.27    2.18
  -4   3  -5   25.60    2.55
  -4  -3  -5   27.15    2.52
  -4  -3  -5   24.68    1.40
   4  -3  -5   25.00    2.33
  -4  -3   5   22.30    2.21
   4  -3   5   24.51    1.41
  -4   3  -6    6.94    1.57
  -4  -3  -6    9.01    1.58
   4  -3  -6    8.23    1.51
  -4  -3   6    7.52    1.54
   4  -3   6    7.36    0.75
  -4   3   6    6.86    1.47
  -4  -3  -7  152.13    6.37
  -4   3  -7  164.95    6.58
  -4  -3   7  151.64    6.13
   4  -3  -7  157.64    6.26
  -4   3   7  149.60    6.11
   4  -3   7  147.24    3.38
  -4  -3   8   77.60    4.46
   4  -3  -8   76.92    4.38
  -4  -3  -8   83.43    4.73
  -4   3  -8   69.33    4.33
   4  -3  -8   77.80    3.16
  -4   3   8   74.81    4.33
   4  -3   8   73.80    1.99
   4  -3  -9    8.58    1.68
  -4  -3   9    8.21    1.77
  -4   3  -9    8.99    1.77
  -4  -3  -9    7.93    1.77
   4  -3  -9    7.75    0.99
   4  -3   9    7.62    0.54
  -4   3   9    6.55    1.60
  -4  -3  -9    6.68    0.52
   4  -3 -10   56.42    4.02
  -4  -3  10   62.32    4.38
  -4   3 -10   64.57    4.23
   4  -3 -10   61.41    2.59
  -4   3  10   60.16    4.11
  -4   3 -11    0.69    0.97
  -4  -3  11    0.00    1.25
   4  -3 -11    1.34    0.89
   4  -3 -11    0.08    0.47
  -4   3  11   -1.29    1.26
  -4   3 -12   -0.61    1.15
  -4  -3 -12    1.44    0.30
  -4  -3  12    1.00    1.40
   4  -3 -12   -1.00    1.32
   4   3 -12    1.04    0.53
  -4   3  12    2.30    1.31
  -4  -3 -13   17.26    0.87
  -4  -3  13   17.94    2.49
  -4   3 -13   21.58    2.64
   4   3 -13   17.99    1.08
   4  -3  13   16.98    0.81
  -4   3  13   12.56    2.31
  -4   3 -14    4.67    1.52
  -4  -3  14    7.32    1.86
   4  -3  14    5.70    0.55
  -4   3  14    4.35    1.60
  -4  -3  15   19.09    2.80
   4  -3  15   22.39    1.14
  -4   3  15   21.25    2.89
  -4  -3  16  177.66    8.33
  -4   3  16  168.03    8.11
   4  -3  16  171.16    4.05
  -4  -3  17  303.15   11.42
  -4   3  17  320.31   11.73
   4  -3  17  304.41    6.33
  -4  -3  18  156.68    8.25
   4  -3  18  166.43    4.40
  -4   3  18  173.14    8.56
  -4  -3  19   19.81    3.09
   4  -3  19   19.33    1.42
  -4   3  19   18.12    2.97
  -4  -3  20    8.85    2.42
   4  -3  20    9.34    1.07
  -4   3  20    9.94    2.23
  -4  -3  21    4.05    1.80
  -4   3  21    4.10    1.85
  -4  -3  22   -1.89    2.14
  -4   3  22   -1.02    1.91
  -4  -3  23    5.04    2.08
  -4   3  23    4.53    2.27
  -4  -3  24    8.96    2.71
  -4   3  24    7.65    2.29
  -4  -3  25   13.65    3.24
  -4   3  25    6.66    2.28
  -4  -3  26   31.34    4.43
  -4   3  26   27.10    4.10
  -4  -3  27   -0.02    1.93
   4  -4   0  212.24    7.35
   4   4   0  201.79    6.63
  -4  -4   0  210.07    6.17
   4  -4   0  201.65    6.10
   4   4  -1 1117.88   20.40
  -4  -4  -1 1096.44   20.67
   4  -4   1 1114.21   21.43
  -4  -4   1 1092.23   19.86
   4  -4   1 1094.75   19.19
   4  -4  -1 1086.01   19.79
   4   4  -2  249.76    7.43
   4  -4   2  264.20    8.31
  -4  -4  -2  258.40    7.86
  -4  -4   2  253.78    7.38
   4  -4  -2  262.04    7.46
   4  -4   2  258.10    6.61
   4   4  -3  774.31   15.41
   4  -4   3  753.38   16.46
  -4  -4  -3  775.26   16.21
  -4  -4   3  772.28   15.66
   4  -4   3  754.61   13.88
   4  -4  -3  762.45   15.63
  -4  -4  -4   48.52    3.31
   4  -4   4   51.77    3.52
   4   4  -4   45.96    2.94
  -4  -4   4   46.82    3.23
   4  -4   4   49.41    2.37
   4  -4  -4   52.51    3.25
  -4  -4  -5  303.27    9.06
   4   4  -5  286.28    7.96
   4  -4   5  285.67    8.90
  -4  -4   5  285.12    8.59
   4  -4   5  285.45    6.46
   4  -4  -5  295.90    8.65
  -4  -4   6   80.08    4.42
  -4  -4  -6   78.04    4.40
   4   4  -6   80.02    3.90
  -4   4  -6   79.46    4.49
   4  -4   6   72.14    4.26
   4  -4  -6   77.28    3.56
   4  -4  -6   81.81    4.38
  -4  -4   7  951.24   19.65
  -4  -4  -7  948.42   19.97
  -4   4  -7  963.29   19.98
   4  -4  -7  967.08   17.44
   4  -4  -7  959.68   19.77
   4  -4  -8  226.85    8.07
  -4  -4   8  221.21    7.91
   4  -4  -8  228.76    6.29
  -4   4  -8  228.18    8.11
  -4  -4  -8  222.64    8.11
  -4  -4   9  347.95   10.62
   4  -4  -9  355.56   10.67
   4  -4  -9  358.94    8.26
  -4   4  -9  366.78   10.77
   4  -4 -10    2.64    1.25
  -4  -4  10   -0.20    1.15
  -4   4 -10    2.14    1.29
   4  -4 -10    1.26    0.70
  -4  -4  11  294.35   10.08
   4  -4 -11  300.54   10.04
  -4   4 -11  310.02   10.10
   4  -4 -11  296.21    6.88
   4   4 -11  311.92    7.23
  -4  -4 -11  298.38    6.01
   4  -4 -12   24.35    2.81
   4  -4  12   20.05    1.17
  -4  -4  12   20.19    2.73
  -4   4 -12   24.20    2.80
   4   4 -12   23.10    1.58
  -4   4  12   23.14    2.93
  -4  -4 -12   19.62    1.19
   4  -4  13  739.55   12.25
  -4  -4  13  719.54   18.20
  -4   4 -13  765.94   18.07
   4   4 -13  750.48   12.87
  -4  -4 -13  725.60   12.31
  -4   4  13  704.99   17.82
  -4  -4  14  113.74    6.49
   4  -4  14  117.70    3.32
  -4  -4 -14  112.98    3.34
  -4   4 -14  115.95    6.22
   4   4 -14  115.34    3.22
  -4   4  14  121.34    6.63
  -4  -4 -15  291.20    6.29
   4  -4  15  294.31    6.24
  -4  -4  15  286.59   10.73
  -4   4  15  286.85   10.73
  -4  -4 -16  294.46    6.41
  -4  -4  16  272.77   10.62
  -4   4  16  277.49   10.76
   4  -4  16  276.97    6.25
  -4  -4  17  242.58   10.10
  -4  -4 -17  255.94    6.07
  -4   4  17  248.71   10.30
   4  -4  17  251.95    5.97
  -4  -4 -18  318.75    7.27
  -4  -4  18  314.98   12.00
   4  -4  18  320.73    7.20
  -4   4  18  321.96   12.09
  -4  -4  19  131.97    7.70
  -4  -4 -19  137.67    4.40
   4  -4  19  138.78    4.39
  -4   4  19  133.77    7.82
  -4  -4  20   38.05    4.37
   4  -4  20   38.81    2.29
   4  -4  21  454.48    9.86
  -4  -4  21  424.78   15.17
  -4  -4  22  112.39    7.64
  -4  -4  23  224.75   11.09
  -4  -4  24    7.43    2.57
  -4  -4  25   26.65    4.00
  -4  -4  26   54.13    5.76
  -4  -4  27  313.97   14.06
  -4  -5   0   24.60    2.31
   4  -5   0   29.65    2.77
   4  -5   0   30.50    2.36
  -4  -5  -1  838.24   16.77
   4   5  -1  842.81   16.44
   4  -5   1  837.62   17.65
   4  -5   1  831.32   15.87
   4  -5  -1  819.01   16.30
  -4  -5  -2   27.52    2.42
   4  -5   2   27.75    2.67
   4   5  -2   27.42    2.33
   4  -5   2   24.95    2.01
   4  -5  -2   29.04    2.41
   4   5  -3  137.97    5.16
   4  -5   3  149.38    6.09
  -4  -5  -3  143.41    5.69
  -4  -5   3  138.96    5.56
   4  -5  -3  139.28    5.51
  -4  -5   4   82.65    4.33
  -4  -5  -4   87.83    4.46
   4  -5   4   83.86    4.56
   4   5  -4   88.35    3.99
   4  -5  -4   90.85    4.19
   4  -5  -4   87.41    4.37
   4  -5  -5    9.48    1.55
   4   5  -5   11.64    1.50
  -4  -5  -5   11.38    1.72
  -4  -5   5   14.90    2.03
   4  -5   5    9.15    1.57
   4  -5  -5   11.91    1.58
  -4  -5   6   45.05    3.34
  -4  -5  -6   46.83    3.46
   4  -5   6   42.95    3.39
   4   5  -6   44.63    2.81
   4  -5  -6   50.29    2.98
   4  -5  -6   48.08    3.44
  -4  -5   7   70.49    4.32
   4   5  -7   66.97    3.54
  -4  -5  -7   58.92    4.00
  -4   5  -7   73.72    4.38
   4  -5  -7   75.77    3.61
   4  -5  -7   71.98    4.30
  -4  -5   8   32.60    3.05
  -4  -5  -8   36.39    3.23
  -4   5  -8   34.73    3.06
   4  -5  -8   37.10    2.48
   4  -5  -8   35.12    3.08
   4  -5  -9   15.72    2.07
  -4  -5   9   19.90    2.42
  -4   5  -9   18.65    2.31
   4  -5  -9   19.14    1.72
  -4   5 -10    0.29    0.99
  -4  -5  10   -1.49    1.38
   4  -5 -10    0.69    1.01
   4  -5 -10    0.32    0.64
  -4   5 -11   -0.90    0.91
  -4  -5  11   -1.03    1.28
   4  -5 -11   -0.40    1.04
   4  -5 -11    0.00    0.71
   4   5 -11    0.85    0.70
  -4  -5  12   46.14    4.03
  -4   5 -12   48.40    3.84
   4   5 -12   47.00    2.61
  -4  -5 -12   48.99    2.27
  -4  -5  13   -0.36    1.30
   4  -5  13   -0.47    0.52
  -4   5 -13    1.04    1.14
   4   5 -13    0.10    0.58
  -4  -5 -13    0.12    0.50
  -4  -5  14   22.26    3.14
   4  -5  14   22.79    1.60
  -4   5 -14   26.77    3.01
   4   5 -14   23.61    1.66
  -4  -5 -14   25.54    1.69
   4  -5  15    2.22    0.62
  -4  -5 -15    0.40    0.51
  -4  -5  15   -2.01    1.72
   4   5 -15    1.32    0.59
  -4  -5 -16   86.96    3.37
  -4  -5  16   77.97    5.63
   4  -5  16   89.47    3.40
  -4  -5  17   37.50    4.05
   4  -5  17   32.57    2.05
  -4  -5 -17   37.64    2.21
   4  -5  18    5.01    1.07
  -4  -5  18    5.53    2.23
  -4  -5 -18    4.84    0.93
  -4  -5 -19    6.26    1.05
  -4  -5  19    4.85    1.99
   4  -5  19    7.96    1.19
  -4  -5  20   40.30    4.43
   4  -5  20   38.75    2.46
  -4  -5  21    3.16    2.07
   4  -5  21    3.95    0.98
  -4  -5  22    4.94    2.14
  -4  -5  23    2.09    1.93
  -4  -5  24   53.19    5.42
  -4  -5  25   18.33    3.44
  -4  -5  26   46.30    5.51
   4  -6   0 3980.21   61.86
  -4  -6   0 3965.67   60.12
   4  -6   0 3943.86   60.15
  -4  -6  -1  266.53    7.87
   4  -6   1  277.91    8.81
   4  -6  -1  263.05    7.89
   4   6  -2   37.99    2.59
   4  -6   2   41.90    3.31
  -4  -6  -2   29.28    2.54
   4  -6  -2   41.24    3.19
   4  -6  -2   41.73    3.11
  -4  -6  -3 1378.43   25.02
   4   6  -3 1370.68   23.81
   4  -6   3 1364.57   25.66
   4  -6  -3 1408.02   25.24
   4  -6  -3 1365.52   25.14
   4  -6   4  506.32   12.74
  -4  -6  -4  502.96   12.39
   4   6  -4  521.04   11.37
   4  -6  -4  502.40   12.05
   4  -6  -4  513.81   12.61
  -4  -6  -5   17.54    2.14
   4  -6   5   13.88    2.01
   4   6  -5   12.78    1.60
   4  -6  -5   18.86    2.08
   4  -6  -5   18.79    2.29
  -4  -6   6  696.47   15.92
   4  -6   6  673.31   15.56
  -4  -6  -6  682.24   15.63
   4   6  -6  680.03   13.82
   4  -6  -6  672.09   14.45
   4  -6  -6  692.72   15.85
  -4  -6   7  790.80   17.90
  -4  -6  -7  790.37   17.70
   4   6  -7  822.85   15.81
   4  -6  -7  805.67   16.26
   4  -6  -7  808.01   17.97
  -4  -6   8   40.41    3.47
  -4   6  -8   43.00    3.38
   4   6  -8   45.09    2.85
   4  -6  -8   42.37    2.82
   4  -6  -8   47.26    3.66
  -4   6  -9   14.69    2.09
  -4  -6   9   14.02    2.26
   4  -6  -9   17.79    2.29
   4  -6  -9   13.82    1.68
  -4  -6  10  644.22   16.28
  -4   6 -10  643.05   15.67
   4  -6 -10  632.48   13.33
   4  -6 -10  643.99   16.24
   4   6 -10  664.74   13.74
  -4   6 -11    5.95    1.64
  -4  -6  11    5.21    1.70
   4  -6 -11    5.45    1.53
   4   6 -11    7.31    1.30
   4  -6 -11    5.53    1.11
  -4  -6  12   69.74    4.85
  -4   6 -12   80.12    4.95
   4   6 -12   78.20    3.66
  -4  -6  13  104.31    6.14
  -4   6 -13  111.38    6.01
   4   6 -13  120.49    4.41
  -4  -6 -13  108.26    3.96
  -4  -6  14  525.89   15.27
  -4   6 -14  532.62   14.60
   4   6 -14  538.61   11.07
  -4  -6 -14  515.23   10.80
  -4  -6  15   13.11    2.48
   4  -6  15   11.38    1.34
   4   6 -15   11.40    1.30
  -4  -6 -15   10.95    1.28
  -4  -6  16  159.59    8.13
   4  -6  16  160.65    5.12
  -4  -6 -16  156.03    5.10
  -4  -6  17  539.47   16.40
   4  -6  17  538.28   11.28
  -4  -6 -17  522.51   11.26
  -4  -6 -18  103.82    4.20
  -4  -6  18  111.69    7.13
   4  -6  18  101.34    4.13
   4  -6  19  122.93    4.67
  -4  -6  19  134.37    7.93
  -4  -6 -19  119.92    4.72
   4  -6  20  525.15   11.56
  -4  -6  20  501.89   16.65
  -4  -6  21   69.39    5.92
   4  -6  21   78.04    3.84
  -4  -6  22    1.63    1.89
  -4  -6  23    3.21    2.16
  -4  -6  24  294.62   13.20
  -4  -6  25    0.55    2.21
  -4  -6  26  104.47    7.97
  -4  -7   0  283.69    7.98
   4  -7   0  274.75    8.89
   4  -7   0  290.54    9.17
  -4  -7  -1  194.22    6.49
   4  -7   1  185.77    7.08
   4  -7   1  190.56    7.33
   4  -7  -1  207.54    7.38
   4  -7  -1  190.89    6.78
  -4  -7  -2  224.09    7.23
   4  -7   2  210.51    7.59
   4  -7  -2  223.74    7.75
   4  -7  -2  234.49    7.71
   4  -7   3  734.49   16.47
  -4  -7  -3  736.55   15.80
   4  -7  -3  757.83   16.42
   4  -7  -3  745.91   16.37
  -4  -7  -4  163.75    6.33
   4   7  -4  161.61    5.41
   4  -7   4  169.28    6.65
   4  -7  -4  168.74    6.46
   4  -7  -4  164.87    6.61
   4  -7   5    4.04    1.14
  -4  -7  -5    3.90    1.11
   4   7  -5    4.10    1.02
   4  -7  -5    5.09    1.21
   4  -7  -5    3.71    1.13
   4   7  -6   71.50    3.42
   4  -7   6   69.83    4.17
  -4  -7  -6   66.47    4.13
   4  -7  -6   73.27    4.07
   4  -7  -6   69.76    4.38
   4  -7   7   87.24    4.79
   4   7  -7   91.57    3.93
   4  -7  -7   90.24    4.42
   4  -7  -7   88.28    5.03
   4   7  -8    0.65    0.73
  -4  -7   8   -0.64    1.18
   4  -7  -8    1.78    0.92
   4  -7  -8    0.53    0.88
  -4  -7   9   79.08    5.04
   4   7  -9   79.84    3.72
  -4   7  -9   71.10    4.43
   4  -7  -9   76.53    3.98
   4  -7  -9   77.33    4.92
  -4  -7  10   36.04    3.56
  -4   7 -10   32.67    3.04
   4  -7 -10   36.01    2.68
   4  -7 -10   38.82    3.53
   4   7 -10   36.97    2.80
  -4   7 -11   16.78    2.22
  -4  -7  11   14.50    2.32
   4   7 -11   20.99    2.15
   4  -7 -11   18.66    1.92
  -4   7 -12    5.65    1.55
  -4  -7  12    5.46    1.82
   4   7 -12    4.86    1.24
  -4  -7  13   12.48    2.35
  -4   7 -13   10.16    1.88
   4   7 -13   13.27    1.67
  -4  -7  14   17.19    2.64
  -4   7 -14   11.66    2.09
   4   7 -14   19.31    1.90
  -4  -7 -14   17.16    1.72
  -4  -7  15   22.16    3.20
   4   7 -15   18.19    1.83
  -4  -7 -15   19.94    1.87
  -4  -7  16  101.90    6.63
   4  -7  16  108.12    4.39
   4   7 -16  107.98    4.15
  -4  -7 -16   97.20    4.22
   4  -7  17    0.56    0.78
  -4  -7  17   -0.96    1.80
  -4  -7 -17    0.96    0.74
  -4  -7  18   30.76    3.81
   4  -7  18   33.95    2.48
  -4  -7 -18   33.14    2.51
   4  -7  19    0.26    0.83
  -4  -7  19    3.51    2.06
  -4  -7  20    1.78    1.69
   4  -7  20    2.49    1.27
   4  -7  21    1.91    1.06
  -4  -7  21    3.77    1.82
  -4  -7  22   71.87    6.28
  -4  -7  23   16.09    3.36
  -4  -7  24    3.61    2.23
  -4  -7  25    0.63    1.86
   4  -8   0  966.20   20.31
  -4  -8   0  977.76   18.60
   4  -8   0 1015.67   21.07
   4  -8   1   52.90    3.80
  -4  -8  -1   49.94    3.17
   4  -8   1   57.85    4.09
   4  -8  -1   48.50    3.62
   4  -8   2   32.23    2.99
  -4  -8  -2   28.49    2.47
   4  -8  -2   28.74    2.81
   4  -8   2   36.83    3.34
  -4  -8  -3  130.73    5.48
   4  -8   3  136.66    6.10
   4  -8   3  139.71    6.55
   4  -8  -3  143.67    6.20
   4  -8  -3  128.51    5.92
  -4  -8  -4  415.71   11.05
   4  -8   4  420.59   11.58
   4  -8  -4  431.70   11.69
   4  -8   4  450.72   12.71
   4  -8  -4  413.79   11.74
   4  -8   5    2.98    1.27
  -4  -8  -5    3.59    1.21
   4   8  -5    6.26    1.15
   4  -8  -5    3.03    1.07
   4  -8   5    5.31    1.55
   4  -8  -5    5.61    1.52
  -4  -8  -6  284.16    9.13
   4   8  -6  294.10    7.56
   4  -8   6  280.94    9.15
   4  -8  -6  294.36    9.10
   4  -8  -6  322.16   10.18
   4   8  -7  130.66    4.66
   4  -8   7  116.46    5.65
   4  -8  -7  130.91    5.67
   4  -8  -7  139.34    6.50
   4   8  -8   33.48    2.33
   4  -8  -8   32.66    2.79
   4  -8  -8   36.27    3.42
  -4  -8   9   65.34    4.73
   4   8  -9   68.16    3.34
   4  -8  -9   63.95    3.89
   4   8  -9   66.86    4.02
  -4  -8  10 1664.71   32.29
   4   8 -10 1689.58   27.76
   4   8 -10 1688.49   29.69
   4  -8 -10 1613.82   29.11
  -4  -8  11   12.03    2.44
  -4   8 -11   15.65    2.25
   4   8 -11   13.80    1.60
   4   8 -11   14.93    2.04
  -4  -8  12    5.98    1.89
  -4   8 -12    7.93    1.73
   4   8 -12    8.40    1.54
  -4  -8  13   90.90    5.98
   4   8 -13   92.71    4.58
  -4   8 -13   97.28    5.54
  -4  -8  14  456.03   14.63
  -4   8 -14  473.32   13.64
   4   8 -14  489.73   11.62
  -4  -8  15   79.68    5.77
   4   8 -15   74.36    3.86
  -4  -8 -15   71.63    3.75
  -4  -8  16   41.61    4.39
   4   8 -16   38.54    2.67
  -4  -8 -16   38.23    2.74
   4  -8  17   27.68    2.40
  -4  -8  17   25.46    3.46
  -4  -8 -17   29.79    2.45
  -4  -8 -18    3.40    0.98
  -4  -8  18    1.81    2.17
   4  -8  18    2.63    0.97
  -4  -8  19   17.07    3.23
   4  -8  19   13.75    1.73
  -4  -8  20  682.38   20.42
   4  -8  20  690.34   15.11
   4  -8  21   53.83    3.51
  -4  -8  21   51.15    5.29
  -4  -8  22    8.93    2.55
  -4  -8  23  147.77    9.22
  -4  -8  24  413.59   16.13
  -4  -8  25   48.52    5.46
  -4  -9   0   67.37    3.55
   4  -9   0   72.57    4.77
   4  -9   1  116.68    5.72
  -4  -9  -1  117.86    4.91
   4  -9   1  124.78    6.29
   4  -9  -1  121.20    6.05
  -4  -9  -2    0.80    0.82
   4  -9   2    0.60    1.09
   4  -9   2   -0.25    0.93
   4  -9  -2    0.96    1.06
  -4  -9  -3   69.87    3.92
   4  -9   3   74.23    4.45
   4  -9  -3   73.57    4.57
   4  -9   3   72.68    4.77
  -4  -9  -4    5.68    1.43
   4  -9   4    4.81    1.50
   4  -9   4    6.58    1.70
   4  -9  -4    4.26    1.28
   4  -9  -4    2.25    0.87
   4  -9   5   -0.28    1.14
  -4  -9  -5    1.37    1.16
   4  -9  -5    4.32    1.32
   4  -9   5    1.76    1.24
   4  -9  -5    0.69    0.93
  -4  -9  -6   -0.53    0.87
   4  -9   6   -1.49    1.36
   4  -9  -6    1.00    0.95
   4  -9  -6   -0.90    1.22
   4   9  -7    0.44    0.75
   4  -9   7   -2.48    1.54
   4  -9  -7   -0.09    0.93
   4  -9  -7   -0.01    0.81
   4   9  -8   10.47    1.30
   4  -9  -8   12.57    1.97
   4   9  -8   13.42    2.03
   4   9  -9    0.99    0.62
   4  -9  -9    1.59    0.91
   4   9  -9   -0.27    0.98
   4   9 -10   56.94    2.92
   4   9 -10   54.41    3.81
   4  -9 -10   51.73    3.58
   4   9 -11   27.01    2.05
  -4  -9  11   28.57    3.38
   4   9 -11   23.97    2.58
   4   9 -12    5.61    1.46
   4   9 -12    6.04    1.12
  -4  -9  12    6.69    2.07
   4   9 -13   23.00    2.45
  -4   9 -13   28.49    3.05
  -4  -9  13   24.10    3.24
   4   9 -13   25.09    2.10
  -4  -9  14   73.04    5.61
  -4   9 -14   70.90    4.82
   4   9 -14   74.83    4.27
  -4  -9  15   17.46    2.92
   4   9 -15   12.40    1.70
  -4  -9 -15   13.36    1.81
  -4  -9  16    0.75    1.73
   4   9 -16   -0.21    0.83
  -4  -9 -16   -0.51    0.98
  -4  -9  17    2.61    1.89
   4   9 -17    1.04    0.78
  -4  -9 -17   -0.77    0.77
  -4  -9  18    3.02    1.98
   4  -9  18    6.37    1.65
   4  -9  19   -0.29    0.99
  -4  -9  19   -1.38    1.78
  -4  -9  20  110.81    7.68
   4  -9  20  118.16    5.42
  -4  -9  21    0.84    1.76
   4  -9  21    0.40    0.98
  -4  -9  22    1.64    2.02
  -4  -9  23    6.07    2.63
  -4  -9  24    2.21    2.06
  -4 -10   0  407.27   10.09
   4 -10   0  460.97   13.17
   4 -10   1  124.44    5.95
  -4 -10  -1  109.90    4.76
   4 -10  -1  133.57    6.62
   4 -10   1  126.58    6.56
  -4 -10  -2  184.93    6.57
   4 -10   2  185.40    7.41
   4 -10  -2  217.21    8.57
   4 -10   2  206.96    8.60
  -4 -10  -3 1263.46   23.92
   4 -10   3 1293.70   25.30
   4 -10  -3 1369.58   26.70
   4 -10   4   42.85    3.53
  -4 -10  -4   43.46    3.27
   4 -10  -4   46.71    3.82
   4 -10   5   33.71    3.11
  -4 -10  -5   36.19    2.99
   4 -10  -5   39.98    3.46
   4 -10  -5   39.23    3.47
  -4 -10  -6   -0.68    1.00
   4 -10   6   -1.07    1.17
   4 -10  -6   -0.51    0.83
   4 -10   7 1261.57   25.03
   4 -10  -7 1308.07   25.74
   4 -10  -8   83.13    4.90
   4  10  -8   83.83    5.02
   4  10  -9   36.45    2.17
   4  10  -9   31.05    3.16
   4 -10  -9   30.17    2.95
   4  10 -10   41.92    3.55
   4  10 -10   42.36    2.39
   4  10 -11  162.07    6.96
   4  10 -11  170.82    5.10
   4  10 -12    1.29    1.23
   4  10 -12    1.72    0.75
  -4 -10  12   -0.70    1.57
  -4 -10  13  199.00    9.39
   4  10 -13  202.54    7.78
   4  10 -13  200.81    5.87
   4  10 -14    1.76    1.06
  -4 -10  14    0.29    1.52
   4  10 -14    0.94    0.73
  -4 -10  15    1.70    1.64
   4  10 -15    1.25    0.74
   4  10 -15    2.93    1.17
  -4 -10  16   10.97    2.69
   4  10 -16   10.44    1.78
  -4 -10 -16   12.22    1.92
  -4 -10  17  871.32   23.06
   4  10 -17  888.53   18.17
  -4 -10 -17  804.80   18.11
  -4 -10  18    4.78    2.17
  -4 -10  19   15.11    3.22
   4 -10  19   11.62    1.91
  -4 -10  20   11.06    2.80
   4 -10  20    4.67    1.45
  -4 -10  21  134.62    8.66
  -4 -10  22    2.71    1.78
  -4 -10  23   26.18    4.26
  -4 -11   0  520.71   11.66
   4 -11   1   44.76    3.67
  -4 -11  -1   42.66    2.87
   4 -11  -1   45.77    4.06
  -4 -11  -2   14.05    1.81
   4 -11   2   16.31    2.20
   4 -11  -2   13.95    2.24
  -4 -11  -3    1.83    1.18
   4 -11   3    0.68    1.13
   4 -11  -3    1.42    0.98
   4 -11   4    8.21    1.61
  -4 -11  -4    7.92    1.58
   4 -11  -4    9.61    2.02
   4 -11   5   21.27    2.50
  -4 -11  -5   18.92    2.22
   4 -11  -5   25.23    2.87
   4 -11   6  121.07    6.00
  -4 -11  -6  133.02    6.03
   4 -11  -6  143.79    6.85
   4 -11   7   32.73    3.08
   4 -11  -7   32.61    3.24
   4  11  -7   32.43    3.42
   4  11  -8   17.70    2.52
   4 -11  -8   19.68    2.51
   4  11  -9    4.32    1.44
   4 -11  -9    4.94    1.30
   4  11 -10    0.45    1.20
   4  11 -11   37.67    3.47
   4  11 -12   36.50    3.39
   4  11 -12   37.73    2.07
   4  11 -13   21.33    2.66
   4  11 -13   26.25    1.77
  -4 -11  13   22.64    3.34
   4  11 -14   12.40    2.06
   4  11 -14   12.73    1.33
  -4 -11  14   11.38    2.74
   4  11 -15    5.10    1.75
   4  11 -15    5.72    1.09
  -4 -11  15    1.96    1.67
   4  11 -16    3.14    1.41
  -4 -11  16    0.71    1.84
   4  11 -16    0.56    0.70
  -4 -11  17   18.46    3.42
   4  11 -17   17.94    2.41
  -4 -11  18   24.11    3.75
  -4 -11  19   -1.47    1.84
   4 -11  20   47.47    3.80
  -4 -11  20   43.89    5.08
  -4 -11  21    5.09    2.52
  -4 -11  22   -0.45    1.82
  -4 -11  23    8.67    2.98
   4 -12   0  238.66    8.79
  -4 -12   0  241.31    7.07
  -4 -12  -1    7.69    1.39
   4 -12   1    8.69    1.86
   4 -12   2  155.46    6.88
  -4 -12  -2  154.65    5.87
  -4 -12  -3  105.18    4.91
   4 -12   3  107.57    5.61
  -4 -12  -4  430.17   11.42
   4 -12   4  436.78   12.32
   4 -12   5    1.54    1.34
  -4 -12  -5    1.95    0.99
   4 -12   6  101.89    5.45
  -4 -12  -6  102.63    5.33
   4 -12  -6  106.72    6.13
   4  12  -6  106.08    6.37
   4 -12   7  159.76    6.94
   4 -12  -7  167.12    7.74
   4  12  -7  163.16    7.82
   4  12  -8    2.22    1.73
   4 -12  -8    4.62    1.61
   4  12  -9  110.73    6.35
   4  12 -10 1079.83   23.88
   4  12 -11  129.64    6.69
   4  12 -12    1.26    1.29
   4  12 -13   92.36    5.63
  -4 -12  14  594.20   18.31
   4  12 -14  601.35   15.80
   4  12 -15    0.23    1.21
  -4 -12  15    1.45    1.93
  -4 -12  16   92.31    7.00
   4  12 -16  100.22    5.60
  -4 -12  17   79.81    6.48
   4  12 -17   77.24    4.84
  -4 -12  18   21.38    3.69
  -4 -12  19   20.35    3.57
  -4 -12  20  283.19   13.16
  -4 -12  21   98.73    7.70
  -4 -12  22   37.96    4.84
   4 -13   0    3.63    1.54
  -4 -13   0    3.92    0.99
  -4 -13  -1   80.90    3.94
   4 -13   1   81.30    5.00
   4 -13   2  121.65    6.10
  -4 -13  -2  123.02    5.17
  -4 -13  -3   68.10    3.99
   4 -13   3   66.20    4.48
   4 -13   4    5.95    1.54
  -4 -13  -4    5.79    1.44
   4  13  -4    6.08    1.91
   4 -13   5    5.36    1.44
  -4 -13  -5    7.60    1.62
   4  13  -5   11.24    2.53
   4 -13   6   87.96    5.08
  -4 -13  -6   87.76    4.94
   4  13  -6   84.27    5.85
   4 -13   7    9.88    1.94
   4  13  -7    7.29    1.94
   4  13  -8    1.48    1.37
   4  13  -9   92.52    6.00
   4  13 -10   20.16    2.97
   4  13 -11    0.31    1.43
   4  13 -12    5.26    1.76
   4  13 -13   10.69    2.24
   4  13 -14   15.25    2.63
   4  13 -15   -0.65    1.24
  -4 -13  15    0.72    1.64
   4  13 -16    3.05    1.56
  -4 -13  16    4.86    2.43
   4  13 -17    3.20    1.27
  -4 -13  17    1.49    1.96
  -4 -13  18    0.56    1.75
  -4 -13  19    4.98    2.19
  -4 -13  20    1.61    2.04
  -4 -14   0  580.89   12.28
   4 -14   0  566.95   15.21
  -4 -14  -1    9.50    1.46
   4 -14   1    6.87    1.81
   4 -14   2   18.06    2.61
  -4 -14  -2   20.29    2.11
  -4 -14  -3  339.89    9.62
   4 -14   3  341.15   10.96
   4  14  -3  349.65   12.94
   4 -14   4  385.98   11.73
  -4 -14  -4  380.35   10.66
   4  14  -4  403.27   13.97
   4 -14   5   41.96    3.61
  -4 -14  -5   47.63    3.55
   4  14  -5   48.35    4.72
   4 -14   6  394.87   11.77
  -4 -14  -6  380.54   11.25
   4  14  -6  392.18   13.58
   4 -14   7  320.14   10.40
   4  14  -7  313.85   12.10
   4  14  -8  301.48   11.61
   4  14  -9   10.47    2.38
   4  14 -10  228.42    9.83
   4  14 -11   32.57    3.63
   4  14 -12   37.34    4.04
   4  14 -13   35.19    3.92
   4  14 -14  279.73   10.81
   4  14 -15   55.91    4.63
  -4 -14  16  150.26    9.17
   4  14 -16  154.35    7.72
  -4 -14  17  273.95   12.84
   4  14 -17  267.44   10.31
   4  14 -18   82.36    5.42
  -4 -14  18   59.04    6.06
  -4 -14  19   14.17    3.33
   4 -15   0    1.21    1.44
  -4 -15  -1    2.55    0.75
   4 -15   1    5.66    1.59
   4 -15   2    8.75    1.98
  -4 -15  -2   13.01    1.69
   4  15  -2   12.21    2.91
  -4 -15  -3   35.34    2.81
   4 -15   3   28.68    3.05
   4  15  -3   35.19    4.26
  -4 -15  -4    3.14    1.25
   4 -15   4    3.12    1.42
   4  15  -4    1.58    1.67
  -4 -15  -5   23.45    2.56
   4 -15   5   23.85    2.84
   4  15  -5   20.27    3.19
   4 -15   6    7.94    1.75
  -4 -15  -6    9.81    1.80
   4  15  -6    9.00    2.61
   4 -15   7    7.08    1.88
   4  15  -7    7.91    2.55
   4  15  -8   43.69    4.50
   4  15  -9   17.41    3.07
   4  15 -10   48.28    4.62
   4  15 -11   32.74    3.87
   4  15 -12    6.37    2.05
   4  15 -13    2.08    1.39
   4  15 -14   27.70    3.57
   4  15 -15    3.93    1.67
   4  15 -16    8.48    2.25
  -4 -15  16   10.60    2.70
   4  15 -17   25.63    3.26
  -4 -15  17   31.32    4.63
  -4 -15  18   75.13    6.90
   4  15 -18   82.40    5.70
   4 -16   0   54.72    4.44
   4  16   0   72.51    6.14
   4 -16   1  139.10    6.93
   4  16  -1  145.97    8.79
   4 -16   2   96.90    5.68
   4  16  -2  101.70    7.29
   4 -16   3  616.27   16.01
   4  16  -3  622.63   19.13
   4 -16   4   62.00    4.47
   4  16  -4   56.75    5.47
   4 -16   5    1.76    1.45
   4  16  -5    1.29    1.64
   4 -16   6  136.90    6.60
   4  16  -6  124.49    8.00
   4  16  -7  579.17   18.14
   4  16  -8   50.96    5.10
   4  16  -9   73.69    5.98
   4  16 -10    4.32    1.93
   4  16 -11  158.78    8.84
   4  16 -12   11.04    2.52
   4  16 -13  218.72   10.31
   4  16 -14   17.58    3.27
   4  16 -15   45.02    4.55
   4  16 -16   78.98    5.93
   4  16 -17   46.26    4.54
   4 -17   0   18.07    2.71
   4  17   0   21.17    3.83
   4 -17  -1    5.89    1.92
   4 -17   1    7.83    1.87
   4  17  -1    6.08    2.48
   4  17   1    7.23    2.68
   4 -17   2    5.86    1.71
   4  17  -2    7.80    2.76
   4  17   2    2.58    1.91
   4 -17   3   23.06    2.90
   4  17  -3   21.71    3.54
   4 -17   4    5.92    1.63
   4  17  -4    4.77    2.16
   4 -17   5   24.91    2.90
   4  17  -5   24.81    3.85
   4 -17   6    2.88    1.32
   4  17  -6    4.33    2.39
   4  17  -7   -1.43    1.85
   4  17  -8   13.84    2.87
   4  17  -9    1.33    1.88
   4  17 -10   -1.34    1.84
   4  17 -11    4.77    2.28
   4  17 -12    4.20    1.99
   4  17 -13   23.22    3.75
   4  17 -14   10.63    2.67
   4  17 -15   22.62    3.42
   4  17 -16   55.20    5.30
   4  17 -17    3.72    1.74
   4 -18   0   43.11    4.14
   4  18   0   42.21    5.26
   4 -18  -1  218.17    9.31
   4 -18   1  233.45    9.33
   4  18  -1  238.32   11.91
   4  18   1  234.82   12.06
   4 -18   2    9.38    2.08
   4  18  -2   10.78    3.04
   4  18   2    8.18    3.08
   4 -18   3   54.74    4.37
   4  18  -3   56.01    5.86
   4  18   3   55.20    5.90
   4 -18   4   20.23    2.68
   4  18  -4   21.60    3.93
   4  18   4   24.81    4.27
   4 -18   5    2.01    1.13
   4  18  -5    1.99    1.88
   4  18   5    3.97    2.18
   4 -18   6   39.60    3.56
   4  18  -6   41.85    4.92
   4  18  -7   17.85    3.59
   4  18  -8    5.29    2.53
   4  18  -9  152.83    9.28
   4  18 -10   75.24    6.51
   4  18 -11  101.45    7.47
   4  18 -12    0.75    1.88
   4  18 -13   52.02    5.38
   4  18 -14   29.18    4.13
   4  18 -15   13.89    3.01
   4  18 -16  103.33    7.24
   4 -19   0   12.49    2.38
   4  19   0   12.45    3.13
   4 -19   1   17.62    2.62
   4 -19  -1   16.05    2.71
   4  19  -1   10.33    3.18
   4  19   1   12.86    3.53
   4 -19  -2   15.09    2.53
   4 -19   2   17.11    2.66
   4  19  -2   15.62    3.25
   4  19   2   16.26    3.47
   4 -19   3   28.85    3.23
   4  19  -3   31.19    4.60
   4  19   3   35.48    4.94
   4  19  -4    1.43    1.97
   4  19   4    1.34    1.98
   4  19  -5   17.30    3.43
   4  19   5   15.68    3.62
   4  19  -6    5.65    2.55
   4  19   6   -1.66    2.29
   4  19  -7    1.74    1.85
   4  19   7    2.54    2.54
   4  19  -8    2.30    1.86
   4  19   8    2.63    1.92
   4  19  -9   12.97    3.14
   4  19 -10    7.92    2.65
   4  19 -11   29.27    4.34
   4  19 -12   -0.11    1.95
   4  19 -13   -0.30    1.96
   4  19 -14    3.40    1.84
   4  19 -15    0.40    1.80
   4  19 -16   44.41    4.93
   4  20   0    0.23    2.15
   4 -20  -1    7.51    2.10
   4  20  -1    9.29    3.26
   4  20   1    3.33    1.86
   4 -20  -2  154.90    7.98
   4  20  -2  168.37   10.52
   4  20   2  153.33   10.30
   4  20  -3    3.41    2.57
   4  20  -4  137.20    9.39
   4  20  -5    1.07    2.00
   4  20  -6  270.36   13.29
   4  20  -7    1.02    1.98
   4  20  -8  155.03    9.98
   4  20  -9    1.86    2.33
   4  20 -10   43.99    5.36
   4  20 -11    3.02    2.05
   4  20 -12   12.87    3.24
   4  20 -13    4.79    2.61
   4  20 -14   40.01    5.00
   4  20 -15   52.57    5.68
   5   0   0    1.74    1.28
  -5   0   0   -0.37    0.65
   5   0   1    0.88    1.34
   5   0  -1   -0.36    1.10
  -5   0  -1   -0.16    0.62
  -5   0   1    1.90    0.90
   5   0   2  353.92   10.52
   5   0  -2  350.06   10.31
   5   0  -2  343.17    8.93
  -5   0  -2  340.74    7.73
  -5   0   2  352.16    9.03
   5   0  -3    0.81    0.79
   5   0   3   -0.21    1.20
   5   0  -3   -1.50    1.27
  -5   0   3    0.20    0.80
   5   0  -4   17.01    1.93
  -5   0  -4   15.77    2.21
   5   0  -4   14.81    2.14
  -5   0   4   16.22    1.90
  -5   0  -5   -2.04    1.28
   5   0  -5    0.47    0.93
  -5   0   5   -1.10    1.22
  -5   0  -6  231.75    8.55
   5   0  -6  218.14    7.61
  -5   0   6  214.58    7.60
  -5   0  -7    0.55    1.07
   5   0  -7    2.10    1.27
  -5   0   7   -0.30    1.00
  -5   0  -8   58.49    4.24
   5   0  -8   55.53    3.89
  -5   0   8   55.97    3.95
   5   0  -9   -1.35    1.23
  -5   0  -9   -1.39    1.24
  -5   0   9   -0.44    1.29
   5   0 -10    1.55    1.12
  -5   0  10   -2.62    1.67
   5   0 -11    0.89    1.16
  -5   0  11   -0.03    1.46
  -5   0  12  829.89   19.77
   5   0 -13    0.63    0.35
  -5   0  13    1.01    1.57
  -5   0  14   43.68    4.06
  -5   0  15   -3.04    2.03
  -5   0  16  107.28    6.73
  -5   0  17    1.35    1.76
  -5   0  18  221.00   10.16
  -5   0  19   -4.86    2.64
  -5   0  20   -1.19    1.91
  -5   0  21   -0.55    2.02
  -5   0  22  249.35   11.72
  -5   0  23    1.16    2.10
  -5   0  24  111.33    8.13
  -5   0  25   -0.97    2.08
   5  -1   0   -0.84    1.26
   5   1   0   -1.11    1.15
   5  -1   0   -0.46    0.58
  -5  -1   0    0.70    0.71
  -5   1   0    0.59    0.67
   5   1  -1   89.43    4.82
   5  -1   1   82.84    4.80
   5   1   1   83.16    4.73
   5  -1  -1   82.91    4.76
   5  -1  -1   82.79    3.79
   5  -1   1   84.38    3.50
  -5   1   1   86.40    3.91
  -5  -1  -1   87.21    3.54
  -5  -1   1   89.37    3.94
   5   1  -2  132.36    5.80
   5  -1   2  124.53    5.87
   5   1   2  116.98    5.67
   5  -1  -2  116.58    5.67
   5  -1   2  110.58    3.85
   5  -1  -2  114.13    4.69
  -5  -1  -2  113.96    3.93
  -5  -1   2  117.27    4.76
  -5   1   2  113.49    4.73
   5  -1  -3   55.25    3.92
  -5  -1  -3   53.28    3.90
   5  -1   3   56.01    3.99
   5   1   3   55.16    3.95
   5   1  -3   56.70    3.82
   5  -1  -3   55.13    3.31
  -5   1   3   55.73    3.36
  -5  -1   3   56.05    3.36
  -5  -1  -3   51.80    2.41
   5  -1   4  129.55    6.12
   5  -1  -4  127.89    6.01
  -5  -1  -4  129.25    6.08
   5   1  -4  131.81    5.88
   5  -1  -4  135.66    5.47
  -5  -1  -4  124.75    3.57
  -5   1   4  121.85    5.26
  -5  -1   4  121.46    5.26
   5   1  -5  255.06    8.66
  -5   1  -5  278.18    9.40
  -5  -1  -5  266.22    9.20
   5  -1  -5  277.32    8.50
  -5   1   5  261.25    8.31
  -5  -1   5  274.96    8.50
  -5  -1  -6  195.55    7.78
  -5   1  -6  184.31    7.62
   5  -1  -6  194.87    7.12
  -5   1   6  183.14    6.96
  -5  -1   6  185.01    6.97
  -5  -1  -7    7.06    1.65
  -5   1  -7    8.25    1.79
   5  -1  -7    7.40    1.50
  -5  -1   7    8.46    1.84
  -5   1   7    7.48    1.64
  -5   1  -8    0.70    1.18
  -5  -1  -8    0.89    1.23
   5  -1  -8   -0.72    1.03
  -5  -1   8    0.98    1.04
  -5   1   8    0.04    1.02
  -5  -1  -9   47.88    3.91
  -5   1  -9   47.74    3.98
   5  -1  -9   53.08    3.88
  -5  -1   9   52.53    3.94
  -5   1   9   47.47    3.68
   5  -1 -10   32.59    3.07
  -5  -1  10   28.33    3.03
  -5   1  10   26.67    3.02
  -5  -1  11   23.85    2.85
   5  -1 -11   22.29    2.71
  -5   1  11   25.46    3.09
   5  -1 -12  224.29    5.12
  -5   1  12  228.13    9.11
  -5  -1  12  221.75    9.00
  -5  -1  13   17.06    2.68
   5  -1 -13   20.61    1.06
  -5   1  13   27.27    3.29
  -5   1  14  191.30    8.64
  -5  -1  14  179.15    8.36
  -5  -1  15  501.91   15.18
  -5   1  15  493.61   15.13
  -5  -1  16   84.54    5.96
  -5   1  16   87.78    6.02
  -5  -1  17    5.76    2.10
  -5   1  17    2.78    1.61
  -5  -1  18   57.76    5.25
  -5   1  18   62.48    5.42
  -5  -1  19  516.24   16.60
  -5   1  19  502.60   16.54
  -5   1  20   96.09    6.99
  -5  -1  20   96.89    7.00
  -5   1  21    2.60    1.91
  -5  -1  21    3.55    2.05
  -5   1  22  197.25   10.38
  -5  -1  22  205.18   10.52
  -5   1  23    1.51    1.72
  -5  -1  23    4.90    2.38
  -5   1  24   -0.22    1.85
  -5  -1  24    2.04    1.97
  -5   1  25  100.16    7.81
  -5  -1  25  100.88    7.90
   5  -2   0   -0.26    1.11
   5   2   0   -1.88    1.31
  -5  -2   0   -0.06    0.71
   5  -2   0    0.20    0.62
   5  -2   1  115.04    5.69
   5   2  -1  104.76    5.24
   5   2   1  111.23    5.38
   5  -2  -1  109.99    5.53
   5  -2  -1  111.31    4.49
   5  -2   1  105.27    4.04
  -5  -2  -1  106.44    4.04
  -5  -2   1  111.86    4.50
   5  -2   2  143.26    6.34
   5   2   2  135.33    6.10
   5  -2  -2  132.81    6.16
   5   2  -2  142.03    6.08
   5  -2  -2  136.16    5.24
  -5  -2  -2  136.54    4.45
   5  -2   2  134.59    4.40
  -5  -2   2  142.12    5.33
   5   2  -3    0.58    1.13
   5  -2  -3    0.49    1.16
  -5  -2  -3    2.15    1.07
   5  -2   3    0.86    1.09
  -5  -2   3    2.18    1.04
   5  -2  -3    1.05    0.69
   5  -2   3    1.08    0.54
  -5  -2  -3    2.13    0.68
  -5   2   3   -0.01    0.82
   5  -2   4   40.15    3.42
   5   2  -4   39.86    3.17
  -5  -2  -4   42.80    3.46
   5  -2  -4   42.27    3.06
  -5  -2   4   44.78    3.17
   5  -2   4   40.34    1.99
  -5   2   4   43.94    3.14
  -5  -2  -4   42.01    2.01
   5   2  -5  662.50   15.28
  -5  -2  -5  684.91   16.15
   5  -2   5  665.62   15.97
   5  -2  -5  677.05   15.02
   5  -2   5  634.21   11.08
  -5  -2   5  657.59   14.89
  -5   2   5  659.29   14.90
  -5  -2  -5  656.50   11.20
  -5  -2  -6    5.10    1.60
  -5   2  -6    6.66    1.84
   5   2  -6    1.19    1.15
  -5  -2   6    3.41    1.45
   5  -2  -6    5.06    1.37
  -5  -2  -6    4.89    0.57
  -5   2   6    4.42    1.29
  -5  -2  -7    4.50    1.47
  -5   2  -7    3.78    1.60
  -5  -2   7    2.05    1.20
   5  -2  -7    3.57    1.24
  -5   2   7    2.02    1.08
  -5  -2  -8   53.62    4.15
  -5   2  -8   50.23    3.94
   5  -2  -8   49.47    3.68
  -5  -2   8   52.75    3.90
  -5   2   8   45.61    3.61
  -5  -2  -9  134.63    6.69
  -5   2  -9  124.82    6.49
   5  -2  -9  138.25    6.39
  -5  -2   9  130.96    6.31
  -5   2   9  125.27    6.18
   5  -2 -10   41.72    3.57
   5  -2 -10   48.74    2.52
  -5   2  10   51.06    4.01
  -5  -2  10   45.92    3.84
   5  -2 -11  332.96    7.42
  -5  -2  11  326.90   10.95
  -5   2  11  330.44   11.06
   5  -2 -12   98.05    3.21
  -5   2  12   90.24    5.61
  -5  -2  12   90.94    5.68
   5  -2 -13   47.95    1.82
  -5   2  13   44.23    4.07
  -5  -2  13   46.35    4.16
  -5  -2  14    8.58    2.15
  -5   2  14    8.16    2.17
  -5   2  15  631.54   17.55
  -5  -2  15  637.11   17.61
  -5  -2  16   53.33    4.75
  -5   2  16   49.39    4.62
  -5  -2  17   -1.34    1.72
  -5   2  17   -0.41    1.54
  -5  -2  18   39.16    4.31
  -5   2  18   28.01    3.65
  -5   2  19  220.99   10.58
  -5  -2  19  234.12   10.70
  -5   2  20   62.48    5.64
  -5  -2  20   63.08    5.74
  -5   2  21  105.74    7.52
  -5  -2  21  113.83    7.72
  -5   2  22   93.59    7.11
  -5  -2  22  100.99    7.38
  -5  -2  23    6.21    2.66
  -5   2  23    2.58    2.11
  -5  -2  24    2.25    1.81
  -5   2  24   -0.65    1.83
  -5   2  25  151.28    9.71
  -5  -2  25  147.29    9.48
   5   3   0   -0.07    1.08
   5  -3   0   -0.03    1.24
   5  -3   0    2.84    1.00
  -5  -3   0    1.11    1.02
   5   3  -1    1.21    1.42
   5  -3   1   -0.81    1.42
   5  -3  -1    3.40    1.56
   5   3   1    1.93    1.35
   5  -3   1    3.60    1.13
   5  -3  -1    5.66    1.44
  -5  -3   1    3.05    1.20
  -5  -3  -1    1.92    0.98
   5  -3   2 1106.60   22.77
   5   3  -2 1114.38   21.88
  -5  -3  -2 1130.52   22.45
   5  -3  -2 1134.87   22.89
  -5  -3  -2 1113.24   19.28
   5  -3   2 1087.00   19.19
   5  -3  -2 1100.77   20.68
  -5  -3   2 1105.29   20.79
   5  -3   3    5.18    1.72
   5   3  -3    1.87    1.09
  -5  -3  -3    6.22    1.63
   5  -3   3    4.29    0.97
   5  -3  -3    4.84    1.30
  -5  -3   3    3.34    1.29
  -5  -3  -3    3.12    0.91
   5   3  -4   16.60    2.04
   5  -3   4   11.20    1.81
  -5  -3  -4   17.80    2.29
   5  -3  -4   19.51    2.05
  -5  -3   4   16.59    2.09
   5  -3   4   16.15    1.40
  -5  -3  -4   18.88    1.47
   5  -3   5   65.37    4.40
   5   3  -5   72.43    4.20
  -5  -3  -5   68.97    4.50
  -5  -3  -5   73.38    2.71
   5  -3   5   68.88    2.63
   5  -3  -5   76.13    4.30
  -5  -3   5   67.15    4.06
  -5  -3  -6    6.23    1.70
  -5   3  -6    9.06    1.85
   5   3  -6    6.27    1.29
  -5  -3  -6    5.31    0.67
  -5  -3   6    4.89    1.27
   5  -3  -6    3.08    1.09
   5  -3   6    5.16    0.65
   5   3  -7   33.80    3.02
  -5  -3  -7   31.68    3.11
  -5   3  -7   36.92    3.47
   5  -3   7   34.79    1.38
  -5  -3  -7   33.84    1.41
  -5  -3   7   32.42    3.09
   5  -3  -7   34.80    3.05
  -5   3   7   35.51    3.16
  -5  -3  -8  425.31   12.55
  -5   3  -8  428.43   12.65
   5  -3  -8  426.42   12.06
  -5  -3   8  408.40   11.86
  -5   3   8  392.55   11.67
   5  -3  -9    2.52    1.10
  -5  -3   9    3.26    1.47
  -5  -3  -9    4.11    1.60
  -5   3  -9    1.86    1.26
   5  -3  -9    6.59    1.12
  -5   3   9    4.69    1.70
   5  -3 -10    9.21    1.98
  -5  -3  10    9.20    2.07
   5  -3 -10   10.27    1.24
  -5   3  10    9.88    1.93
  -5  -3  11   -0.20    1.33
   5  -3 -11    0.28    0.52
  -5   3  11    0.13    1.24
  -5  -3  12  329.50   11.40
   5  -3 -12  345.23    7.47
  -5   3  12  326.76   11.29
  -5  -3  13   75.71    5.27
   5  -3 -13   81.05    2.75
  -5   3  13   75.14    5.38
   5   3 -13   83.26    2.99
  -5  -3  14   26.62    3.26
   5   3 -14   34.43    1.56
  -5   3  14   28.98    3.41
  -5  -3  15   38.40    3.94
  -5   3  15   39.18    4.01
  -5  -3  16   33.69    3.78
  -5   3  16   23.43    3.22
  -5   3  17   62.53    5.41
  -5  -3  17   65.94    5.43
  -5  -3  18   20.18    3.23
  -5   3  18   14.10    2.90
  -5  -3  19   38.60    4.34
  -5   3  19   37.45    4.30
  -5  -3  20  123.05    7.93
  -5   3  20  111.32    7.46
  -5  -3  21   48.33    4.98
  -5   3  21   36.59    4.55
  -5   3  22  181.50   10.04
  -5  -3  22  180.35    9.96
  -5  -3  23   56.75    5.76
  -5   3  23   52.14    5.53
  -5  -3  24   17.03    3.35
  -5   3  24   15.48    3.25
  -5   3  25   -0.97    2.44
  -5  -3  25    2.70    2.26
   5  -4   0    1.57    1.21
   5   4   0   -0.23    1.03
  -5  -4   0    2.19    1.32
   5  -4   0    2.47    1.29
   5   4  -1  878.18   18.37
   5  -4  -1  891.38   19.46
   5  -4   1  889.87   19.40
  -5  -4   1  872.97   17.27
  -5  -4  -1  865.01   16.62
   5  -4   1  871.51   16.58
   5  -4  -1  868.64   17.22
   5  -4   2  257.28    9.10
   5   4  -2  259.68    8.40
   5  -4  -2  262.20    9.18
  -5  -4  -2  254.78    8.60
  -5  -4   2  258.02    7.86
  -5  -4  -2  251.28    6.96
   5  -4  -2  249.32    7.78
   5  -4   2  254.69    6.90
   5   4  -3  109.99    5.18
   5  -4   3  109.16    5.68
  -5  -4  -3  104.03    5.37
  -5  -4   3  106.88    4.93
   5  -4  -3  102.45    4.80
  -5  -4  -3  101.21    3.96
   5  -4   3  104.09    3.92
   5  -4   4   38.45    3.47
  -5  -4  -4   42.01    3.45
   5   4  -4   35.59    2.96
  -5  -4   4   33.79    2.89
   5  -4  -4   38.19    3.01
  -5  -4  -4   42.18    2.37
   5  -4   4   40.88    2.29
   5  -4   5  602.23   15.28
   5   4  -5  607.74   14.15
  -5  -4  -5  612.94   15.21
  -5  -4   5  612.02   14.50
   5  -4  -5  611.59   14.43
  -5  -4  -5  595.88   11.42
   5  -4   5  603.01   11.38
   5   4  -6   63.77    3.90
   5  -4   6   65.30    4.46
  -5  -4  -6   69.71    4.56
  -5  -4   6   58.72    4.01
   5  -4  -6   69.23    4.28
  -5  -4  -6   68.02    2.69
   5  -4   6   67.13    2.62
  -5  -4  -7  246.47    9.00
  -5   4  -7  237.72    8.94
   5   4  -7  239.12    8.03
  -5  -4   7  232.97    8.46
   5  -4  -7  242.18    8.61
  -5  -4  -7  232.89    5.35
   5  -4   7  233.33    5.28
   5  -4  -8   27.50    2.85
  -5  -4  -8   23.01    1.29
  -5  -4   8   22.57    2.72
  -5  -4  -8   23.75    2.84
  -5   4  -8   21.80    2.75
   5   4  -8   22.95    2.57
   5  -4  -8   23.03    2.09
   5  -4   8   22.97    1.25
  -5  -4  -9  126.27    3.01
   5  -4  -9  123.90    6.27
  -5  -4   9  119.82    6.25
  -5  -4  -9  135.63    6.74
   5  -4  -9  126.17    4.78
   5  -4   9  124.79    2.90
   5  -4 -10    6.61    1.73
  -5  -4  10    9.64    2.13
   5  -4 -10    6.72    1.19
  -5  -4  11  503.55   14.52
   5  -4 -11  504.81   10.76
  -5  -4  12  336.49   11.65
   5  -4 -12  349.15    7.99
  -5  -4  13  114.32    6.59
   5   4 -13  119.10    4.10
   5  -4 -13  125.65    3.92
  -5  -4  14    0.12    1.68
   5   4 -14    1.38    0.63
  -5  -4  15  188.28    8.97
   5   4 -15  208.66    4.62
  -5  -4  16    3.79    1.64
  -5  -4  17    2.11    1.52
  -5  -4  18   44.35    4.61
  -5  -4  19  399.03   14.64
  -5  -4  20    4.26    2.09
  -5  -4  21   46.91    5.08
  -5  -4  22   13.80    2.94
  -5  -4  23  176.71   10.21
  -5  -4  24   35.27    4.74
  -5  -4  25  220.10   11.77
  -5  -5   0    1.52    0.93
   5  -5   0   -0.11    1.36
   5  -5   0   -0.34    0.85
   5   5  -1   41.37    3.22
   5  -5  -1   47.28    3.80
   5  -5   1   40.37    3.47
  -5  -5   1   46.81    3.15
  -5  -5  -1   46.88    2.99
   5  -5   1   40.84    2.73
   5  -5  -1   45.58    3.05
   5   5  -2  183.64    6.75
   5  -5  -2  180.28    7.53
  -5  -5  -2  181.89    7.10
   5  -5   2  178.03    7.40
  -5  -5   2  177.27    6.56
  -5  -5  -2  182.12    5.92
   5  -5   2  177.96    5.81
   5  -5  -2  182.76    6.62
  -5  -5  -3    7.72    1.23
   5   5  -3    6.08    1.39
   5  -5   3    4.83    1.34
  -5  -5  -3    6.04    1.49
  -5  -5   3    8.73    1.72
   5  -5  -3    7.78    1.43
   5  -5   3    5.07    0.95
   5   5  -4  265.57    8.34
   5  -5   4  254.63    9.14
  -5  -5  -4  262.21    8.96
  -5  -5   4  257.33    8.54
   5  -5   4  258.30    6.89
   5  -5  -4  280.58    8.75
   5  -5   5  626.24   15.58
  -5  -5  -5  620.40   15.34
   5   5  -5  607.25   14.11
  -5  -5   5  617.03   14.84
   5  -5  -5  610.31   14.76
   5  -5   5  605.81   12.01
  -5  -5   6   49.34    3.75
  -5  -5  -6   46.37    3.77
   5  -5   6   39.72    3.58
   5   5  -6   52.31    3.47
   5  -5  -6   47.00    3.22
   5  -5  -6   45.69    3.52
   5  -5   6   45.96    2.45
  -5  -5   7   46.71    3.74
   5  -5  -7   48.02    3.71
  -5  -5  -7   46.02    3.74
   5   5  -7   43.10    3.19
   5  -5  -7   43.78    3.03
   5  -5   7   46.90    2.30
  -5  -5   8   98.60    5.59
   5  -5  -8   97.27    5.47
  -5  -5  -8   99.12    5.63
   5   5  -8   91.87    4.78
   5  -5  -8   95.43    4.43
   5  -5   8   95.45    3.24
  -5  -5   9  173.27    7.61
   5  -5  -9  187.27    7.88
   5   5  -9  177.83    6.78
   5  -5  -9  177.02    6.03
   5  -5   9  168.12    4.39
  -5  -5  10    0.13    1.34
   5  -5 -10    0.05    0.69
   5  -5  10    0.44    0.41
  -5  -5  11   53.97    4.38
   5  -5 -11   50.39    2.89
   5  -5  11   50.19    1.90
  -5  -5 -11   54.66    2.01
   5  -5  12   47.42    1.65
  -5  -5  12   43.71    4.11
   5  -5 -12   47.72    2.69
   5  -5  12   47.79    1.69
  -5  -5 -12   45.39    1.74
   5  -5  13   20.91    0.99
  -5  -5  13   22.39    3.22
   5   5 -13   24.34    1.96
   5  -5 -13   21.84    1.74
  -5  -5 -13   22.23    1.08
   5  -5  13   21.80    1.03
  -5  -5 -14  127.82    2.86
  -5  -5  14  136.07    7.49
   5   5 -14  135.13    4.43
  -5  -5 -15  246.74    4.50
  -5  -5  15  259.61   10.71
   5   5 -15  278.68    6.31
  -5  -5  16    2.16    1.79
   5   5 -16    4.05    0.69
  -5  -5  17    6.95    2.24
  -5  -5  18   15.69    2.92
  -5  -5  19   31.32    3.95
  -5  -5  20   32.89    4.46
  -5  -5  21    3.51    2.25
  -5  -5  22   -0.92    1.96
  -5  -5  23    6.04    2.38
  -5  -5  24    2.82    1.87
   5  -6   0    2.70    1.47
   5  -6   0    0.83    0.99
  -5  -6  -1  141.61    6.10
   5  -6  -1  148.20    6.88
   5  -6   1  138.85    6.65
  -5  -6   1  140.36    5.85
   5  -6   1  147.10    5.63
   5  -6  -1  149.26    5.95
  -5  -6  -2 1676.00   30.23
   5   6  -2 1632.54   29.27
   5  -6   2 1646.19   31.12
  -5  -6   2 1669.25   29.62
   5  -6  -2 1692.52   29.66
   5  -6   2 1644.05   28.28
  -5  -6  -3    1.23    1.28
   5   6  -3   -0.91    1.12
  -5  -6   3    3.81    1.57
   5  -6   3    0.45    1.51
   5  -6  -3    1.48    1.14
   5  -6   3   -0.19    0.67
  -5  -6   4  620.30   14.97
   5  -6   4  614.75   15.69
   5   6  -4  626.45   14.22
  -5  -6  -4  616.54   15.22
   5  -6  -4  626.41   14.69
   5  -6   4  624.21   13.01
   5  -6  -4  643.66   15.11
  -5  -6   5  106.69    5.53
   5   6  -5  104.62    4.94
   5  -6   5  103.86    5.72
  -5  -6  -5  104.65    5.54
   5  -6  -5  103.01    5.05
   5  -6   5   99.35    4.07
   5  -6  -5  108.27    5.49
  -5  -6   6  302.10   10.02
   5   6  -6  316.17    9.13
   5  -6   6  298.53   10.16
  -5  -6  -6  299.06   10.10
   5  -6  -6  322.55    9.29
   5  -6  -6  313.65   10.10
   5  -6   6  296.54    7.61
  -5  -6   7  131.20    6.36
  -5  -6  -7  116.79    6.10
   5   6  -7  126.72    5.42
   5  -6  -7  128.18    5.47
   5  -6   7  120.35    4.30
   5  -6  -7  130.55    6.34
  -5  -6   8  357.17   11.44
  -5  -6  -8  354.73   11.44
   5   6  -8  363.46   10.05
   5  -6  -8  357.82    9.76
   5  -6  -8  369.70   11.50
  -5  -6   9   43.27    3.85
   5  -6  -9   46.43    3.17
   5   6  -9   48.89    3.41
  -5  -6  10   60.90    4.64
   5  -6 -10   59.41    3.41
   5   6 -10   60.65    3.84
  -5  -6  11   50.75    4.41
   5  -6 -11   51.49    3.14
  -5  -6  12  418.83   13.59
   5  -6 -12  416.69   10.06
   5   6 -12  447.80   10.66
  -5  -6  13  110.10    6.70
   5   6 -13  120.17    4.75
  -5  -6 -13  115.13    3.57
   5  -6  14    1.29    0.60
  -5  -6 -14   -0.06    0.41
  -5  -6  14    1.59    1.68
   5   6 -14    0.59    0.75
   5  -6  15   11.81    1.04
  -5  -6  15    9.83    2.53
  -5  -6 -15   10.60    0.98
   5   6 -15   10.10    1.32
  -5  -6 -16   34.30    1.75
  -5  -6  16   34.77    4.15
   5  -6  16   38.11    1.79
   5   6 -16   33.78    2.03
  -5  -6  17    0.25    1.81
   5  -6  17    2.05    0.65
  -5  -6  18  111.07    7.36
  -5  -6  19   84.79    6.58
  -5  -6  20   -0.88    2.18
  -5  -6  21   40.76    4.77
  -5  -6  22  197.74   10.69
  -5  -6  23  109.10    8.04
  -5  -6  24   51.96    5.78
   5  -7   0   -0.22    1.64
   5  -7   0    0.22    0.95
  -5  -7  -1  217.31    7.77
   5  -7  -1  227.72    8.73
   5  -7   1  207.94    8.31
   5  -7  -1  230.45    8.42
   5  -7   1  224.58    7.45
   5  -7  -1  224.65    7.76
   5  -7   2  543.23   14.53
  -5  -7  -2  559.85   13.77
   5  -7  -2  575.91   14.36
   5  -7   2  536.07   12.70
   5  -7  -2  544.25   13.61
  -5  -7   3  104.88    5.37
   5  -7   3  109.18    5.88
  -5  -7  -3  107.37    5.38
   5  -7  -3  113.03    5.57
   5  -7   3  107.54    4.71
   5  -7  -3   99.83    5.24
  -5  -7  -4   27.42    2.81
  -5  -7   4   24.97    2.81
   5  -7   4   23.55    2.74
   5   7  -4   23.06    2.30
   5  -7  -4   26.67    2.67
   5  -7   4   25.53    2.24
   5  -7  -4   23.86    2.59
   5  -7  -5   17.05    2.26
   5  -7  -5   13.81    2.04
  -5  -7   5   11.76    2.11
   5  -7   5   11.76    2.08
  -5  -7  -5   11.52    1.93
   5   7  -5   12.77    1.83
   5  -7  -6   17.55    2.32
   5   7  -6   13.43    1.78
   5  -7   6   14.42    2.32
  -5  -7   6   12.58    2.10
  -5  -7  -6   13.19    2.14
   5  -7  -6   16.48    2.09
  -5  -7   7   83.72    5.20
   5   7  -7   89.57    4.44
  -5  -7  -7   86.05    5.21
   5  -7   7   87.83    5.32
   5  -7  -7   82.44    4.56
   5  -7  -7   88.06    5.28
  -5  -7   8   32.73    3.33
   5  -7  -8   33.54    2.91
  -5  -7  -8   33.76    3.36
   5   7  -8   34.64    2.79
  -5  -7   9   90.90    5.68
   5   7  -9   96.31    4.69
   5  -7  -9   89.96    4.61
   5   7 -10   14.76    1.94
  -5  -7  10   12.48    2.37
   5  -7 -10   15.66    2.02
  -5  -7  11  181.62    8.40
   5   7 -11  182.80    6.77
   5  -7 -11  177.61    6.44
  -5  -7  12   94.58    6.15
   5   7 -12   92.18    4.73
   5   7 -12   96.52    4.64
   5  -7 -12   93.33    4.39
  -5  -7  13  401.99   13.73
   5   7 -13  426.00   10.69
  -5  -7  14   92.86    6.38
   5   7 -14   96.61    4.36
  -5  -7 -14   93.73    3.58
  -5  -7  15    7.97    2.11
   5  -7  15    8.69    1.17
   5   7 -15    7.68    1.27
  -5  -7 -15    7.73    1.07
  -5  -7  16   32.46    3.91
   5  -7  16   36.35    2.11
   5   7 -16   36.30    2.42
   5  -7  17    3.14    0.90
  -5  -7  17   -0.64    1.52
   5   7 -17    2.44    0.81
  -5  -7  18    5.94    2.15
  -5  -7  19   -0.64    1.94
  -5  -7  20    0.73    1.70
  -5  -7  21  152.63    9.25
  -5  -7  22   28.89    4.42
  -5  -7  23  170.22   10.13
   5  -8   0   -1.47    1.67
   5  -8   0   -0.13    1.06
  -5  -8  -1  238.14    8.10
   5  -8   1  246.73    9.15
   5  -8  -1  248.36    9.30
   5  -8   1  247.84    9.29
   5  -8  -1  249.03    9.13
   5  -8   1  234.42    7.99
   5  -8  -1  249.11    8.55
  -5  -8  -2  553.23   13.81
   5  -8   2  562.68   14.96
   5  -8   2  603.48   15.63
   5  -8  -2  575.70   14.88
   5  -8   2  545.03   13.29
   5  -8  -2  568.36   14.29
   5  -8   3   19.59    2.67
  -5  -8  -3   20.10    2.39
   5  -8  -3   21.75    2.66
   5  -8  -3   17.89    2.33
   5  -8   4  440.82   12.92
  -5  -8  -4  448.00   12.37
   5  -8  -4  464.11   12.76
   5  -8  -4  456.18   12.78
  -5  -8  -5   86.00    5.07
   5  -8   5   79.89    5.09
   5   8  -5   92.55    4.50
   5  -8  -5   90.92    5.09
   5  -8  -5   99.64    5.55
  -5  -8   6  348.26   11.30
  -5  -8  -6  361.67   11.20
   5  -8   6  337.50   11.15
   5   8  -6  361.19    9.70
   5  -8  -6  372.03   10.95
   5  -8  -6  358.30   11.43
  -5  -8   7   87.69    5.44
   5  -8  -7  103.93    5.33
  -5  -8  -7   90.50    5.39
   5   8  -7   91.22    4.44
   5  -8   7   94.95    5.57
  -5  -8   8  259.15    9.96
   5   8  -8  274.18    8.22
  -5  -8  -8  273.45    9.86
   5  -8  -8  267.15    8.88
   5   8  -9    7.78    1.52
  -5  -8   9   10.93    2.25
   5  -8  -9    9.20    1.75
  -5  -8  10   60.73    4.92
   5   8 -10   62.43    3.66
   5  -8 -10   61.30    3.94
  -5  -8  11  115.87    6.73
   5   8 -11  124.19    5.32
   5  -8 -11  115.63    5.32
   5   8 -11  122.25    5.66
  -5  -8  12   57.30    4.85
   5   8 -12   61.70    3.80
   5   8 -12   62.01    3.90
   5  -8 -12   55.29    3.61
  -5  -8  13   55.68    4.90
   5   8 -13   58.20    3.71
   5   8 -13   58.91    3.75
  -5  -8  14   89.47    6.34
   5   8 -14   95.20    4.59
  -5  -8 -14   91.73    3.94
  -5  -8  15    0.16    1.83
   5   8 -15    1.59    0.96
  -5  -8  16  123.77    7.71
   5  -8  16  122.90    4.52
   5   8 -16  128.05    5.09
  -5  -8  17   -1.95    1.52
   5  -8  17    2.45    0.90
   5   8 -17    0.93    0.86
  -5  -8  18  158.17    9.11
  -5  -8  19    7.95    2.53
  -5  -8  20   23.28    4.01
  -5  -8  21   36.82    4.67
  -5  -8  22   85.38    7.09
  -5  -8  23   52.79    5.67
   5  -9   0    0.85    1.20
   5  -9   0    1.21    1.08
   5  -9  -1  148.44    7.09
  -5  -9  -1  153.44    6.29
   5  -9   1  156.52    7.22
   5  -9  -1  170.71    7.58
   5  -9  -1  154.86    6.76
  -5  -9  -2   53.35    3.68
   5  -9   2   48.47    4.03
   5  -9  -2   55.08    4.30
   5  -9  -2   57.49    4.11
  -5  -9  -3  335.89   10.24
   5  -9   3  313.98   10.79
   5  -9  -3  346.00   11.19
   5  -9  -3  347.76   10.98
   5  -9   4  554.80   15.13
  -5  -9  -4  575.88   14.53
   5  -9  -4  601.69   15.39
   5  -9  -4  590.38   15.39
   5  -9  -5    1.73    1.12
   5  -9   5    5.03    1.74
  -5  -9  -5    2.26    1.07
   5  -9  -6   20.38    2.69
  -5  -9  -6   21.98    2.67
   5  -9   6   19.64    2.59
   5  -9  -7   19.26    2.50
  -5  -9   7   25.40    3.19
  -5  -9  -7   21.43    2.63
   5   9  -7   22.46    2.20
   5  -9   7   15.50    2.36
  -5  -9   8  107.19    6.38
   5  -9  -8  113.37    5.72
   5   9  -8  115.81    4.91
  -5  -9   9   81.77    5.67
   5   9  -9   88.09    4.27
   5  -9  -9   87.51    4.95
  -5  -9  10    1.21    1.35
   5   9 -10    2.30    0.91
   5  -9 -10    3.77    1.29
   5   9 -10    4.07    1.47
   5   9 -11   23.97    2.22
  -5  -9  11   28.18    3.44
   5   9 -11   28.95    2.95
   5  -9 -11   23.70    2.53
   5   9 -12   11.01    1.64
  -5  -9  12   10.84    2.68
   5   9 -12    7.10    1.72
  -5  -9  13   51.49    4.86
   5   9 -13   55.24    3.81
   5   9 -13   49.34    3.28
  -5  -9  14  224.18   10.36
   5   9 -14  237.85    8.10
   5   9 -14  240.20    7.76
  -5  -9  15    5.30    2.32
   5   9 -15    5.98    1.46
   5   9 -15    2.65    1.12
  -5  -9  16  119.34    7.85
   5   9 -16  134.37    5.60
  -5  -9  17    1.29    2.05
   5   9 -17   -0.74    0.75
   5  -9  17    0.77    0.74
  -5  -9  18   20.51    3.67
  -5  -9  19   -0.67    1.65
  -5  -9  20   24.84    4.03
  -5  -9  21   -0.45    1.78
  -5  -9  22    5.88    2.43
   5 -10   0    2.50    1.41
   5 -10  -1  343.90   11.49
  -5 -10  -1  341.53    9.97
   5 -10   1  339.10   11.34
   5 -10  -1  365.51   11.24
   5 -10   2    9.39    2.17
  -5 -10  -2    5.38    1.43
   5 -10  -2    9.27    1.92
  -5 -10  -3  133.78    6.10
   5 -10   3  146.93    7.05
   5 -10  -3  146.99    7.16
   5 -10  -3  133.36    6.72
  -5 -10  -4    5.85    1.61
   5 -10   4    6.64    1.78
   5 -10  -4    5.01    1.60
  -5 -10  -5  376.33   11.40
   5 -10   5  382.34   12.04
   5 -10  -5  389.43   12.15
  -5 -10  -6   30.45    3.16
   5 -10   6   28.94    3.10
   5 -10  -6   34.76    3.41
   5 -10   7    0.99    1.33
  -5 -10  -7    1.99    1.00
   5 -10  -7    0.44    0.89
   5 -10  -8    6.37    1.70
  -5 -10   9  237.37    9.98
   5  10  -9  238.15    7.13
   5 -10  -9  226.71    8.66
   5  10  -9  222.28    8.83
  -5 -10  10   98.66    6.51
   5  10 -10  102.81    4.45
   5 -10 -10   91.54    5.27
   5  10 -10   93.97    5.48
  -5 -10  11  235.86   10.33
   5  10 -11  241.25    7.26
   5  10 -11  240.15    8.90
   5 -10 -11  225.12    8.51
   5  10 -12   30.15    2.44
  -5 -10  12   30.17    3.99
   5  10 -12   28.77    3.07
  -5 -10  13  115.57    7.33
   5  10 -13  110.18    5.70
   5  10 -13  113.57    4.83
  -5 -10  14    2.47    1.69
   5  10 -14    0.82    0.99
   5  10 -14    1.46    0.77
  -5 -10  15  143.79    8.52
   5  10 -15  150.67    6.52
   5  10 -15  142.63    5.66
   5  10 -16    0.44    0.92
   5  10 -16    0.39    0.82
  -5 -10  17    2.79    1.89
   5  10 -17    7.89    1.49
  -5 -10  18    4.31    2.40
  -5 -10  19  138.95    8.96
  -5 -10  20    1.60    2.02
  -5 -10  21   60.51    5.93
   5 -11   0   -0.99    1.33
   5 -11  -1   29.41    3.31
  -5 -11  -1   29.56    2.72
   5 -11   1   27.99    3.33
   5 -11   2    2.45    1.54
  -5 -11  -2    1.92    1.03
  -5 -11  -3  369.20   10.86
   5 -11   3  377.20   12.05
   5 -11   4  136.99    6.94
  -5 -11  -4  140.24    6.41
  -5 -11  -5  107.56    5.66
   5 -11   5  110.79    6.21
  -5 -11  -6   10.51    1.94
   5 -11   6    6.76    1.82
   5 -11   7   -0.74    1.53
  -5 -11  -7    0.67    1.22
   5 -11  -7    0.79    1.05
   5 -11  -8   51.20    4.08
   5 -11  -9   49.83    4.03
   5  11  -9   56.89    4.57
  -5 -11  10   10.29    2.52
   5  11 -10   10.76    2.16
   5 -11 -10   10.78    2.06
  -5 -11  11    6.56    2.21
   5  11 -11    5.70    1.73
   5  11 -12    2.62    1.01
  -5 -11  12    4.08    2.21
   5  11 -12    1.38    1.13
  -5 -11  13   67.17    5.75
   5  11 -13   81.43    5.08
   5  11 -13   78.72    3.75
  -5 -11  14   41.99    4.74
   5  11 -14   48.72    3.89
   5  11 -14   47.17    2.92
  -5 -11  15    2.19    2.01
   5  11 -15    2.52    1.49
  -5 -11  16   99.44    7.32
   5  11 -16  113.23    5.76
  -5 -11  17    0.44    2.08
   5  11 -17   -1.09    1.06
  -5 -11  18   33.73    4.33
  -5 -11  19    4.63    2.36
  -5 -11  20   37.32    4.93
   5 -12   0   -2.33    1.44
   5 -12  -1   25.03    3.24
  -5 -12  -1   23.44    2.39
   5 -12   1   21.50    2.83
  -5 -12  -2   46.21    3.41
   5 -12   2   43.76    4.03
   5 -12   3   29.60    3.30
  -5 -12  -3   33.63    3.01
   5 -12   4  111.74    6.27
  -5 -12  -4  103.48    5.46
  -5 -12  -5  206.47    8.11
   5 -12   5  205.04    8.69
  -5 -12  -6  182.19    7.73
   5 -12   6  181.17    8.12
   5 -12   7   11.29    2.22
   5  12  -8  238.74    9.93
   5  12  -9   46.84    4.29
   5  12 -10    5.36    1.75
  -5 -12  11   36.85    4.48
   5  12 -11   35.11    3.70
  -5 -12  12  243.95   11.24
   5  12 -12  260.88    9.96
   5  12 -13    1.74    1.13
  -5 -12  13    0.35    1.56
  -5 -12  14  238.29   11.45
   5  12 -14  259.45    9.79
  -5 -12  15   73.89    6.46
   5  12 -15   76.71    5.10
  -5 -12  16  247.81   12.03
   5  12 -16  258.78    9.47
  -5 -12  17   11.24    3.15
  -5 -12  18  231.22   11.87
  -5 -12  19   87.87    7.37
   5 -13   0    2.46    1.64
   5 -13   1   32.19    3.59
  -5 -13  -1   32.53    2.81
   5 -13  -1   39.62    4.00
  -5 -13  -2  165.72    6.56
   5 -13   2  146.18    7.42
  -5 -13  -3   12.18    2.00
   5 -13   3   13.21    2.38
  -5 -13  -4    5.84    1.52
   5 -13   4    3.09    1.48
   5 -13   5   26.81    3.13
  -5 -13  -5   23.54    2.72
  -5 -13  -6   19.02    2.58
   5 -13   6   27.44    3.30
   5 -13   7   19.39    2.77
   5  13  -7   21.01    3.15
   5  13  -8    0.80    1.45
   5  13  -9  128.63    7.28
   5  13 -10    2.46    1.53
   5  13 -11   23.56    3.10
   5  13 -12   17.05    2.76
  -5 -13  12   14.80    3.15
   5  13 -13   32.44    3.51
  -5 -13  13   34.07    4.37
  -5 -13  14   60.72    5.80
   5  13 -14   51.83    4.43
  -5 -13  15  113.30    7.97
   5  13 -15  103.00    6.17
  -5 -13  16    1.58    2.02
   5  13 -16   -2.08    1.49
  -5 -13  17   -0.41    1.79
  -5 -13  18   -1.12    2.11
   5 -14   0   -0.77    1.43
   5 -14   1   14.33    2.60
   5 -14  -1   16.11    2.73
  -5 -14  -2  168.19    6.67
   5 -14   2  175.57    8.21
  -5 -14  -3   60.12    4.00
   5 -14   3   54.16    4.64
   5 -14   4  162.32    7.91
  -5 -14  -4  169.92    7.11
   5 -14   5   25.89    3.09
  -5 -14  -5   34.83    3.27
   5  14  -5   31.35    4.03
  -5 -14  -6   81.23    5.14
   5 -14   6   76.11    5.34
   5  14  -6   73.23    5.87
   5 -14   7   26.99    3.34
   5  14  -7   28.58    3.79
   5  14  -8  280.89   11.51
   5  14  -9  102.66    6.78
   5  14 -10    7.92    2.20
   5  14 -11   42.61    4.37
   5  14 -12  282.62   11.12
  -5 -14  13   87.69    7.04
   5  14 -13   99.44    6.40
   5  14 -14   27.30    3.53
  -5 -14  14   25.01    4.03
  -5 -14  15   74.23    6.72
   5  14 -15   68.20    5.20
  -5 -14  16  121.89    8.55
   5  14 -16  132.36    7.16
  -5 -14  17   -1.93    2.04
   5 -15   0    1.47    1.67
   5 -15   1   34.68    3.82
   5 -15  -1   35.03    3.83
   5 -15   2    8.38    2.07
   5 -15  -2   14.92    2.65
   5 -15   3   11.61    2.33
   5 -15   4   45.13    4.20
   5  15  -4   42.10    4.74
   5 -15   5  154.58    7.69
   5  15  -5  146.24    8.68
   5 -15   6   35.25    3.71
   5  15  -6   43.49    4.72
   5 -15   7   26.89    3.30
   5  15  -7   36.38    4.29
   5  15  -8    1.14    1.75
   5  15  -9   68.34    5.81
   5  15 -10   21.87    3.39
   5  15 -11   -0.64    1.62
   5  15 -12    1.62    1.45
   5  15 -13   11.31    2.60
  -5 -15  14   32.12    4.55
   5  15 -14   38.23    4.22
  -5 -15  15   38.04    4.81
   5  15 -15   45.37    4.44
   5 -16   0    0.04    1.42
   5 -16  -1  213.62    9.67
   5 -16   1  218.11    9.54
   5 -16  -2  110.07    6.90
   5 -16   2  109.44    6.63
   5  16  -2  123.61    8.26
   5 -16   3   19.78    2.91
   5  16  -3   23.53    3.80
   5 -16   4   16.03    2.59
   5  16  -4   15.65    3.36
   5 -16   5  398.20   13.09
   5  16  -5  377.85   14.77
   5 -16   6    1.02    1.32
   5  16  -6    0.66    1.64
   5 -16   7    2.16    1.53
   5  16  -7    2.21    1.88
   5  16  -8   40.90    4.64
   5  16  -9  222.38   10.76
   5  16 -10   31.35    4.10
   5  16 -11   35.78    4.29
   5  16 -12   23.30    3.58
   5  16 -13   45.78    4.74
   5  16 -14    3.87    2.13
   5  16 -15   97.12    6.76
   5 -17   0    0.51    1.39
   5 -17   1    8.13    2.41
   5 -17  -1   10.71    2.36
   5  17  -1    6.00    2.51
   5 -17  -2  255.56   10.90
   5 -17   2  270.89   10.83
   5  17  -2  292.71   13.29
   5 -17   3   38.13    3.97
   5  17  -3   41.13    4.95
   5 -17   4   53.14    4.73
   5  17  -4   59.74    5.94
   5 -17   5   20.71    2.96
   5  17  -5   24.40    3.88
   5 -17   6    8.17    2.01
   5  17  -6   11.29    3.06
   5  17  -7    2.01    2.02
   5  17  -8  156.08    9.28
   5  17  -9   46.79    5.15
   5  17 -10   -0.46    2.04
   5  17 -11    1.95    2.39
   5  17 -12   63.80    5.94
   5  17 -13   30.95    4.11
   5  17 -14    0.19    1.67
   5  17 -15   18.96    3.29
   5 -18   0   -0.21    1.37
   5  18   0   -0.77    2.04
   5 -18  -1   73.49    5.78
   5 -18   1   75.57    5.69
   5  18  -1   74.77    6.88
   5  18   1   87.25    7.49
   5 -18   2   60.43    5.04
   5 -18  -2   64.43    5.46
   5  18  -2   71.49    6.73
   5 -18  -3   -1.07    1.69
   5 -18   3    2.73    1.67
   5  18  -3    0.76    2.31
   5 -18   4    4.12    1.65
   5  18  -4    5.26    2.60
   5 -18   5  192.01    8.85
   5  18  -5  193.47   10.93
   5 -18   6    7.20    2.00
   5  18  -6    3.09    2.39
   5  18  -7    5.60    2.64
   5  18  -8   68.02    6.42
   5  18  -9   29.82    4.14
   5  18 -10   -0.60    1.77
   5  18 -11   17.30    3.37
   5  18 -12   48.62    5.40
   5  18 -13    4.83    2.29
   5  18 -14   12.57    2.95
   5 -19   0   -1.99    1.44
   5  19   0   -6.35    3.11
   5 -19   1    0.99    1.38
   5 -19  -1    5.87    2.06
   5  19  -1    4.79    2.54
   5  19   1    6.15    2.61
   5 -19   2   29.57    3.63
   5 -19  -2   31.52    3.88
   5  19  -2   35.30    5.04
   5  19   2   34.51    4.98
   5 -19   3   10.90    2.42
   5 -19  -3   11.62    2.71
   5  19  -3   13.49    3.33
   5 -19  -4    8.93    2.46
   5  19  -4    3.03    1.98
   5  19  -5  140.43    9.52
   5  19  -6   20.26    3.79
   5  19  -7   10.40    3.13
   5  19  -8   29.89    4.55
   5  19  -9   26.42    4.05
   5  19 -10   12.90    3.15
   5  19 -11    3.63    2.32
   5  19 -12   80.04    6.91
   5  19 -13   27.31    4.30
   5  19 -14   58.33    5.95
   5 -20  -1    0.08    1.77
   5 -20  -2  102.60    7.03
   5 -20  -3   -0.43    1.66
   5 -20  -4   47.49    4.90
   6   0   0  134.81    6.59
  -6   0   0  122.87    4.91
   6   0   1   -1.39    1.73
   6   0  -1   -1.68    1.59
  -6   0   1   -0.16    0.92
  -6   0  -1   -0.17    0.73
   6   0   2   13.39    2.20
   6   0  -2   12.68    2.28
  -6   0   2   14.77    1.78
   6   0  -3   -1.11    1.62
   6   0   3    0.34    1.30
  -6   0   3   -1.29    1.17
   6   0  -4  231.23    8.97
  -6   0   4  229.50    7.96
   6   0  -5    0.95    1.59
  -6   0   5    0.87    1.13
   6   0  -6  258.65    9.63
  -6   0   6  265.17    9.08
   6   0  -7    1.41    1.25
  -6   0   7   -0.93    1.20
   6   0  -8   24.69    2.94
  -6   0   8   29.40    3.10
  -6   0   9    0.69    1.38
  -6   0  10  349.80   11.67
  -6   0  11    0.53    1.45
  -6   0  12   30.85    3.58
  -6   0  13   -1.51    1.84
   6   0 -14   76.04    2.40
  -6   0  14   68.51    5.43
  -6   0  15   -0.01    1.69
  -6   0  16  230.31   10.51
  -6   0  17   -2.24    2.17
  -6   0  18   -1.32    2.07
  -6   0  19    0.52    1.72
  -6   0  20   40.47    4.78
  -6   0  21   -1.03    2.21
  -6   0  22   46.18    5.30
  -6   0  23   -0.36    1.73
   6  -1   0   76.34    5.12
   6   1   0   77.47    4.98
  -6  -1   0   71.90    3.74
   6   1  -1  364.01   11.39
   6  -1   1  366.53   11.66
   6   1   1  347.90   11.26
   6  -1  -1  372.66   11.70
   6  -1  -1  344.27    9.30
  -6   1   1  353.97    9.49
  -6  -1  -1  359.85    8.91
  -6  -1   1  360.07    9.58
   6   1  -2  100.24    5.63
   6  -1   2  102.85    5.88
   6   1   2   89.28    5.47
   6  -1  -2  106.64    6.04
   6  -1  -2   95.07    4.56
  -6  -1   2   92.86    4.58
  -6   1   2  101.82    4.79
  -6  -1  -2  102.10    4.03
   6  -1   3  260.14    9.68
   6  -1  -3  261.16    9.64
   6   1   3  258.49    9.60
   6   1  -3  272.21    9.65
   6  -1  -3  270.33    8.40
  -6  -1   3  260.96    8.33
  -6   1   3  264.54    8.37
  -6  -1  -3  260.01    6.63
   6  -1   4  396.56   12.36
   6  -1  -4  392.88   12.18
   6   1  -4  391.93   12.00
   6  -1  -4  377.83   10.72
  -6   1   4  394.47   10.93
  -6  -1   4  388.12   10.84
   6  -1  -5    3.02    1.36
   6  -1  -5    0.11    1.40
   6   1  -5    0.29    1.20
  -6  -1   5    3.29    1.60
  -6   1   5    0.84    1.20
   6  -1  -6   14.05    2.12
   6  -1  -6   11.39    2.22
   6   1  -6   12.16    2.35
  -6  -1   6    8.07    1.62
  -6   1   6   10.62    1.88
   6   1  -7  331.26   11.06
   6  -1  -7  344.68   10.74
  -6   1   7  344.50   10.78
  -6  -1   7  323.02   10.50
   6  -1  -8   39.48    3.51
  -6  -1   8   38.74    3.61
  -6   1   8   36.26    3.42
  -6   1   9  332.79   11.20
  -6  -1   9  341.93   11.27
  -6  -1  10   99.48    5.97
  -6   1  10   95.17    5.81
  -6  -1  11  183.81    8.38
  -6   1  11  194.52    8.57
  -6  -1  12   17.68    2.88
  -6   1  12   15.08    2.78
   6  -1 -13  635.13   11.64
  -6  -1  13  604.56   17.31
  -6   1  13  621.35   17.51
  -6  -1  14    3.26    1.53
   6  -1 -14    3.95    0.61
  -6   1  14    2.88    1.78
  -6   1  15   24.57    3.36
  -6  -1  15   26.27    3.68
  -6  -1  16  167.88    8.88
  -6   1  16  162.00    8.71
  -6   1  17  249.93   11.23
  -6  -1  17  251.28   11.19
  -6   1  18  391.86   14.47
  -6  -1  18  365.08   14.11
  -6   1  19   51.54    5.27
  -6  -1  19   51.56    5.35
  -6   1  20   27.02    4.01
  -6  -1  20   24.52    4.08
  -6   1  21  120.36    8.30
  -6  -1  21  141.21    8.96
  -6   1  22   20.47    3.72
  -6  -1  22   22.03    3.85
  -6   1  23  167.70   10.21
  -6  -1  23  172.44   10.29
   6  -2   0   81.53    5.26
   6   2   0   72.50    4.80
   6  -2   0   74.85    3.80
  -6  -2   0   75.87    3.84
   6  -2   1   49.65    4.06
   6   2  -1   46.46    3.82
   6   2   1   51.30    4.05
   6  -2  -1   50.28    4.12
   6  -2   1   50.30    2.92
   6  -2  -1   47.88    3.14
  -6  -2   1   50.35    3.24
  -6  -2  -1   47.83    2.86
   6  -2  -2    2.05    1.37
   6  -2   2    0.04    1.37
   6  -2   2    1.94    0.69
   6   2   2    0.32    1.33
   6   2  -2   -1.43    1.44
   6  -2  -2    0.40    0.92
  -6  -2  -2    2.44    0.75
  -6  -2   2    2.29    0.99
   6   2  -3   95.20    5.50
   6  -2   3   94.15    5.68
   6  -2  -3   96.03    5.81
   6  -2   3   86.94    3.54
   6  -2  -3   89.04    4.61
  -6  -2   3   90.26    4.66
  -6  -2  -3   97.28    3.74
   6  -2   4   86.75    5.52
   6  -2  -4   83.90    5.36
   6   2  -4   87.07    5.24
   6  -2  -4   83.05    4.56
  -6  -2  -4   86.18    3.28
  -6  -2   4   82.52    4.61
  -6   2   4   89.49    4.74
   6  -2  -5   39.82    3.67
   6   2  -5   42.24    3.73
   6  -2   5   39.36    3.83
   6  -2  -5   43.65    3.43
  -6   2   5   39.06    3.30
  -6  -2  -5   42.55    2.02
  -6  -2   5   41.86    3.36
   6   2  -6   38.06    3.57
   6  -2  -6   41.42    3.42
  -6   2   6   39.77    3.38
  -6  -2   6   40.71    3.50
   6   2  -7  465.96   13.40
   6  -2  -7  490.86   13.30
  -6   2   7  474.27   13.21
  -6  -2   7  466.12   13.19
   6   2  -8   35.69    3.45
   6  -2  -8   44.58    3.77
  -6  -2   8   42.63    3.79
  -6   2   8   36.03    3.55
  -6   2   9   97.82    5.88
  -6  -2   9  102.06    5.90
  -6  -2  10   10.61    2.18
  -6   2  10   13.14    2.36
   6  -2 -11   58.85    3.10
  -6  -2  11   53.32    4.54
  -6   2  11   53.86    4.57
  -6  -2  12   -0.48    1.36
   6  -2 -12    1.46    0.68
  -6   2  12    0.89    1.32
   6  -2 -13  317.64    7.24
  -6   2  13  310.74   11.71
  -6  -2  13  304.73   11.63
  -6  -2  14    1.75    1.63
  -6   2  14    1.29    1.56
   6  -2 -14    1.73    0.51
  -6  -2  15    5.62    1.72
  -6   2  15    7.92    2.30
  -6   2  16   89.30    6.51
  -6  -2  16   88.03    6.47
  -6   2  17  201.60    9.99
  -6  -2  17  199.45    9.90
  -6   2  18  189.66    9.85
  -6  -2  18  178.48    9.59
  -6  -2  19   10.49    2.85
  -6   2  19   10.90    2.92
  -6   2  20   -0.60    2.02
  -6  -2  20   -2.37    2.26
  -6  -2  21    1.70    1.93
  -6   2  21   -1.80    2.41
  -6  -2  22   10.65    2.70
  -6   2  22    5.94    2.35
  -6   2  23    1.70    2.09
  -6  -2  23    2.64    1.89
   6   3   0 1238.86   25.18
   6  -3   0 1255.49   26.05
   6  -3   0 1225.88   22.41
  -6  -3   0 1225.57   22.53
   6  -3  -1   30.11    3.42
   6   3   1   35.61    3.48
   6  -3   1   34.93    3.62
   6   3  -1   36.23    3.48
   6  -3  -1   31.10    2.65
   6  -3   1   33.90    2.57
  -6  -3  -1   33.20    2.56
  -6  -3   1   35.84    2.91
   6  -3   2  141.04    7.05
   6   3  -2  148.45    6.82
   6  -3  -2  148.47    7.24
   6  -3  -2  155.16    6.08
   6  -3   2  147.54    5.14
  -6  -3   2  148.39    6.01
  -6  -3  -2  153.18    5.26
   6  -3   3    7.91    2.24
   6   3  -3    6.90    1.89
   6  -3  -3   10.43    2.40
  -6  -3   3   10.70    1.88
   6  -3  -3    8.06    1.55
   6  -3   3    8.82    1.28
  -6  -3  -3    8.27    1.18
   6  -3   4  707.59   17.89
   6  -3  -4  697.19   17.81
   6   3  -4  696.50   16.86
   6  -3  -4  706.79   16.12
  -6  -3   4  683.23   15.92
   6  -3   4  678.83   12.99
  -6  -3  -4  710.91   13.19
   6  -3   5    0.99    1.62
   6   3  -5   -0.15    1.20
  -6  -3   5    2.11    1.54
   6  -3   5    0.18    0.52
  -6  -3  -5   -0.06    0.56
   6  -3  -5    0.75    1.15
   6   3  -6  454.67   13.03
   6  -3  -6  442.81   12.63
  -6  -3   6  450.56   12.69
  -6  -3  -6  467.86    8.70
   6   3  -7   49.53    3.97
   6  -3  -7   47.65    3.84
  -6  -3   7   46.51    3.97
  -6  -3  -7   47.37    1.70
   6   3  -8  100.20    5.68
   6  -3  -8  107.37    5.94
  -6  -3   8  106.24    5.93
   6   3  -9   15.39    2.45
  -6  -3   9   10.06    2.07
  -6   3   9   12.49    2.25
   6  -3 -10  298.10    8.15
  -6   3  10  284.22   10.47
  -6  -3  10  269.06   10.31
  -6  -3  11    3.02    1.78
   6  -3 -11    0.97    0.72
  -6   3  11   -0.32    1.44
   6  -3 -12    0.78    0.60
  -6   3  12   -0.99    1.67
   6  -3 -13    0.58    0.59
  -6   3  13    0.14    1.46
   6  -3 -14  361.62    7.54
  -6   3  14  348.85   12.78
  -6  -3  14  337.11   12.65
  -6  -3  15    2.78    2.02
   6   3 -15    0.66    0.44
  -6   3  15    0.95    1.70
  -6  -3  16   21.86    3.35
  -6   3  16   26.16    3.49
  -6  -3  17    0.66    1.71
  -6   3  17    1.11    1.79
  -6   3  18  110.28    7.51
  -6  -3  18  107.41    7.40
  -6  -3  19    1.26    1.99
  -6   3  19   -3.00    2.10
  -6   3  20  175.39    9.93
  -6  -3  20  187.53   10.19
  -6  -3  21   16.74    3.35
  -6   3  21   15.66    3.11
  -6  -3  22    3.16    1.94
  -6   3  22    1.62    1.87
  -6  -3  23    1.44    1.85
   6  -4   0   23.14    2.93
   6   4   0   18.23    2.54
  -6  -4   0   16.51    1.97
   6  -4   0   19.70    2.11
   6  -4  -1   19.54    2.76
   6   4  -1   21.52    2.68
   6  -4   1   19.44    2.70
  -6  -4  -1   21.41    2.11
  -6  -4   1   19.42    2.11
   6  -4   1   21.15    2.08
   6  -4  -1   24.62    2.34
   6  -4   2   54.77    4.31
   6   4  -2   60.08    4.23
   6  -4  -2   56.89    4.49
  -6  -4  -2   65.14    3.45
  -6  -4   2   61.30    3.85
   6  -4  -2   61.28    3.84
   6  -4   2   62.56    3.35
   6   4  -3   85.99    5.12
   6  -4   3   85.45    5.46
   6  -4  -3   89.97    5.60
  -6  -4  -3   87.36    3.89
  -6  -4   3   82.14    4.67
   6  -4  -3   85.34    4.69
   6  -4   3   85.06    3.77
   6  -4  -4   21.16    2.98
   6   4  -4   21.35    2.66
   6  -4   4   28.85    3.37
  -6  -4   4   20.56    2.49
  -6  -4  -4   23.06    1.90
   6  -4  -4   20.96    2.35
   6  -4   4   20.42    1.68
   6   4  -5    1.09    1.18
   6  -4   5    2.87    1.35
   6  -4   5    2.75    0.71
  -6  -4  -5    2.33    0.75
  -6  -4   5    4.72    1.46
   6  -4  -5    1.92    0.94
   6   4  -6   39.02    3.42
   6  -4   6   41.95    4.11
   6  -4   6   44.78    2.19
  -6  -4  -6   46.12    2.23
  -6  -4   6   50.84    3.94
   6  -4  -6   47.91    3.75
   6   4  -7   77.10    4.84
   6  -4  -7   84.82    5.15
   6  -4   7   87.95    2.82
  -6  -4   7   79.34    5.04
  -6  -4  -7   90.17    2.93
   6   4  -8   30.08    3.15
   6  -4   8   30.36    1.28
  -6  -4   8   28.38    3.19
  -6  -4  -8   31.74    1.36
  -6  -4   9  117.87    6.49
   6  -4  -9  125.44    5.28
   6   4  -9  119.86    6.23
  -6  -4  10  406.96   13.09
   6  -4 -10  409.14   10.34
   6   4 -10  423.08   12.54
  -6  -4  11    2.93    1.68
   6  -4 -11    4.37    1.07
  -6  -4  12   10.68    2.28
   6  -4 -12   12.20    1.53
  -6  -4  13  167.45    8.51
   6  -4 -13  174.27    5.40
  -6  -4  14   98.58    6.62
   6  -4 -14   96.77    3.56
   6   4 -14  106.85    3.94
  -6  -4  15    7.70    2.15
   6   4 -15    7.07    0.91
  -6  -4  16   -2.31    2.34
  -6  -4  17   13.10    2.74
  -6  -4  18    6.03    2.37
  -6  -4  19   20.51    3.64
  -6  -4  20  143.59    9.02
  -6  -4  21   39.84    4.89
  -6  -4  22    3.38    2.03
  -6  -5   0  904.82   18.54
   6  -5   0  909.29   18.41
   6  -5   0  930.45   21.51
  -6  -5   1  240.96    8.03
  -6  -5  -1  237.88    7.53
   6  -5   1  229.10    7.36
   6  -5  -1  233.76    7.84
   6   5  -1  233.96    8.70
   6  -5  -1  235.12    9.50
   6  -5   1  246.67    9.63
   6  -5   2    7.13    1.39
   6  -5  -2    6.74    1.52
  -6  -5   2    7.26    1.84
  -6  -5  -2    6.05    1.34
   6   5  -2    7.62    1.89
   6  -5   2    4.39    1.63
   6  -5  -2    5.17    1.82
  -6  -5   3  127.76    5.95
  -6  -5  -3  123.04    4.88
   6  -5   3  124.97    4.85
   6  -5  -3  132.30    6.00
   6  -5   3  131.14    6.92
   6   5  -3  138.10    6.40
  -6  -5  -3  138.25    6.76
   6  -5  -3  134.06    7.06
  -6  -5   4  181.41    7.33
  -6  -5  -4  175.54    5.69
   6  -5   4  177.87    5.68
   6  -5  -4  173.78    7.16
   6   5  -4  180.89    7.42
   6  -5   4  172.39    7.97
   6  -5  -4  181.62    8.35
  -6  -5   5    6.08    1.74
   6  -5   5    4.46    0.97
   6  -5  -5    2.36    0.95
  -6  -5  -5    7.50    1.17
   6  -5   5    5.22    1.82
   6   5  -5    2.87    1.25
  -6  -5   6  175.21    7.61
  -6  -5  -6  185.30    5.40
   6  -5   6  183.40    5.28
   6  -5  -6  186.49    7.75
   6   5  -6  188.59    7.65
   6  -5   6  186.16    8.40
  -6  -5  -7  158.43    4.67
   6  -5   7  163.21    4.62
   6  -5  -7  156.40    7.21
  -6  -5   7  159.46    7.35
   6  -5  -7  160.12    6.47
   6   5  -7  158.21    6.98
   6  -5   8    4.04    0.70
  -6  -5   8    5.61    1.71
  -6  -5  -8    3.07    0.70
   6  -5  -8    4.37    1.19
   6   5  -8    1.77    1.09
  -6  -5  -9   67.97    2.32
   6  -5   9   68.44    2.26
  -6  -5   9   67.10    5.07
   6   5  -9   66.93    4.49
   6  -5  -9   67.90    3.99
  -6  -5  10  268.88   10.39
   6   5 -10  267.44    9.40
   6  -5 -10  282.83    8.25
  -6  -5 -10  243.67    4.57
  -6  -5  11  151.97    7.88
   6  -5 -11  159.76    5.89
   6   5 -11  149.75    6.95
  -6  -5  12   23.98    3.30
   6  -5 -12   20.61    1.97
  -6  -5  13  353.68   12.89
   6  -5 -13  360.83    8.93
  -6  -5  14  145.04    8.12
   6   5 -14  151.09    5.19
  -6  -5  15  153.77    8.55
   6   5 -15  163.09    5.00
  -6  -5  16    7.23    2.11
  -6  -5  17  154.44    8.91
  -6  -5  18    3.46    1.93
  -6  -5  19   81.96    6.69
  -6  -5  20  240.18   11.92
  -6  -5  21   78.36    6.90
  -6  -5  22    2.48    1.77
   6  -6   0   16.74    2.80
  -6  -6   0   15.80    2.06
   6  -6   0   15.97    2.04
   6  -6  -1  200.08    8.72
   6  -6   1  220.50    9.13
  -6  -6   1  204.26    7.57
  -6  -6  -1  197.21    7.07
   6  -6  -1  212.10    7.54
   6  -6   1  212.48    7.19
   6  -6   2   63.01    4.92
   6  -6  -2   55.93    4.61
  -6  -6   2   63.04    4.11
  -6  -6  -2   63.77    3.70
   6  -6   2   60.10    3.59
   6  -6  -2   60.38    3.97
   6   6  -3   22.39    2.60
  -6  -6  -3   24.29    2.83
   6  -6  -3   24.63    3.20
   6  -6   3   21.79    3.01
  -6  -6  -3   24.77    2.29
  -6  -6   3   24.00    2.63
   6  -6  -3   25.40    2.64
   6  -6   3   28.15    2.41
   6  -6   4   27.47    3.31
   6   6  -4   27.31    2.77
  -6  -6  -4   27.64    2.30
  -6  -6   4   25.97    2.79
   6  -6  -4   31.34    2.98
   6  -6   4   26.81    2.19
   6  -6  -5   -0.02    0.94
  -6  -6  -5    0.84    0.76
   6  -6   5    0.23    0.61
  -6  -6   5    0.90    1.23
   6  -6   5    0.36    1.47
   6   6  -5   -0.18    1.15
   6  -6  -5    0.93    1.18
  -6  -6  -6   94.16    3.94
  -6  -6   6   88.21    5.34
   6  -6  -6   83.60    5.18
   6   6  -6   88.86    5.08
   6  -6   6   88.80    5.79
   6  -6  -6   85.84    4.89
   6  -6   6   93.47    3.87
  -6  -6  -7   75.58    3.35
  -6  -6   7   78.86    5.19
   6   6  -7   75.62    4.70
   6  -6  -7   67.75    4.24
   6  -6   7   73.92    3.27
  -6  -6  -8   34.66    2.13
  -6  -6   8   36.41    3.68
   6   6  -8   37.75    3.31
   6  -6  -8   39.79    3.19
   6  -6   8   36.49    2.14
  -6  -6  -9  225.37    5.70
  -6  -6   9  224.58    9.39
   6   6  -9  215.06    8.29
   6  -6  -9  229.93    7.86
   6  -6   9  224.43    5.58
  -6  -6  10  141.90    7.53
  -6  -6 -10  144.86    4.01
   6   6 -10  139.67    6.55
   6  -6 -10  137.16    5.85
   6  -6  10  139.83    3.86
  -6  -6 -11   61.93    2.20
  -6  -6  11   64.45    5.34
   6   6 -11   62.76    4.37
   6  -6 -11   62.98    3.79
   6  -6  11   62.26    2.10
  -6  -6 -12   47.75    1.54
  -6  -6  12   55.93    4.93
   6   6 -12   51.63    4.02
   6  -6 -12   54.76    3.37
  -6  -6 -12   44.79    1.52
   6   6 -13    3.06    1.29
  -6  -6  13    7.07    2.29
   6  -6 -13    3.69    1.11
   6   6 -13    3.39    1.14
  -6  -6  14   67.48    5.60
   6   6 -14   64.89    3.52
  -6  -6  15    7.57    2.41
   6   6 -15    5.21    1.15
  -6  -6  16    3.09    1.67
  -6  -6  17   14.56    3.32
  -6  -6  18    1.38    1.67
  -6  -6  19  109.95    7.83
  -6  -6  20   37.61    4.73
  -6  -6  21    7.82    2.76
  -6  -6  22    7.98    2.82
   6  -7   0  105.75    6.37
  -6  -7   0  106.66    5.37
   6  -7   0  116.10    5.48
   6  -7  -1  271.63   10.42
   6  -7   1  259.44   10.17
  -6  -7   1  249.50    8.68
  -6  -7  -1  253.76    8.39
   6  -7   1  258.60    8.36
   6  -7  -1  257.25    8.70
  -6  -7  -2   20.54    2.29
   6  -7   2   18.19    2.83
   6  -7  -2   17.75    2.83
  -6  -7   2   19.05    2.51
   6  -7   2   24.01    2.43
   6  -7  -2   22.92    2.55
  -6  -7   3  189.01    7.68
  -6  -7  -3  182.35    6.67
   6  -7   3  186.02    8.46
   6  -7  -3  196.93    8.84
  -6  -7  -3  192.24    8.03
   6  -7  -3  195.26    8.01
   6  -7   3  189.81    6.69
   6  -7  -3  182.63    7.52
  -6  -7   4    7.80    1.76
   6  -7  -4    8.39    1.75
   6  -7   4    7.22    1.92
  -6  -7  -4   10.11    1.53
   6   7  -4   10.45    1.86
   6  -7  -4   11.04    2.04
   6  -7   4    9.99    1.55
   6  -7  -5   -0.28    0.91
  -6  -7   5    0.03    1.45
  -6  -7  -5    1.95    0.92
   6   7  -5    0.25    1.11
   6  -7   5    1.77    1.42
   6  -7  -5    0.57    1.15
   6  -7   5   -0.09    0.74
  -6  -7   6   20.64    2.89
   6   7  -6   16.89    2.23
   6  -7   6   20.82    3.03
   6  -7  -6   16.98    2.33
   6  -7   6   19.71    1.91
  -6  -7   7  436.63   13.47
   6   7  -7  448.67   12.36
   6  -7  -7  450.06   12.57
   6  -7   7  446.11   10.27
  -6  -7   8    4.71    1.70
   6   7  -8    7.78    1.70
   6  -7  -8    7.70    1.74
   6  -7   8    6.36    1.16
  -6  -7   9    9.63    2.25
   6   7  -9   15.02    2.18
   6  -7  -9   13.20    2.00
   6  -7   9   14.46    1.48
  -6  -7  10   39.58    4.17
   6   7 -10   34.02    3.15
   6  -7 -10   37.30    3.13
   6  -7  10   36.20    2.16
  -6  -7  11  209.17    9.56
   6   7 -11  216.60    8.17
   6  -7 -11  218.93    7.57
   6  -7  11  206.51    5.42
   6   7 -12   10.45    1.91
  -6  -7  12    9.59    2.39
   6  -7 -12   10.38    1.70
   6   7 -13  237.24    8.85
  -6  -7  13  232.19   10.53
   6   7 -13  248.11    8.05
   6   7 -14   13.21    2.15
  -6  -7  14   15.51    2.91
   6   7 -14   13.46    1.94
  -6  -7  15   39.37    4.69
   6   7 -15   44.37    2.98
   6   7 -15   45.97    3.83
  -6  -7  16    0.99    1.76
  -6  -7  17  367.56   14.47
  -6  -7  18   12.92    3.12
  -6  -7  19   17.47    3.42
  -6  -7  20    7.82    2.40
  -6  -7  21  296.22   13.67
   6  -8   0  130.53    7.19
  -6  -8   0  124.32    6.08
   6  -8   0  138.03    6.22
   6  -8  -1  429.68   13.83
   6  -8   1  450.66   14.00
  -6  -8  -1  437.95   11.99
  -6  -8   1  443.14   12.48
   6  -8  -1  428.99   12.25
   6  -8   1  443.97   11.98
   6  -8   2   44.11    4.13
   6  -8  -2   39.87    4.01
  -6  -8   2   44.61    3.74
   6  -8  -2   42.33    3.54
   6  -8   2   42.82    3.26
  -6  -8   3    1.45    1.13
   6  -8  -3    1.27    1.49
  -6  -8  -3   -2.45    1.36
   6  -8   3    0.68    1.33
   6  -8  -3    0.36    0.94
   6  -8   3    0.12    0.84
  -6  -8   4   39.54    3.68
   6  -8   4   45.07    4.24
   6  -8  -4   45.99    3.87
   6  -8   4   41.94    3.11
  -6  -8   5    7.37    1.99
   6  -8   5    3.09    1.49
   6  -8  -5    9.28    1.94
   6  -8   5    6.07    1.36
  -6  -8   6   11.40    2.31
   6  -8   6    9.89    2.29
   6   8  -6   10.85    1.92
   6  -8  -6   10.18    2.02
   6  -8   6   11.79    1.65
  -6  -8   7    4.51    1.60
   6  -8   7   11.03    2.50
   6   8  -7    7.04    1.61
   6  -8  -7   10.07    1.94
   6  -8   7    8.08    1.44
  -6  -8   8  228.64    9.55
   6   8  -8  211.75    7.88
   6  -8  -8  224.06    8.46
   6  -8   8  210.26    6.67
   6   8  -9   -0.77    1.16
   6  -8  -9    0.02    1.05
   6  -8   9   -0.75    0.84
  -6  -8  10   24.01    3.22
   6   8 -10   25.91    2.74
   6  -8 -10   27.89    2.82
   6  -8  10   28.28    2.17
   6   8 -11    3.22    1.09
  -6  -8  11    8.56    2.38
   6  -8 -11    5.08    1.34
  -6  -8  12   41.94    4.48
   6   8 -12   46.08    3.64
   6  -8 -12   42.99    3.34
   6   8 -12   47.85    3.67
   6   8 -13    9.95    1.96
  -6  -8  13    9.08    2.47
   6   8 -13    7.67    1.57
   6   8 -14    3.26    1.36
  -6  -8  14    6.28    2.59
   6   8 -14    4.75    1.23
  -6  -8  15   11.82    3.05
   6   8 -15    9.87    1.61
   6   8 -15    9.68    1.93
   6   8 -16  146.27    6.87
  -6  -8  16  147.38    8.90
   6   8 -17    2.97    1.40
  -6  -8  17    1.69    1.85
  -6  -8  18   38.31    4.75
  -6  -8  19    5.04    2.23
  -6  -8  20    0.11    2.13
  -6  -8  21   33.82    4.68
   6  -9   0  350.45   12.28
   6  -9   0  349.72   10.93
   6  -9  -1  229.23    9.69
   6  -9   1  224.03    9.51
   6  -9   1  214.36    8.14
   6  -9  -1  220.23    8.54
   6  -9   2   30.82    3.75
  -6  -9   2   31.41    3.36
   6  -9  -2   31.47    3.76
   6  -9   2   32.62    3.11
   6  -9  -2   39.90    3.60
   6  -9   3  666.30   17.88
   6  -9  -3  653.59   18.09
  -6  -9  -3  660.22   16.69
  -6  -9   3  658.17   16.92
   6  -9   3  640.27   15.36
   6  -9   4  313.95   11.58
  -6  -9   4  308.94   10.91
   6  -9   4  305.29    9.45
   6  -9   5   17.36    2.79
  -6  -9   5   18.14    2.79
   6  -9   5   12.81    1.84
  -6  -9   6  116.26    6.72
   6  -9   6  121.42    7.00
   6  -9  -6  132.60    6.71
   6  -9   6  124.07    5.49
  -6  -9   7   24.99    3.31
   6   9  -7   19.20    2.33
   6  -9   7   18.69    2.77
   6  -9  -7   27.52    3.10
   6  -9   7   22.94    2.35
  -6  -9   8    8.43    2.50
   6   9  -8    7.90    1.77
   6  -9  -8    6.21    1.66
   6  -9   8    6.68    1.28
  -6  -9   9   18.28    2.97
   6   9  -9   20.97    2.47
   6  -9  -9   16.13    2.37
   6  -9   9   22.18    2.19
  -6  -9  10  448.15   15.06
   6  -9 -10  482.24   13.36
   6   9 -10  492.35   12.73
  -6  -9  11   35.29    4.10
   6   9 -11   36.32    3.14
   6  -9 -11   38.46    3.44
   6   9 -12   60.00    4.05
  -6  -9  12   51.40    5.00
   6   9 -12   57.07    4.21
   6   9 -13    2.68    0.99
  -6  -9  13    0.51    1.58
   6   9 -13    4.14    1.42
  -6  -9  14  158.44    9.10
   6   9 -14  164.86    6.84
   6   9 -14  167.31    6.96
  -6  -9  15    2.85    1.74
   6   9 -15   -0.28    0.91
   6   9 -15    4.09    1.42
   6   9 -16   37.29    3.29
  -6  -9  16   38.69    4.66
   6   9 -17  144.46    6.64
  -6  -9  17  126.04    8.45
  -6  -9  18    7.42    2.46
  -6  -9  19    6.59    2.62
  -6  -9  20  120.95    8.68
   6 -10   0   66.64    5.20
   6 -10   0   64.31    4.56
   6 -10  -1  110.40    6.70
   6 -10   1  114.04    6.80
   6 -10   1  108.81    5.84
   6 -10  -2  136.46    7.56
   6 -10   2  151.29    7.79
   6 -10   2  137.45    6.49
   6 -10  -3   15.94    2.66
  -6 -10  -3   12.68    2.31
   6 -10   3    8.79    2.29
   6 -10   3   17.78    2.40
   6 -10   4   62.61    5.05
  -6 -10   4   50.38    4.38
   6 -10   4   57.36    4.00
  -6 -10   5   32.45    3.56
   6 -10   5   28.76    3.39
   6 -10   5   32.98    3.02
   6 -10   6   25.23    3.38
  -6 -10   6   26.78    3.39
   6 -10   6   26.76    2.67
   6 -10   7   44.87    4.32
  -6 -10   7   43.97    4.29
  -6 -10   8   34.11    3.90
  -6 -10   9  131.74    7.66
   6 -10  -9  125.97    6.57
   6  10 -10   10.52    1.92
  -6 -10  10    8.15    2.55
   6 -10 -10    9.31    2.08
  -6 -10  11  175.91    9.15
   6  10 -11  181.33    6.88
   6 -10 -11  176.72    7.65
   6  10 -11  179.28    7.96
   6  10 -12    7.68    1.56
  -6 -10  12    4.97    2.00
   6  10 -12    3.04    1.35
   6  10 -13   20.12    2.38
  -6 -10  13   23.51    3.79
   6  10 -13   22.96    2.76
   6  10 -14    6.83    1.58
  -6 -10  14    2.96    1.68
   6  10 -14    7.05    1.73
  -6 -10  15   31.96    4.39
  -6 -10  16    1.76    1.86
  -6 -10  17    6.60    2.31
  -6 -10  18    3.19    1.83
  -6 -10  19  108.90    8.18
   6 -11   0  128.19    7.36
   6 -11   1    2.26    1.48
   6 -11  -1    2.48    1.70
   6 -11   2   30.80    3.63
   6 -11  -2   24.47    3.27
   6 -11   2   33.36    3.36
   6 -11   3  164.10    8.25
   6 -11  -3  170.41    8.63
  -6 -11  -3  155.24    7.22
   6 -11   3  166.23    7.36
   6 -11   4  135.56    7.51
   6 -11   4  135.91    6.53
   6 -11   5   64.32    5.15
   6 -11   6  108.82    6.68
  -6 -11   6  115.87    7.04
   6 -11   7   73.58    5.47
  -6 -11   7   74.89    5.73
  -6 -11   8   19.61    3.11
  -6 -11   9    0.20    1.81
  -6 -11  10  184.21    9.46
   6  11 -10  194.67    8.71
  -6 -11  11   67.10    5.83
   6  11 -11   78.36    5.34
  -6 -11  12   -0.67    1.79
   6  11 -12    0.45    1.14
  -6 -11  13   23.84    3.85
   6  11 -13   22.08    2.85
  -6 -11  14  106.99    7.63
   6  11 -14  120.12    6.26
  -6 -11  15    5.20    2.27
  -6 -11  16   33.34    4.69
  -6 -11  17   80.95    7.02
  -6 -11  18   15.53    3.39
   6 -12   0    0.39    1.55
   6 -12   1   16.87    2.93
   6 -12  -1   15.81    2.95
   6 -12   2    9.16    2.19
   6 -12  -2    8.44    2.27
   6 -12  -3    1.92    1.42
  -6 -12  -3    2.20    1.35
   6 -12   3   -2.21    1.74
   6 -12   4   37.42    3.97
   6 -12   5   29.74    3.51
   6 -12   6   32.13    3.74
  -6 -12   7    3.13    1.98
   6 -12   7   -2.61    2.11
  -6 -12   8  155.99    8.73
  -6 -12   9   57.71    5.33
   6  12  -9   72.22    5.48
  -6 -12  10    2.61    1.93
   6  12 -10    3.18    1.48
  -6 -12  11    4.24    2.29
   6  12 -11    3.64    1.42
  -6 -12  12    6.69    2.41
   6  12 -12    6.16    1.92
  -6 -12  13    4.14    2.21
   6  12 -13   -0.56    1.37
  -6 -12  14    4.98    2.34
   6  12 -14    1.42    1.11
  -6 -12  15    6.65    2.61
  -6 -12  16   91.46    7.47
  -6 -12  17   42.96    5.30
   6 -13   0    9.15    2.48
   6 -13   1   19.73    3.11
   6 -13  -1   18.78    3.11
   6 -13   2   -0.26    1.42
   6 -13  -2    3.94    1.99
   6 -13   3  567.89   17.04
   6 -13  -3  587.01   17.71
   6 -13   4   17.20    3.03
   6 -13   5   24.21    3.25
   6 -13   6    7.02    2.05
   6 -13   7  343.99   12.62
  -6 -13   8  137.47    8.29
   6  13  -8  119.49    7.38
  -6 -13   9   15.64    3.27
   6  13  -9   18.00    3.06
  -6 -13  10    8.82    2.56
   6  13 -10    8.82    2.30
  -6 -13  11   94.15    7.09
   6  13 -11  100.45    6.67
  -6 -13  12    1.73    2.02
   6  13 -12    0.59    1.39
  -6 -13  13  155.51    9.41
   6  13 -13  149.97    7.82
  -6 -13  14    2.57    2.22
   6  13 -14   -1.41    1.37
  -6 -13  15   -1.10    2.24
  -6 -13  16    1.63    1.84
   6 -14   0   45.71    4.63
   6 -14   1   18.19    3.09
   6 -14  -1   14.36    3.14
   6 -14   2    0.92    1.74
   6 -14  -2    4.00    1.89
   6 -14  -3    0.07    1.63
   6 -14   3    2.60    1.59
   6 -14   4   21.65    3.34
   6 -14   5   19.97    3.13
   6 -14   6    7.82    2.23
   6 -14   7    1.28    1.72
   6  14  -7    1.73    1.62
   6  14  -8   11.49    2.78
  -6 -14   9   18.29    3.27
   6  14  -9   22.03    3.27
  -6 -14  10   30.63    4.13
   6  14 -10   33.87    4.05
  -6 -14  11   25.98    4.00
   6  14 -11   24.84    3.52
  -6 -14  12    2.36    2.02
   6  14 -12    2.53    1.67
   6  14 -13   19.25    3.01
  -6 -14  13   24.93    4.12
  -6 -14  14   49.91    5.58
   6 -15   0   67.05    5.62
   6 -15  -1  105.96    7.17
   6 -15   1   98.22    6.70
   6 -15   2   12.46    2.52
   6 -15  -2   13.51    3.05
   6 -15   3   95.56    6.58
   6 -15  -3   83.92    6.52
   6 -15   4   36.29    4.19
   6 -15  -4   34.53    4.28
   6 -15   5    3.95    1.78
   6 -15   6   52.52    4.93
   6  15  -6   54.42    5.43
   6 -15   7   60.09    5.20
   6  15  -7   61.79    5.71
   6  15  -8   -1.53    1.68
   6  15  -9  115.40    7.68
  -6 -15  10  108.16    7.92
   6  15 -10   98.94    7.05
  -6 -15  11   78.14    6.79
   6  15 -11   71.20    5.84
  -6 -15  12   13.06    3.13
   6  15 -12   14.77    2.92
  -6 -15  13   52.67    5.78
   6  15 -13   49.17    4.82
   6 -16   0   76.08    6.13
   6 -16  -1   18.19    3.24
   6 -16   1   18.14    3.08
   6 -16   2    1.50    1.77
   6 -16  -2    2.91    2.18
   6 -16   3   52.84    5.10
   6 -16  -3   50.06    5.10
   6 -16   4   22.34    3.28
   6 -16  -4   29.47    4.04
   6  16  -4   28.38    4.36
   6 -16   5    0.57    1.61
   6  16  -5    0.39    1.69
   6 -16   6    2.28    1.61
   6  16  -6    5.62    2.52
   6  16  -7   14.00    3.12
   6  16  -8    2.18    1.75
   6  16  -9   36.47    4.54
   6  16 -10   58.37    5.57
  -6 -16  11    1.26    1.71
   6  16 -11   -0.34    1.72
   6  16 -12   -1.55    2.10
   6  16 -13   18.80    3.36
   6 -17   0  109.55    7.33
   6 -17  -1    5.96    2.35
   6 -17   1    2.13    1.91
   6 -17   2   87.54    6.46
   6 -17  -2   81.55    6.46
   6 -17   3    5.48    1.97
   6 -17  -3    7.39    2.45
   6  17  -3    7.08    3.18
   6 -17   4  114.23    7.34
   6 -17  -4  114.92    7.77
   6  17  -4  113.57    8.29
   6 -17   5    9.61    2.54
   6  17  -5   10.68    3.04
   6 -17   6  290.15   11.84
   6  17  -6  284.24   13.25
   6  17  -7   51.28    5.68
   6  17  -8  136.32    8.88
   6  17  -9    1.13    1.74
   6  17 -10   40.98    4.96
   6  17 -11    3.84    2.00
   6  17 -12   20.10    3.41
   6 -18   0    1.91    1.78
   6 -18  -1   10.16    2.53
   6 -18   1   10.58    2.68
   6  18  -1    6.65    2.59
   6 -18   2   10.04    2.79
   6 -18  -2    6.05    2.32
   6  18  -2    5.79    2.59
   6 -18   3  154.44    8.68
   6 -18  -3  166.06    9.33
   6  18  -3  163.31   10.34
   6 -18   4    5.62    1.91
   6 -18  -4    5.43    2.25
   6  18  -4    5.06    2.32
   6 -18   5    0.94    1.71
   6 -18  -5   -5.15    2.37
   6  18  -5   -2.21    1.92
   6 -18   6   67.73    5.69
   6  18  -6   76.53    6.94
   6  18  -7  117.74    8.62
   6  18  -8    4.29    2.59
   6  18  -9   -1.38    2.15
   6  18 -10   -0.61    1.81
   6  18 -11   -2.23    2.19
   6  18 -12   24.48    3.89
   6 -19   0   46.28    5.00
   6 -19  -1   22.99    3.57
   6 -19   1   22.18    3.50
   6 -19  -2    8.85    2.45
   6 -19   2    7.33    2.28
   6 -19   3  115.20    7.49
   6 -19  -3  105.14    7.57
   6 -19  -4   54.91    5.53
   6 -19  -5   32.03    4.24
   6 -19  -6   11.73    2.92
   6  19 -10   78.59    7.11
   6 -20  -2    5.21    2.45
   6 -20  -3    5.38    2.56
   6 -20  -4   -1.08    1.88
   6 -20  -5    0.59    2.05
   7   0   0    0.48    1.46
  -7   0   0    2.08    1.08
   7   0  -1    2.53    1.90
   7   0   1    1.13    1.78
  -7   0   1    1.28    1.24
   7   0  -2  820.49   20.68
   7   0   2  842.61   20.91
  -7   0   2  832.57   17.92
   7   0  -3   -0.35    1.37
   7   0   3    2.32    1.77
  -7   0   3    1.04    1.37
   7   0  -4    1.73    1.52
  -7   0   4    0.42    1.08
   7   0  -5   -1.61    1.59
  -7   0   5   -0.23    1.23
   7   0  -6   10.86    2.51
  -7   0   6    6.50    1.49
   7   0  -7   -0.04    1.56
  -7   0   7   -1.78    1.37
   7   0  -8   91.77    6.08
  -7   0   8   95.31    5.86
   7   0  -9   -0.50    1.57
  -7   0   9   -2.86    1.73
  -7   0  10    7.02    1.76
  -7   0  11    0.36    1.37
  -7   0  12  162.26    8.41
  -7   0  13   -0.19    1.83
  -7   0  14   73.84    5.92
  -7   0  15    1.87    1.63
  -7   0  16   -1.75    2.24
  -7   0  17   -0.27    1.94
  -7   0  18   80.39    6.66
  -7   0  19   -1.42    1.84
  -7   0  20    1.18    1.69
  -7   0  21    2.74    2.35
   7  -1   0    1.29    1.44
   7   1   0    2.59    1.80
  -7  -1   0    0.38    0.76
   7  -1  -1  136.75    7.43
   7   1  -1  152.23    7.69
   7  -1   1  151.96    7.87
   7   1   1  159.50    7.92
  -7  -1  -1  159.29    5.78
  -7  -1   1  148.78    6.07
   7  -1   2   11.77    2.69
   7   1   2   13.43    2.58
   7  -1  -2   10.75    2.37
   7   1  -2   16.39    2.76
  -7  -1  -2   14.67    1.66
  -7  -1   2   13.60    1.92
   7   1  -3   66.03    5.08
   7  -1   3   64.32    5.27
   7  -1  -3   64.91    5.16
  -7  -1   3   57.92    4.00
  -7   1   3   68.44    4.28
   7  -1  -4   43.78    4.27
   7   1  -4   46.73    4.32
  -7   1   4   48.51    3.71
  -7  -1   4   45.82    3.61
   7  -1  -5  161.66    8.13
   7   1  -5  158.32    7.92
  -7   1   5  164.28    7.21
  -7  -1   5  161.83    7.20
   7  -1  -6  132.55    7.37
   7   1  -6  128.50    7.06
  -7   1   6  123.84    6.38
  -7  -1   6  127.44    6.47
   7  -1  -7   17.98    2.93
   7   1  -7   16.66    2.79
  -7  -1   7   15.54    2.45
  -7   1   7   17.07    2.68
   7  -1  -8    7.94    2.38
   7   1  -8    5.83    2.08
  -7  -1   8    8.05    1.89
  -7   1   8    4.75    1.85
   7   1  -9  107.30    6.57
  -7   1   9  103.88    6.38
  -7  -1   9  111.07    6.44
   7   1 -10    7.74    2.35
  -7   1  10    9.93    2.49
  -7  -1  10    8.24    2.20
  -7   1  11  470.20   14.93
  -7  -1  11  467.72   14.87
  -7   1  12    8.56    2.52
  -7  -1  12   10.09    2.49
  -7   1  13  177.92    9.03
  -7  -1  13  184.76    9.21
  -7   1  14   75.25    5.97
  -7  -1  14   76.61    6.05
  -7   1  15  154.56    8.77
  -7  -1  15  165.09    9.07
  -7   1  16   21.24    3.56
  -7  -1  16   24.39    3.80
  -7   1  17   14.91    3.11
  -7  -1  17   15.10    3.15
  -7  -1  18   34.51    4.56
  -7   1  18   33.69    4.44
  -7   1  19   16.42    3.51
  -7  -1  19   16.65    3.38
  -7   1  20   73.66    6.70
  -7  -1  20   82.20    6.94
  -7   1  21  177.66   10.55
  -7  -1  21  187.42   10.78
   7   2   0   -0.99    1.52
   7  -2   0   -1.22    1.66
  -7  -2   0    0.66    0.80
   7  -2   1   30.22    3.56
   7  -2  -1   27.32    2.52
   7  -2  -1   27.30    3.52
   7   2  -1   31.77    3.55
   7   2   1   28.25    3.43
  -7  -2   1   29.05    2.67
  -7  -2  -1   26.56    2.37
   7   2  -2   51.68    4.43
   7  -2   2   47.43    4.44
   7  -2  -2   52.56    4.64
   7  -2  -2   46.05    3.38
  -7  -2  -2   50.88    3.04
  -7  -2   2   52.54    3.62
   7  -2  -3   36.06    3.86
   7  -2   3   37.89    4.26
   7   2  -3   37.58    3.89
   7  -2  -3   35.27    3.07
  -7  -2   3   34.42    3.11
  -7  -2  -3   37.66    2.49
   7   2  -4   98.86    6.23
   7  -2   4   99.86    6.44
   7  -2  -4   91.60    6.09
   7  -2  -4   95.35    5.23
  -7  -2  -4   91.46    3.63
  -7  -2   4   89.58    5.15
   7  -2  -5  123.16    7.23
   7   2  -5  127.22    7.05
   7  -2  -5  127.75    6.27
  -7  -2   5  124.30    6.24
   7  -2  -6  217.76    9.68
   7   2  -6  207.97    9.09
   7  -2  -6  216.02    8.59
  -7  -2   6  209.15    8.50
   7   2  -7    9.22    2.25
   7  -2  -7    4.26    1.49
  -7  -2   7    8.35    1.80
  -7   2   7    4.69    1.53
   7  -2  -8   11.44    2.40
   7   2  -8   15.32    2.58
  -7  -2   8   12.88    2.23
  -7   2   8   13.40    2.37
   7   2  -9   17.02    2.77
  -7  -2   9   19.91    2.78
  -7   2   9   20.62    3.08
   7   2 -10   19.70    2.94
  -7  -2  10   14.07    2.50
  -7   2  10   12.40    2.40
   7   2 -11   18.94    3.11
  -7  -2  11   15.23    2.83
  -7   2  11   19.28    3.02
  -7  -2  12   44.73    4.45
  -7   2  12   44.73    4.40
  -7  -2  13   33.40    3.86
  -7   2  13   40.62    4.26
  -7  -2  14    2.07    1.67
  -7   2  14    1.53    1.73
  -7   2  15   29.90    3.98
  -7  -2  15   32.23    4.03
  -7  -2  16   21.10    3.62
  -7   2  16   20.96    3.39
  -7   2  17    2.21    1.60
  -7  -2  17   -0.69    1.74
  -7  -2  18    1.17    1.84
  -7   2  18   -1.05    2.03
  -7   2  19   25.65    4.07
  -7  -2  19   30.33    4.32
  -7   2  20   46.26    5.36
  -7  -2  20   53.32    5.72
  -7  -2  21    9.18    3.13
  -7   2  21    5.95    2.62
   7   3   0   -0.96    1.46
   7  -3   0    2.17    1.60
   7  -3   0   -0.02    0.82
  -7  -3   0   -0.40    0.84
   7  -3   1    1.36    1.52
   7   3  -1   -0.77    1.65
   7  -3   1   -0.60    0.87
   7  -3  -1   -0.27    0.84
  -7  -3  -1    1.47    1.05
  -7  -3   1    0.29    0.99
   7  -3   2  345.99   12.47
   7   3  -2  317.76   11.48
   7  -3  -2  338.63   12.27
   7  -3  -2  321.55    9.87
   7  -3   2  333.82    8.81
  -7  -3  -2  332.49    8.89
  -7  -3   2  345.92   10.25
   7  -3   3   -1.56    1.67
   7  -3  -3    0.68    1.47
   7   3  -3   -0.10    1.50
   7  -3   3    1.15    0.76
  -7  -3   3    1.76    1.24
   7  -3  -3   -0.62    0.99
  -7  -3  -3    1.54    0.98
   7   3  -4  178.31    8.25
   7  -3   4  171.44    8.58
   7  -3  -4  167.35    8.43
   7  -3  -4  163.31    7.05
  -7  -3   4  170.11    7.24
  -7  -3  -4  171.04    5.36
   7   3  -5    2.34    1.92
   7  -3  -5   -0.31    1.52
   7  -3  -5    3.61    1.46
  -7  -3   5    1.41    1.22
  -7  -3  -5    1.03    0.59
   7  -3  -6  411.32   13.96
   7   3  -6  423.65   13.39
  -7  -3   6  408.46   12.57
   7   3  -7   10.93    2.18
   7  -3  -7   14.02    2.64
  -7  -3   7   13.93    2.44
   7   3  -8   96.11    6.06
  -7  -3   8   96.70    5.96
  -7  -3   9   27.27    3.35
   7   3  -9   32.81    3.67
  -7  -3  10    5.40    1.80
   7  -3 -10    4.03    1.23
   7   3 -10    6.53    2.07
   7   3 -11   35.08    3.92
  -7  -3  11   28.05    3.54
   7   3 -12  198.12    9.07
  -7  -3  12  199.85    9.56
  -7  -3  13   -3.33    2.24
  -7  -3  14   64.35    5.65
  -7  -3  15   68.50    5.88
  -7  -3  16   59.56    5.50
  -7  -3  17    6.79    2.36
  -7  -3  18  123.82    8.42
  -7  -3  19  136.33    8.98
  -7  -3  20    8.65    2.49
   7  -4   0   -0.64    1.67
   7  -4   0    0.19    0.85
  -7  -4   0   -0.90    1.03
   7  -4  -1   -0.31    1.51
   7   4  -1    1.36    1.45
   7  -4   1   -1.79    1.82
   7  -4  -1   -0.09    0.84
   7  -4   1   -0.23    0.85
  -7  -4  -1    0.56    0.91
  -7  -4   1    1.17    1.19
   7  -4  -2   -0.27    1.76
   7  -4   2   -2.43    1.87
   7   4  -2   -0.89    1.28
   7  -4  -2   -0.27    0.85
  -7  -4  -2   -1.36    0.98
   7  -4   2   -0.60    0.87
  -7  -4   2   -0.77    1.25
   7  -4  -3    9.95    2.28
   7   4  -3   10.58    2.32
   7  -4   3   10.95    2.69
   7  -4   3   10.46    1.50
  -7  -4  -3    9.16    1.40
   7  -4  -3    9.39    1.74
  -7  -4   3    9.70    1.78
   7   4  -4   19.06    2.80
   7  -4   4   20.54    3.15
   7  -4  -4   17.36    3.16
   7  -4   4   19.93    1.81
   7  -4  -4   17.39    2.32
  -7  -4   4   20.96    2.60
  -7  -4  -4   24.14    2.02
   7  -4   5   18.27    3.04
   7  -4   5   14.17    1.42
   7  -4  -5   17.85    3.09
   7   4  -5   19.51    2.84
  -7  -4  -5   18.56    1.61
  -7  -4   5   16.10    2.39
   7  -4  -5   15.92    2.30
   7   4  -6    1.28    1.37
   7  -4  -6    0.46    1.62
  -7  -4   6    1.80    1.30
  -7  -4  -6    1.09    0.61
   7   4  -7    1.69    1.42
   7  -4  -7   -0.34    1.80
  -7  -4   7   -0.64    1.25
  -7  -4  -7   -0.67    0.44
   7   4  -8    1.93    1.39
  -7  -4   8    1.26    1.45
   7   4  -9   81.68    5.58
   7  -4  -9   79.75    4.55
  -7  -4   9   81.25    5.63
  -7  -4  10    3.55    1.65
   7   4 -10   10.58    2.39
   7  -4 -10    7.61    1.61
   7   4 -11   64.60    5.01
  -7  -4  11   64.37    5.29
   7   4 -12   33.63    3.73
  -7  -4  12   36.96    4.14
   7   4 -13   57.55    4.81
  -7  -4  13   49.58    4.84
   7   4 -14  106.40    6.62
  -7  -4  14  103.92    7.16
  -7  -4  15    7.12    2.55
  -7  -4  16   20.59    3.59
  -7  -4  17    7.52    2.36
  -7  -4  18   36.69    4.77
  -7  -4  19   26.15    4.08
  -7  -4  20    3.45    1.84
   7  -5   0   -2.13    1.75
   7  -5   0    0.71    0.95
  -7  -5   0    2.11    1.07
   7  -5   1   94.77    6.41
   7  -5  -1   96.07    6.44
   7  -5  -1  100.57    5.18
   7  -5   1   92.37    4.66
  -7  -5  -1   95.81    4.79
  -7  -5   1   92.80    5.02
   7  -5   2  226.01   10.04
   7   5  -2  219.54    9.13
   7  -5  -2  227.97   10.14
   7  -5  -2  224.25    8.22
   7  -5   2  216.39    7.23
  -7  -5  -2  224.57    7.39
  -7  -5   2  225.15    8.31
   7  -5   3  154.34    8.22
   7   5  -3  161.83    7.69
   7  -5  -3  154.54    8.32
   7  -5  -3  150.57    6.79
   7  -5   3  156.74    5.72
  -7  -5  -3  152.25    5.73
  -7  -5   3  151.68    6.88
   7  -5   4    2.89    1.94
   7   5  -4    1.57    1.38
   7  -5  -4    3.56    1.58
  -7  -5  -4    5.23    1.16
   7  -5  -4    4.56    1.36
  -7  -5   4    4.08    1.63
   7  -5   4    3.24    0.89
   7  -5   5    3.49    2.19
   7   5  -5    1.70    1.51
   7  -5  -5    2.80    1.89
  -7  -5   5   -0.24    1.48
   7  -5   5    0.87    0.63
  -7  -5  -5    0.25    0.66
   7   5  -6  115.53    6.45
   7  -5  -6  116.52    7.21
   7  -5   6  115.52    4.06
  -7  -5   6  112.29    6.33
  -7  -5  -6  117.92    4.19
   7  -5   7   27.98    1.73
  -7  -5   7   24.99    3.16
   7   5  -7   27.74    3.27
   7  -5  -7   23.81    2.73
  -7  -5  -7   30.88    1.85
  -7  -5   8  262.47   10.37
   7   5  -8  255.34    9.95
   7  -5  -8  268.51    9.21
  -7  -5  -8  266.34    5.63
  -7  -5   9   65.47    5.28
   7  -5  -9   71.49    4.42
   7   5  -9   70.63    5.09
  -7  -5  10    5.10    1.90
   7  -5 -10    3.19    1.16
   7   5 -10    5.80    1.83
   7   5 -11  293.43   10.95
  -7  -5  11  308.21   12.03
   7   5 -12  606.39   16.92
  -7  -5  12  618.87   18.28
   7   5 -13  149.89    7.70
  -7  -5  13  157.50    8.70
   7   5 -14    0.21    1.35
  -7  -5  14    1.16    1.57
   7   5 -15  120.31    6.97
  -7  -5  15  121.21    7.93
  -7  -5  16    5.94    2.44
  -7  -5  17   36.07    4.59
  -7  -5  18   60.98    5.93
  -7  -5  19   65.75    6.30
  -7  -5  20   57.97    6.07
   7  -6   0    2.26    1.31
  -7  -6   0    0.54    1.03
   7  -6   0   -0.38    1.62
   7  -6   1   36.70    3.09
   7  -6  -1   37.18    3.31
  -7  -6   1   38.08    3.32
  -7  -6  -1   36.75    3.03
   7  -6  -1   28.38    3.71
   7  -6   1   36.98    4.18
   7  -6   2   11.77    1.83
   7  -6  -2   16.43    2.35
  -7  -6   2   11.49    2.06
  -7  -6  -2   11.94    1.86
   7  -6   2   13.95    2.75
   7  -6  -2    9.63    2.25
   7  -6   3   92.02    4.48
   7  -6  -3   86.17    5.19
  -7  -6   3   87.79    5.31
  -7  -6  -3   92.78    4.56
   7  -6   3   89.30    6.25
   7   6  -3   81.20    5.38
   7  -6  -3   85.28    6.22
   7  -6   4    5.01    1.19
  -7  -6   4    4.31    1.59
  -7  -6  -4    3.40    1.09
   7   6  -4    4.16    1.63
   7  -6  -4    4.59    1.89
   7  -6   4    3.50    1.67
   7  -6   5    0.56    0.71
  -7  -6  -5    1.85    0.93
  -7  -6   5    1.46    1.31
   7   6  -5    1.71    1.26
   7  -6  -5    2.92    1.88
   7  -6   5    4.10    2.03
  -7  -6  -6   72.56    3.53
  -7  -6   6   71.43    5.22
   7  -6   6   67.52    3.31
   7  -6  -6   75.75    4.88
   7   6  -6   70.14    4.96
   7  -6   6   70.22    5.79
   7  -6  -6   73.81    5.78
  -7  -6  -7    1.33    0.87
  -7  -6   7    2.94    1.86
   7  -6  -7    2.88    1.41
   7   6  -7    1.34    1.25
  -7  -6  -8    0.21    0.58
  -7  -6   8   -0.21    1.38
   7  -6  -8    0.03    0.96
   7   6  -8    0.52    1.16
  -7  -6   9   27.47    3.61
   7  -6  -9   30.63    3.03
   7   6  -9   25.75    3.13
  -7  -6  10   11.28    2.65
   7   6 -10   11.45    2.24
  -7  -6  11    1.27    1.57
   7   6 -11    2.75    1.36
  -7  -6  12  107.67    7.10
   7   6 -12  114.44    6.53
  -7  -6  13    6.83    2.30
   7   6 -13    4.87    1.62
  -7  -6  14   23.27    3.74
   7   6 -14   19.16    2.83
  -7  -6  15    6.91    2.45
   7   6 -15    9.16    2.11
  -7  -6  16   96.25    7.29
   7   6 -16  100.63    6.37
  -7  -6  17    9.37    2.54
   7   6 -17    9.59    2.19
  -7  -6  18   50.55    5.51
  -7  -6  19   -0.41    1.79
   7  -7   0   -0.64    0.95
  -7  -7   0    0.95    0.93
   7  -7   0   -0.95    1.82
   7  -7   1   25.52    2.66
   7  -7  -1   28.69    2.90
  -7  -7   1   25.41    2.82
  -7  -7  -1   23.48    2.60
   7  -7  -1   29.12    3.79
   7  -7   1   27.66    3.73
   7  -7   2   17.24    2.20
   7  -7  -2   19.97    2.54
  -7  -7   2   21.34    2.80
  -7  -7  -2   17.08    2.21
   7  -7  -2   19.67    3.20
   7  -7   2   17.81    3.13
   7  -7   3   25.13    2.52
  -7  -7   3   22.43    2.75
  -7  -7  -3   26.99    2.56
   7  -7   3   34.44    4.12
   7  -7  -3   23.09    3.62
  -7  -7   4   84.60    5.42
  -7  -7  -4   79.11    4.24
   7  -7   4   78.35    4.23
   7  -7   4   79.29    5.97
   7  -7  -4   82.19    6.22
  -7  -7   5  409.51   13.05
  -7  -7  -5  411.59   10.52
   7  -7   5  422.64   10.47
   7  -7   5  401.74   14.16
   7   7  -5  400.68   12.64
   7  -7  -5  429.42   14.81
  -7  -7   6    0.39    1.50
  -7  -7  -6    2.10    0.97
   7  -7   6   -0.95    1.47
   7   7  -6    0.27    1.35
   7  -7  -6    1.83    2.15
  -7  -7   7   52.93    4.65
  -7  -7  -7   52.65    3.02
   7  -7  -7   52.91    4.17
   7   7  -7   53.51    4.29
  -7  -7  -8    3.85    0.91
  -7  -7   8    6.27    2.21
   7  -7  -8    4.43    1.53
   7   7  -8    3.23    1.54
  -7  -7   9  335.70   12.59
   7  -7  -9  356.26   11.16
   7   7  -9  352.38   11.74
   7   7 -10   37.22    3.70
  -7  -7  10   41.08    4.48
   7   7 -11  152.21    7.37
  -7  -7  11  148.67    8.44
   7   7 -12   15.92    2.59
  -7  -7  12   13.57    3.02
   7   7 -13   54.59    4.50
  -7  -7  13   60.81    5.69
   7   7 -14    1.46    1.54
  -7  -7  14    0.90    1.74
   7   7 -15  433.85   13.59
  -7  -7  15  394.65   15.25
   7   7 -16   18.39    2.92
  -7  -7  16   14.28    3.22
   7   7 -17    7.03    2.03
  -7  -7  17   10.08    2.85
   7   7 -18    0.16    1.38
  -7  -7  18   -0.88    2.20
  -7  -7  19  296.23   13.81
   7  -8   0    1.43    1.53
  -7  -8   0    1.15    1.33
   7  -8   0   -0.19    0.91
   7  -8  -1   27.02    3.61
   7  -8   1   31.18    3.97
  -7  -8   1   26.03    2.95
   7  -8   1   25.69    2.77
   7  -8  -1   24.67    2.83
  -7  -8  -1   25.68    2.80
   7  -8  -2    1.43    1.61
   7  -8   2    2.48    1.72
  -7  -8  -2    0.35    0.91
  -7  -8   2   -0.14    1.09
   7  -8   2    2.43    1.22
   7  -8   3   33.97    4.10
   7  -8  -3   40.70    4.51
  -7  -8   3   34.41    3.52
  -7  -8  -3   34.90    2.99
   7  -8   3   38.72    3.15
   7  -8   4   20.57    3.38
   7  -8  -4   26.33    3.81
  -7  -8  -4   24.12    2.54
   7  -8   4   21.31    2.36
  -7  -8   4   18.22    2.70
   7  -8   5    4.63    2.15
   7  -8  -5    5.38    2.11
  -7  -8  -5    4.02    1.13
  -7  -8   5    3.17    1.48
   7   8  -6    9.68    2.04
   7  -8   6    7.56    2.28
  -7  -8  -6   11.70    1.66
  -7  -8   6    8.31    2.11
   7   8  -7   10.38    2.09
  -7  -8  -7    7.04    1.27
  -7  -8   7    8.68    2.26
   7   8  -8   51.11    4.11
  -7  -8   8   43.35    4.35
  -7  -8  -8   45.79    2.89
   7   8  -9   23.90    2.94
  -7  -8   9   31.25    3.86
   7   8 -10   12.91    2.33
  -7  -8  10   13.82    2.88
   7   8 -11    1.90    1.43
  -7  -8  11   -0.44    1.73
   7   8 -12   11.99    2.32
  -7  -8  12   13.50    3.11
   7   8 -13   11.56    2.16
  -7  -8  13   14.24    2.92
   7   8 -14   39.90    3.90
  -7  -8  14   33.89    4.66
   7   8 -15  103.20    6.07
  -7  -8  15  100.89    7.51
   7   8 -16   64.06    4.85
  -7  -8  16   55.62    5.69
  -7  -8  17    1.00    1.79
  -7  -8  18   47.60    5.53
   7  -9   0   -0.10    1.67
  -7  -9   0    2.05    1.45
   7  -9   0   -1.78    1.21
   7  -9  -1    1.99    1.76
   7  -9   1    2.95    1.95
  -7  -9  -1    2.33    1.39
   7  -9   1    0.73    1.32
  -7  -9   1    2.51    1.47
   7  -9   2  493.72   16.08
   7  -9  -2  485.32   16.05
  -7  -9  -2  465.32   13.15
  -7  -9   2  481.75   14.24
   7  -9   2  488.19   13.24
   7  -9   3   91.70    6.58
   7  -9  -3   95.33    6.85
  -7  -9  -3   97.02    5.28
  -7  -9   3   97.61    6.00
   7  -9   3   98.01    5.26
  -7  -9  -4   19.65    2.38
   7  -9   4   21.04    3.40
   7  -9  -4   20.96    3.50
  -7  -9   4   15.83    2.61
   7  -9   5  276.57   11.52
   7  -9  -5  261.85   11.52
  -7  -9  -5  241.56    8.37
  -7  -9   5  260.39   10.45
   7  -9   6   35.89    4.33
  -7  -9   6   29.71    3.63
  -7  -9  -6   29.55    2.67
  -7  -9  -7    5.65    1.34
  -7  -9   7    8.91    2.29
   7   9  -8  209.73    8.39
  -7  -9   8  207.59    9.74
  -7  -9  -8  200.80    6.87
   7   9  -9   79.63    5.12
  -7  -9   9   76.93    6.00
   7   9 -10   24.73    3.01
  -7  -9  10   28.64    3.83
   7   9 -11   45.51    3.90
  -7  -9  11   42.24    4.72
   7   9 -12  467.38   13.48
  -7  -9  12  455.14   16.17
   7   9 -13    0.59    1.20
  -7  -9  13    5.02    2.44
   7   9 -14    1.81    1.24
  -7  -9  14   -1.07    1.86
  -7  -9  15  200.98   10.92
  -7  -9  16   19.48    4.01
  -7  -9  17    3.44    2.29
   7 -10   0   -2.07    2.34
  -7 -10   0    0.77    1.15
   7 -10   1  123.35    7.75
   7 -10  -1  118.83    7.61
  -7 -10   1  111.03    6.40
  -7 -10  -1  122.47    6.50
   7 -10  -2   -1.32    1.91
  -7 -10  -2    3.94    1.74
   7 -10   2    1.21    1.61
  -7 -10   2   -0.44    1.18
   7 -10   3   31.44    4.05
  -7 -10  -3   25.23    2.93
   7 -10  -3   29.39    4.11
  -7 -10   3   29.24    3.57
   7 -10   4    6.09    2.19
  -7 -10  -4    6.01    1.64
   7 -10  -4    7.70    2.33
  -7 -10   4    6.06    2.04
   7 -10   5   92.62    6.70
   7 -10  -5   83.68    6.53
  -7 -10  -5   85.23    4.95
  -7 -10   5   80.82    5.87
   7 -10   6   11.21    2.90
  -7 -10   6    7.56    2.06
  -7 -10   7   14.75    2.90
  -7 -10   8   15.37    2.90
  -7 -10   9   50.83    5.05
   7  10 -10    0.38    1.16
  -7 -10  10    2.52    1.78
   7  10 -11   66.95    4.53
  -7 -10  11   63.67    5.83
  -7 -10  12    9.56    2.66
   7  10 -12    9.51    2.21
  -7 -10  13  154.34    9.29
  -7 -10  14    5.42    2.56
  -7 -10  15    1.34    1.96
  -7 -10  16    2.97    1.84
   7 -11   0   -4.39    2.30
  -7 -11   0   -0.78    1.28
   7 -11  -1   24.79    3.65
  -7 -11   1   28.64    3.53
   7 -11   1   19.57    3.39
  -7 -11  -1   26.79    3.23
   7 -11   2  276.75   11.82
   7 -11  -2  277.91   11.96
  -7 -11   2  265.98   10.60
   7 -11   3    2.84    2.00
  -7 -11   3    4.14    1.90
   7 -11  -3   -0.08    2.19
  -7 -11   4   36.02    4.08
   7 -11   4   42.94    4.70
   7 -11  -4   38.69    4.47
   7 -11   5  140.00    8.26
   7 -11  -5  137.67    8.44
  -7 -11   5  141.71    7.97
   7 -11   6   59.14    5.34
  -7 -11   6   50.92    4.90
   7 -11   7    7.38    2.23
  -7 -11   7   29.40    3.78
  -7 -11   8  142.32    8.37
  -7 -11   9   58.65    5.52
  -7 -11  10   15.79    3.04
  -7 -11  11    0.47    1.55
   7  11 -11   -1.22    1.52
  -7 -11  12  123.55    8.37
   7  11 -12  139.53    7.41
  -7 -11  13    5.82    2.46
  -7 -11  14   35.34    4.73
  -7 -11  15  107.90    8.12
   7 -12   0    3.11    1.98
   7 -12   1   67.94    5.89
   7 -12  -1   61.68    5.63
  -7 -12   1   65.51    5.17
   7 -12  -2    2.71    1.65
  -7 -12   2    6.56    2.12
   7 -12   2    6.26    2.19
   7 -12   3   13.90    2.86
  -7 -12   3   15.81    2.83
   7 -12  -3   11.83    2.83
   7 -12   4   86.34    6.54
   7 -12  -4   76.64    6.38
  -7 -12   4   80.46    6.03
   7 -12   5   23.53    3.64
  -7 -12   5   24.96    3.55
   7 -12  -5   19.67    3.49
   7 -12   6   35.86    4.38
  -7 -12   6   30.52    3.97
   7 -12   7    6.63    2.17
  -7 -12   7    7.83    2.37
  -7 -12   8   31.62    4.10
  -7 -12   9   27.52    4.03
  -7 -12  10    5.66    1.92
   7  12 -10    4.68    1.69
  -7 -12  11    6.06    1.82
   7  12 -11   12.88    2.64
  -7 -12  12   -1.53    1.99
   7  12 -12   -0.11    1.40
  -7 -12  13    3.35    2.12
  -7 -12  14   38.18    4.92
   7 -13   0   -1.25    1.86
   7 -13   1  172.93    9.40
   7 -13  -1  172.05    9.47
   7 -13  -2   52.55    5.34
   7 -13   2   47.41    5.10
   7 -13   3    4.11    1.95
  -7 -13   3    1.18    1.56
   7 -13  -3    5.65    2.26
   7 -13   4   14.72    3.12
  -7 -13   4   13.05    3.03
   7 -13  -4   12.02    3.01
   7 -13   5  721.04   20.91
   7 -13  -5  743.41   21.89
  -7 -13   5  702.47   20.49
   7 -13   6   73.58    6.14
   7 -13  -6   76.90    6.59
  -7 -13   6   77.58    6.27
  -7 -13   7   18.72    3.41
  -7 -13   8    2.36    2.14
  -7 -13   9  197.39   10.54
   7  13  -9  189.82    9.65
  -7 -13  10   47.25    5.32
   7  13 -10   51.22    4.94
  -7 -13  11   87.27    7.11
   7  13 -11   84.39    6.19
  -7 -13  12    0.01    1.92
  -7 -13  13   13.16    3.31
   7 -14   0   -1.56    1.56
   7 -14   1   86.61    6.77
   7 -14  -1   85.16    6.67
   7 -14   2   77.17    6.40
   7 -14  -2   83.77    6.71
   7 -14   3   67.45    6.00
   7 -14  -3   77.28    6.49
  -7 -14   4    2.22    1.66
   7 -14   4    0.56    1.68
   7 -14  -4    3.88    2.21
   7 -14   5    1.62    1.57
  -7 -14   5    0.14    1.77
   7 -14  -5    0.62    1.62
  -7 -14   6    1.18    1.97
   7 -14  -6    1.49    1.70
  -7 -14   7   36.57    4.48
  -7 -14   8   15.08    3.17
   7  14  -8   12.57    2.87
  -7 -14   9   -0.50    1.73
   7  14  -9    0.73    1.68
  -7 -14  10    5.69    2.39
   7  14 -10    7.86    2.36
  -7 -14  11    7.03    2.86
   7  14 -11    5.97    2.23
   7 -15   0   -0.03    1.67
   7 -15  -1   44.70    5.10
   7 -15   1   49.43    5.24
   7 -15   2   84.45    6.70
   7 -15  -2   90.89    7.08
   7 -15   3   88.33    6.81
   7 -15  -3   89.37    7.05
   7 -15   4   30.19    4.03
   7 -15  -4   31.28    4.30
   7 -15   5   -1.33    1.93
  -7 -15   5    3.88    2.35
   7 -15  -5    5.85    2.21
  -7 -15   6    6.79    2.27
   7 -15   6    2.13    1.67
   7 -15  -6    1.50    1.57
  -7 -15   7   14.11    2.91
   7  15  -7   13.22    2.96
  -7 -15   8  162.88    9.74
   7  15  -8  176.91    9.98
  -7 -15   9   77.43    6.76
   7  15  -9   80.66    6.63
  -7 -15  10    3.25    2.22
   7  15 -10    8.92    2.61
   7  15 -11   95.75    7.00
   7 -16   0   -1.71    1.74
   7 -16  -1    6.46    2.21
   7 -16   1    5.33    2.34
   7 -16  -2    5.37    2.21
   7 -16   2    3.82    2.23
   7 -16   3    2.66    1.77
   7 -16  -3    8.22    2.67
   7 -16   4    3.49    2.05
   7 -16  -4    7.15    2.90
   7 -16   5   82.71    6.63
   7 -16  -5   84.45    6.98
   7  16  -5   94.31    7.59
   7 -16   6   24.68    3.76
  -7 -16   6   19.20    3.52
   7 -16  -6   29.19    4.41
   7  16  -6   25.27    4.10
  -7 -16   7    2.36    2.22
   7  16  -7   -0.01    1.68
  -7 -16   8    3.14    1.97
   7  16  -8    2.60    2.13
   7  16  -9   25.13    4.07
   7  16 -10   12.83    3.22
   7 -17   0   -0.41    1.51
   7 -17  -1   28.30    4.00
   7 -17   1   22.88    3.84
   7 -17   2   29.63    4.23
   7 -17  -2   34.31    4.62
   7 -17  -3    0.83    1.89
   7 -17   3   -0.56    1.92
   7 -17   4  137.44    8.67
   7  17  -4  136.15    9.59
   7 -17   5   39.43    4.74
   7  17  -5   41.08    5.43
   7 -17   6  129.27    8.31
   7  17  -6  130.44    9.18
   7  17  -7    2.98    2.32
   7  17  -8   88.97    7.36
   7  17  -9    3.34    2.26
   7  17 -10   16.14    3.36
   7 -18   0    0.43    1.63
   7 -18   1    6.37    2.23
   7 -18   2    5.08    2.26
   7 -18   3   -2.72    1.98
   7 -18   4    6.00    2.51
   7 -18   5   18.27    3.54
   8   0   0  706.06   20.02
   8   0  -1    2.05    2.10
   8   0   1    3.08    2.28
   8   0  -2   10.03    2.68
   8   0   2   10.13    2.21
   8   0  -3   -0.39    1.57
  -8   0   3    0.87    1.14
   8   0  -4  315.43   12.55
  -8   0   4  329.73   10.87
   8   0  -5   -0.33    1.74
  -8   0   5   -0.25    1.14
   8   0  -6   14.14    2.92
  -8   0   6   18.75    2.74
   8   0  -7    2.37    1.61
  -8   0   7   -1.53    1.68
   8   0  -8   16.21    3.10
  -8   0   8   12.37    2.21
   8   0  -9    0.82    2.21
  -8   0   9   -0.09    1.34
   8   0 -10  698.92   20.39
  -8   0  10  716.66   19.66
   8   0 -11   -1.39    1.66
  -8   0  11    0.41    1.78
   8   0 -12   19.83    3.43
  -8   0  12   19.75    3.40
   8   0 -13    2.71    2.18
  -8   0  13   -0.10    1.62
  -8   0  14  369.47   14.44
  -8   0  15    0.42    1.64
  -8   0  16   15.93    3.13
  -8   0  17   -3.27    2.45
  -8   0  18    5.44    2.44
   8  -1   0   84.95    6.43
   8   1   0   73.31    5.85
  -8  -1   0   72.38    4.19
   8  -1   1   17.80    3.13
   8  -1  -1   19.44    3.30
   8   1   1   17.51    3.11
   8   1  -1   17.57    3.19
  -8  -1   1   16.43    2.25
   8  -1   2    1.62    1.86
   8   1  -2    3.37    1.72
   8  -1  -2   -2.63    2.02
  -8  -1   2    1.37    1.19
   8  -1  -3   77.67    6.13
   8   1  -3   72.05    5.89
   8  -1   3   79.31    6.23
  -8  -1   3   77.15    4.87
   8  -1  -4    5.16    1.89
   8   1  -4    5.99    2.16
  -8  -1   4    7.18    1.90
   8  -1  -5    4.29    2.23
   8   1  -5    1.86    1.74
  -8  -1   5    2.09    1.25
   8  -1  -6   -3.20    2.22
   8   1  -6   -0.99    1.90
  -8  -1   6   -1.34    1.38
   8  -1  -7   30.38    4.04
   8   1  -7   26.81    3.74
  -8  -1   7   25.86    3.21
  -8   1   7   25.08    3.14
   8   1  -8   30.22    4.07
   8  -1  -8   35.01    4.22
  -8   1   8   26.35    3.36
  -8  -1   8   26.60    3.41
   8   1  -9   14.95    3.30
   8  -1  -9   13.69    3.00
  -8   1   9   20.74    3.15
  -8  -1   9   19.84    3.02
   8  -1 -10    8.09    2.62
   8   1 -10    8.19    2.36
  -8   1  10    6.84    1.83
  -8  -1  10    8.31    1.98
   8  -1 -11   -2.61    1.81
   8   1 -11    0.23    1.62
  -8   1  11   -2.14    1.74
  -8  -1  11   -1.71    1.83
   8  -1 -12    5.00    2.47
   8   1 -12    6.43    2.39
  -8  -1  12    6.40    2.31
  -8   1  12    4.11    1.96
   8   1 -13   30.75    3.99
  -8  -1  13   31.62    4.02
  -8   1  13   23.02    3.55
   8   1 -14   -0.66    1.68
  -8   1  14   -2.08    2.04
  -8  -1  15   11.80    2.98
  -8   1  15   11.93    2.68
  -8  -1  16    8.27    2.39
  -8   1  16    9.24    2.90
  -8   1  17   69.13    6.39
  -8  -1  17   71.15    6.37
  -8  -1  18    6.46    2.60
  -8   1  18    3.90    2.19
   8  -2   0   28.32    3.78
   8   2   0   28.43    3.79
  -8  -2   0   27.74    2.70
   8  -2  -1    3.97    1.85
   8   2  -1    7.51    2.17
   8  -2   1    1.16    1.73
  -8  -2   1    6.49    1.63
  -8  -2  -1    4.24    1.17
   8  -2  -2   -0.91    1.78
   8   2  -2    1.20    1.65
  -8  -2  -2    0.49    0.90
  -8  -2   2   -1.16    1.30
   8  -2  -3  266.05   11.63
   8   2  -3  282.72   11.56
   8  -2   3  299.50   12.31
  -8  -2   3  259.12    9.48
   8   2  -4  175.08    8.95
   8  -2  -4  174.93    9.22
  -8  -2   4  172.60    7.69
   8  -2  -5   38.22    4.44
   8   2  -5   34.58    4.15
  -8  -2   5   35.70    3.56
   8  -2  -6    9.18    2.62
   8   2  -6    6.86    2.18
  -8  -2   6   11.45    2.39
   8  -2  -7  331.37   13.13
   8   2  -7  327.38   12.61
  -8  -2   7  322.59   11.62
   8  -2  -8   76.28    6.21
   8   2  -8   64.25    5.54
  -8  -2   8   68.89    5.26
   8   2  -9    6.45    2.34
   8  -2  -9    5.69    2.19
  -8  -2   9    8.84    2.14
   8  -2 -10  212.61   10.65
   8   2 -10  220.86   10.35
  -8  -2  10  212.04    9.89
   8  -2 -11    8.07    2.58
   8   2 -11    6.88    2.49
  -8  -2  11    4.50    2.28
   8   2 -12    2.65    2.05
  -8  -2  12    3.20    2.19
   8   2 -13  231.87   10.90
  -8  -2  13  249.54   11.40
   8   2 -14   71.66    6.12
  -8  -2  14   64.00    5.85
  -8   2  14   65.05    5.95
   8   2 -15   36.85    4.48
  -8  -2  15   40.25    4.84
  -8   2  15   37.80    4.59
  -8  -2  16   73.29    6.47
  -8   2  16   80.53    6.74
  -8  -2  17  126.53    8.58
  -8   2  17  108.95    8.02
  -8   2  18   36.97    4.70
  -8  -2  18   39.26    5.03
   8  -3   0   40.73    4.52
  -8  -3   0   31.93    2.83
   8  -3   1   41.00    4.61
   8   3  -1   36.54    4.09
   8  -3  -1   36.42    4.39
  -8  -3  -1   31.69    2.74
  -8  -3   1   34.49    3.13
   8  -3   2    7.81    2.57
   8   3  -2   15.21    2.94
   8  -3  -2   15.09    2.27
   8  -3  -2   21.08    3.62
  -8  -3   2   12.27    1.98
  -8  -3  -2   15.76    1.88
   8   3  -3  129.70    7.60
   8  -3   3  150.77    8.66
   8  -3  -3  152.24    8.65
   8  -3  -3  141.23    6.71
  -8  -3  -3  139.23    5.28
  -8  -3   3  138.70    6.73
   8  -3  -4   42.25    4.63
   8  -3   4   34.75    4.31
   8   3  -4   33.44    3.98
  -8  -3   4   43.04    3.85
   8   3  -5    0.01    1.57
   8  -3  -5    2.77    2.28
  -8  -3   5    0.70    1.09
   8  -3  -6    2.57    1.94
   8   3  -6    2.10    1.56
  -8  -3   6    3.87    1.64
   8   3  -7    5.87    2.17
   8  -3  -7    2.43    1.83
  -8  -3   7    4.06    1.68
   8   3  -8   39.63    4.32
   8  -3  -8   41.33    4.65
  -8  -3   8   35.92    3.91
   8   3  -9    2.12    1.96
   8  -3  -9    4.14    2.40
  -8  -3   9    3.78    1.84
   8   3 -10   51.34    5.00
   8  -3 -10   52.55    5.50
  -8  -3  10   44.52    4.49
   8   3 -11   11.11    2.49
  -8  -3  11    2.45    1.72
   8   3 -12   23.12    3.44
  -8  -3  12   19.09    3.21
   8   3 -13   28.43    3.92
  -8  -3  13   29.99    4.09
   8   3 -14   17.23    3.29
  -8  -3  14   21.98    3.70
   8   3 -15   66.02    5.80
  -8  -3  15   67.04    6.12
   8   3 -16    4.67    2.32
  -8  -3  16    2.38    1.86
   8   3 -17   13.89    3.20
  -8  -3  17   15.47    3.08
  -8  -3  18   -0.30    1.81
   8  -4   0  494.76   16.72
  -8  -4   0  502.25   13.00
   8  -4  -1  199.58   10.06
   8  -4   1  193.81    9.92
  -8  -4   1  186.42    7.54
  -8  -4  -1  195.08    7.19
   8   4  -2   34.78    4.08
   8  -4  -2   28.21    3.86
   8  -4   2   35.89    4.36
  -8  -4   2   32.55    3.17
   8  -4  -2   27.35    2.98
  -8  -4  -2   32.30    2.72
   8  -4  -3   37.61    4.54
   8  -4   3   37.00    4.42
   8   4  -3   40.09    4.29
  -8  -4   3   39.51    3.56
  -8  -4  -3   41.76    2.88
   8   4  -4   71.51    5.61
   8  -4   4   67.37    5.81
   8  -4  -4   70.04    6.03
  -8  -4   4   70.16    4.94
   8  -4  -5   21.47    3.61
   8   4  -5   12.95    2.65
  -8  -4   5   13.59    2.51
   8   4  -6   13.15    2.77
   8  -4  -6   13.89    3.00
  -8  -4   6   15.72    2.59
   8   4  -7  138.70    7.88
   8  -4  -7  138.11    8.53
  -8  -4   7  150.78    7.78
   8   4  -8   36.94    4.17
   8  -4  -8   52.13    5.31
  -8  -4   8   36.49    4.01
   8   4  -9   46.31    4.59
   8  -4  -9   45.37    4.99
  -8  -4   9   45.05    4.54
   8  -4 -10  121.65    8.12
   8   4 -10  120.50    7.36
  -8  -4  10  109.45    7.10
   8   4 -11   77.57    5.98
  -8  -4  11   65.04    5.59
   8   4 -12   52.38    5.06
  -8  -4  12   52.81    5.16
   8   4 -13  204.61    9.90
  -8  -4  13  197.45   10.26
   8   4 -14    4.43    2.16
  -8  -4  14   -1.12    1.63
   8   4 -15    1.61    1.54
  -8  -4  15   -1.29    2.25
   8   4 -16    0.13    1.69
  -8  -4  16    3.08    1.98
   8   4 -17  208.68   10.35
  -8  -4  17  210.57   11.33
   8   4 -18    9.57    2.59
   8   4 -19    6.73    2.28
   8  -5   0  192.21    9.97
  -8  -5   0  190.96    7.50
   8  -5  -1   82.38    6.52
   8  -5   1   82.53    6.46
  -8  -5   1   70.25    4.60
  -8  -5  -1   75.78    4.47
   8  -5  -2   -2.09    2.08
   8  -5   2    1.62    1.95
  -8  -5  -2    0.27    0.99
  -8  -5   2    1.68    1.23
   8  -5   3   13.01    3.10
   8  -5  -3   15.19    3.21
   8   5  -3   19.32    3.03
  -8  -5  -3   19.91    2.13
  -8  -5   3   16.33    2.45
   8  -5   4   27.23    3.97
   8  -5  -4   24.73    3.82
   8   5  -4   20.02    3.24
  -8  -5   4   22.18    2.97
   8  -5  -5    3.40    2.22
   8   5  -5    1.58    1.65
   8  -5   5    5.93    2.48
  -8  -5   5    3.89    1.57
   8   5  -6  101.60    6.61
   8  -5  -6   95.06    7.09
  -8  -5   6   92.42    6.03
   8   5  -7   80.61    5.89
   8  -5  -7   76.24    6.36
  -8  -5   7   74.96    5.60
   8   5  -8   76.37    5.83
   8  -5  -8   76.71    6.48
  -8  -5   8   74.57    5.68
   8  -5  -9    5.78    2.21
   8   5  -9    2.75    1.78
  -8  -5   9    3.99    1.67
   8   5 -10   -0.81    1.69
  -8  -5  10    0.70    1.67
   8   5 -11    0.14    1.45
  -8  -5  11   -0.04    1.70
   8   5 -12    2.01    1.51
  -8  -5  12    0.85    1.65
   8   5 -13   28.64    3.68
  -8  -5  13   26.04    3.90
   8   5 -14   11.02    2.66
  -8  -5  14    8.28    2.44
   8   5 -15    3.06    2.01
  -8  -5  15    2.41    1.71
   8   5 -16    6.31    2.38
  -8  -5  16    4.44    2.57
   8   5 -17    1.92    1.60
  -8  -5  17    4.18    2.38
   8   5 -18    0.87    1.64
   8   5 -19   32.51    4.46
   8   5 -20   34.49    4.35
   8  -6   0   33.10    4.30
  -8  -6   0   37.87    3.34
   8  -6   1   18.89    3.37
   8  -6  -1   21.01    3.50
  -8  -6   1   19.41    2.53
  -8  -6  -1   18.96    2.30
   8  -6   2   75.60    6.25
   8  -6  -2   82.15    6.67
  -8  -6   2   63.87    4.68
  -8  -6  -2   79.25    4.48
   8  -6   3   15.15    3.26
   8  -6  -3   15.31    3.16
  -8  -6   3   15.52    2.42
  -8  -6  -3   19.90    2.22
   8  -6   4  216.27   10.68
   8   6  -4  223.89    9.94
   8  -6  -4  231.89   11.11
  -8  -6   4  222.61    9.28
   8   6  -5   35.56    4.05
   8  -6   5   33.35    4.29
   8  -6  -5   41.61    4.72
  -8  -6   5   39.25    3.96
   8   6  -6   73.51    5.58
   8  -6  -6   64.47    5.85
  -8  -6   6   67.27    5.23
   8  -6  -7   24.35    4.00
   8   6  -7   26.67    3.67
  -8  -6   7   27.17    3.48
   8   6  -8   66.84    5.38
   8  -6  -8   75.34    6.52
  -8  -6   8   68.11    5.47
   8   6  -9   20.64    3.11
   8  -6  -9   25.52    3.94
  -8  -6   9   25.50    3.54
   8   6 -10  223.61    9.93
  -8  -6  10  217.06   10.31
   8   6 -11  127.47    7.49
  -8  -6  11  107.22    7.35
   8   6 -12    3.10    1.62
  -8  -6  12    2.19    1.83
   8   6 -13    3.70    2.05
  -8  -6  13    0.96    1.61
   8   6 -14  287.34   11.61
  -8  -6  14  279.77   12.69
   8   6 -15   17.96    3.00
  -8  -6  15   22.77    3.86
   8   6 -16   40.05    4.36
  -8  -6  16   35.81    4.70
   8   6 -17    4.53    1.88
   8   6 -18    1.07    1.64
   8  -7   0   18.84    3.42
  -8  -7   0   19.87    2.56
   8  -7   1   11.65    2.85
   8  -7  -1   15.70    3.39
  -8  -7  -1   13.52    2.08
  -8  -7   1   10.04    2.02
   8  -7  -2   34.71    4.47
   8  -7   2   39.19    4.63
  -8  -7   2   33.65    3.50
  -8  -7  -2   38.46    3.28
   8  -7  -3   21.11    3.48
   8  -7   3   22.92    3.84
  -8  -7  -3   27.78    2.71
  -8  -7   3   24.71    3.20
   8  -7  -4   18.64    3.46
   8  -7   4   15.99    3.43
  -8  -7   4   12.08    2.22
   8  -7   5   -0.20    2.10
   8  -7  -5   -0.40    2.08
  -8  -7   5    0.98    1.17
   8   7  -6    0.05    1.49
   8  -7  -6   -2.60    2.19
  -8  -7   6   -1.71    1.49
   8   7  -7    0.14    1.45
   8  -7  -7    2.15    1.79
  -8  -7   7    0.31    1.53
   8   7  -8    5.86    1.80
   8  -7  -8   10.88    3.00
  -8  -7   8    6.68    2.03
   8  -7  -9   48.95    5.39
   8   7  -9   44.14    4.31
  -8  -7   9   45.74    4.74
   8   7 -10    4.40    1.97
  -8  -7  10    7.94    2.23
   8   7 -11   64.13    5.25
  -8  -7  11   60.03    5.58
   8   7 -12   10.88    2.48
  -8  -7  12   12.00    2.70
   8   7 -13   48.75    4.68
  -8  -7  13   50.13    5.33
   8   7 -14    9.90    2.35
  -8  -7  14    9.62    2.58
   8   7 -15   28.21    3.75
  -8  -7  15   22.54    3.85
   8   7 -16    5.67    2.06
  -8  -7  16    1.16    1.72
   8  -8   0   33.74    4.37
  -8  -8   0   42.93    3.87
   8  -8   1   72.22    6.23
   8  -8  -1   72.11    6.28
  -8  -8   1   71.91    5.04
  -8  -8  -1   65.81    4.58
   8  -8   2   34.53    4.47
   8  -8  -2   39.86    4.80
  -8  -8   2   35.57    3.63
  -8  -8  -2   39.17    3.39
   8  -8   3  133.79    8.48
   8  -8  -3  124.56    8.26
  -8  -8   3  133.34    7.26
  -8  -8  -3  137.39    6.26
   8  -8   4  125.75    8.14
   8  -8  -4  122.15    8.20
  -8  -8   4  117.73    6.97
   8  -8   5    5.94    2.22
   8  -8  -5    9.60    2.66
  -8  -8   5   10.32    2.43
   8  -8  -6   79.05    6.76
  -8  -8   6   82.53    6.08
   8  -8  -7  116.45    8.06
  -8  -8   7  108.36    7.05
   8   8  -8  126.35    7.10
   8  -8  -8  120.21    8.32
  -8  -8   8  115.46    7.43
   8   8  -9   27.26    3.50
   8  -8  -9   33.50    4.53
  -8  -8   9   20.32    3.39
   8   8 -10   13.74    2.61
  -8  -8  10   10.32    2.68
   8   8 -11   52.54    4.73
  -8  -8  11   43.15    4.82
   8   8 -12   24.97    3.34
  -8  -8  12   19.41    3.43
   8   8 -13  105.39    6.64
  -8  -8  13  108.36    7.79
  -8  -8  14   46.48    5.33
  -8  -8  15    2.20    1.90
   8  -9   0   68.02    6.23
  -8  -9   0   65.46    4.83
   8  -9  -1   24.80    3.79
   8  -9   1   21.91    3.72
  -8  -9   1   25.22    3.07
  -8  -9  -1   28.06    3.19
   8  -9   2   14.63    3.24
   8  -9  -2   11.01    2.56
  -8  -9   2   14.40    2.62
  -8  -9  -2   16.97    2.50
   8  -9  -3   52.43    5.57
   8  -9   3   47.09    5.15
  -8  -9   3   44.11    4.22
   8  -9  -4   32.95    4.48
   8  -9   4   34.87    4.49
  -8  -9   4   29.18    3.55
   8  -9   5    2.95    2.02
   8  -9  -5    3.77    2.27
  -8  -9   5    1.54    1.41
   8  -9   6   76.52    6.53
   8  -9  -6   76.30    6.51
  -8  -9   6   70.48    5.80
   8  -9  -7    7.34    2.24
  -8  -9   7   11.54    2.70
   8  -9  -8   -0.69    2.31
  -8  -9   8    4.50    2.05
  -8  -9   9   35.14    4.32
   8   9 -10   35.74    3.75
  -8  -9  10   23.81    3.91
   8   9 -11   -0.66    1.30
  -8  -9  11   -0.22    1.64
  -8  -9  12    6.29    2.20
  -8  -9  13    0.52    1.70
  -8  -9  14    2.62    1.91
   8 -10   0   14.40    3.41
  -8 -10   0    8.99    2.12
   8 -10   1  146.72    9.08
   8 -10  -1  158.19    9.42
  -8 -10   1  142.58    7.52
  -8 -10  -1  140.66    7.16
   8 -10   2    0.97    2.07
   8 -10  -2   -0.83    1.74
  -8 -10  -2    0.14    1.10
  -8 -10   2    3.16    1.86
   8 -10   3  183.92   10.11
   8 -10  -3  178.09   10.09
  -8 -10   3  168.12    8.53
   8 -10  -4    3.50    2.10
   8 -10   4    1.94    2.16
  -8 -10   4   -0.59    1.58
   8 -10  -5   19.52    3.61
   8 -10   5   21.02    3.73
  -8 -10   5   18.11    3.20
   8 -10   6    4.52    2.51
   8 -10  -6    0.92    1.94
  -8 -10   6    0.69    1.53
   8 -10  -7  133.31    8.94
  -8 -10   7  114.84    7.52
   8 -10  -8   -0.59    2.13
  -8 -10   8   -1.22    1.86
  -8 -10   9  222.31   10.98
  -8 -10  10   11.73    3.04
  -8 -10  11  164.94    9.63
  -8 -10  12    0.61    1.96
  -8 -10  13  145.45    9.40
   8 -11   0    1.80    2.11
  -8 -11   0    2.59    1.55
   8 -11  -1   23.56    3.78
   8 -11   1   19.20    3.35
  -8 -11  -1   22.44    3.01
  -8 -11   1   18.92    3.07
   8 -11   2  110.36    7.86
   8 -11  -2  106.64    7.83
  -8 -11   2  104.34    6.61
  -8 -11  -2   98.27    6.04
   8 -11  -3    3.41    2.32
   8 -11   3    1.76    2.07
  -8 -11   3    2.15    1.72
   8 -11   4  126.30    8.54
   8 -11  -4  144.59    9.20
  -8 -11   4  126.30    7.69
   8 -11   5   25.37    4.15
   8 -11  -5   13.84    3.16
  -8 -11   5   12.54    2.58
   8 -11   6   42.66    5.03
   8 -11  -6   34.10    4.60
  -8 -11   6   30.34    4.03
   8 -11  -7    1.98    1.95
  -8 -11   7   -0.23    1.59
  -8 -11   8   13.97    3.01
  -8 -11   9    9.94    2.62
  -8 -11  10    1.60    1.80
  -8 -11  11   24.58    3.97
  -8 -11  12   14.96    3.13
   8 -12   0    5.50    2.60
  -8 -12   0    6.52    1.94
   8 -12  -1   13.82    3.01
   8 -12   1   18.05    3.66
  -8 -12  -1   15.84    2.73
  -8 -12   1   11.52    2.46
   8 -12   2   18.57    3.40
   8 -12  -2   20.12    3.56
  -8 -12   2   14.47    2.82
   8 -12   3  221.11   11.33
   8 -12  -3  227.39   11.61
  -8 -12   3  199.55    9.83
   8 -12  -4   42.17    5.25
   8 -12   4   42.96    4.93
  -8 -12   4   51.19    5.14
   8 -12   5   24.17    4.12
   8 -12  -5   23.01    3.99
  -8 -12   5   20.70    3.47
   8 -12   6   36.60    4.66
  -8 -12   6   27.69    3.88
  -8 -12   7   79.09    6.43
  -8 -12   8   13.55    2.97
  -8 -12   9   47.43    5.29
  -8 -12  10   20.38    3.60
  -8 -12  11   50.37    5.53
   8 -13   0   71.02    6.44
  -8 -13   0   63.93    5.39
   8 -13  -1   17.13    3.18
   8 -13   1   17.42    3.40
  -8 -13   1   20.32    3.37
   8 -13   2   53.36    5.63
   8 -13  -2   59.31    6.05
  -8 -13   2   53.95    5.15
   8 -13   3   42.28    4.96
  -8 -13   3   44.61    4.74
   8 -13   4   26.01    3.92
  -8 -13   4   25.88    3.73
   8 -13   5   14.15    3.24
  -8 -13   5   10.57    2.80
   8 -13   6   -1.81    1.91
  -8 -13   6   -1.40    2.03
  -8 -13   7   13.75    2.97
  -8 -13   8    4.71    2.28
  -8 -13   9   78.57    6.69
  -8 -13  10   -4.13    2.48
  -8 -14   0   10.60    2.54
  -8 -14   1   17.90    2.97
  -8 -14   2   17.05    3.22
   8 -14   3   49.39    5.49
  -8 -14   3   41.67    4.81
   8 -14   4   22.26    3.86
  -8 -14   4   30.38    4.13
  -8 -14   5    1.51    1.48
  -8 -14   6   73.73    6.49
  -8 -14   7   16.99    3.45
  -8 -14   8   29.71    4.30
  -8 -15   1    3.27    2.14
  -8 -15   2    4.24    2.10
  -8 -15   3   23.19    3.72
  -8 -15   4    0.16    1.70
  -8 -15   5    2.16    1.83
  -8 -15   6   50.72    5.37
   8  15  -8   30.89    4.43
  -8 -16   2    4.77    2.42
  -8 -16   3  178.51   10.12
  -8 -16   4   22.13    3.85
   9   0   0   -0.76    1.93
   9   0  -1    1.48    2.50
   9   0   1    0.90    1.91
   9   0  -2  410.80   15.44
   9   0  -3   -0.33    1.92
   9   0  -4  162.45    9.44
   9   0  -5   -0.03    1.97
   9   0  -6  274.85   12.59
   9   0  -7   -1.97    2.34
   9   0  -8   69.05    6.16
  -9   0   8   71.95    5.71
   9   0  -9    3.43    2.46
  -9   0   9    1.83    1.62
   9   0 -10   10.23    2.75
  -9   0  10    6.27    1.92
   9   0 -11   -4.56    2.26
  -9   0  11   -2.89    1.87
   9   0 -12   96.73    7.36
  -9   0  12   85.46    6.75
   9   0 -13    1.63    2.05
  -9   0  13    1.07    1.82
   9   0 -14   45.92    5.41
  -9   0  14   43.06    5.02
  -9   0  15    2.81    2.33
   9   1   0   -1.60    1.76
   9  -1   0   -0.09    2.41
   9  -1  -1    0.31    2.14
   9   1  -1    2.65    1.90
   9  -1   1    2.60    2.42
   9   1  -2    4.66    2.37
   9  -1  -2    0.19    1.75
   9  -1  -3    5.78    2.34
   9   1  -3    2.28    1.81
   9   1  -4    7.80    2.60
   9  -1  -4    9.19    2.73
  -9  -1   4    2.25    1.19
   9   1  -5   12.81    3.16
   9  -1  -5    5.79    2.42
  -9  -1   5    6.92    1.91
   9  -1  -6   51.63    5.41
   9   1  -6   52.72    5.40
  -9  -1   6   48.89    4.43
   9  -1  -7    0.72    1.72
   9   1  -7    2.95    1.80
  -9  -1   7   -0.44    1.44
   9  -1  -8   -1.22    2.02
   9   1  -8    0.25    1.70
  -9  -1   8   -0.65    1.45
   9  -1  -9    0.67    1.90
   9   1  -9    5.11    2.59
  -9  -1   9    2.72    1.75
   9  -1 -10    0.71    1.98
   9   1 -10    1.35    1.69
  -9  -1  10    1.20    1.85
   9  -1 -11   69.30    6.39
   9   1 -11   66.84    6.27
  -9  -1  11   67.60    5.85
   9   1 -12    3.95    2.02
   9  -1 -12    3.77    2.43
  -9  -1  12   -0.08    1.59
   9  -1 -13   84.55    7.16
   9   1 -13   99.10    7.50
  -9  -1  13   85.02    6.74
   9   1 -14    1.60    1.66
  -9  -1  14    3.53    2.03
   9   1 -15    1.00    1.81
  -9  -1  15   -2.63    2.34
   9  -2   0    1.21    1.80
   9  -2  -1  247.20   11.99
   9  -2   1  231.99   11.51
   9   2  -1  235.89   11.29
   9  -2  -2  131.04    8.61
   9   2  -2  126.10    8.27
   9  -2   2  122.93    8.41
  -9  -2   2  121.96    6.31
   9  -2  -3   89.12    7.18
   9   2  -3   88.26    6.83
  -9  -2   3   96.33    5.72
   9  -2  -4  108.95    7.76
   9   2  -4  102.37    7.37
  -9  -2   4   91.28    5.79
   9   2  -5   46.35    5.07
   9  -2  -5   41.19    4.97
  -9  -2   5   45.23    4.22
   9   2  -6   19.48    3.49
   9  -2  -6   11.97    3.14
  -9  -2   6   17.24    2.78
   9   2  -7  115.06    7.93
   9  -2  -7  110.77    7.99
  -9  -2   7  123.17    7.26
   9  -2  -8   54.45    5.56
   9   2  -8   51.89    5.48
  -9  -2   8   55.06    4.98
   9  -2  -9   34.68    4.54
   9   2  -9   43.15    5.18
  -9  -2   9   35.65    4.16
   9  -2 -10    3.40    2.06
   9   2 -10    1.04    1.90
  -9  -2  10    2.86    2.00
   9  -2 -11  208.56   11.27
   9   2 -11  212.69   10.97
  -9  -2  11  195.15   10.12
   9  -2 -12  130.91    9.00
   9   2 -12  111.86    7.91
  -9  -2  12  116.10    7.86
   9   2 -13   82.31    6.83
  -9  -2  13   77.67    6.60
   9   2 -14    0.86    1.73
  -9  -2  14   -0.82    1.86
   9   2 -15   19.48    3.73
  -9  -2  15   16.17    3.17
   9   2 -16   24.97    4.06
   9  -3   0    0.47    1.73
   9  -3   1    1.52    2.20
   9  -3  -1    4.80    2.43
   9   3  -2    8.92    2.52
   9  -3  -2    9.79    2.70
   9  -3   2    6.95    2.77
  -9  -3   2    6.39    1.60
   9   3  -3    3.69    2.08
   9  -3   3   -2.27    2.37
   9  -3  -3    1.73    1.80
  -9  -3   3    2.77    1.33
   9   3  -4    5.09    2.31
   9  -3  -4    4.47    2.05
  -9  -3   4    8.42    1.94
   9  -3  -5   32.81    4.53
   9   3  -5   27.71    3.83
  -9  -3   5   29.24    3.38
   9   3  -6   53.96    5.37
   9  -3  -6   72.61    6.52
  -9  -3   6   57.99    4.90
   9   3  -7    9.49    2.41
   9  -3  -7   13.55    3.18
  -9  -3   7   10.08    2.28
   9  -3  -8    0.90    1.99
   9   3  -8    4.03    2.17
  -9  -3   8    4.09    1.86
   9  -3  -9    5.31    2.09
   9   3  -9   -1.85    2.04
  -9  -3   9    1.99    1.83
   9   3 -10    1.97    1.87
   9  -3 -10    2.64    1.89
  -9  -3  10    2.71    1.92
   9   3 -11   14.07    2.96
   9  -3 -11   18.32    3.44
  -9  -3  11   13.56    2.64
   9   3 -12   27.81    4.10
  -9  -3  12   25.17    3.74
   9   3 -13   43.83    5.04
  -9  -3  13   41.34    4.94
   9   3 -14    0.36    1.66
  -9  -3  14   -2.28    1.74
   9   3 -15   87.28    7.03
  -9  -3  15   69.64    6.47
   9   3 -16    1.94    2.09
   9   3 -17    2.65    1.98
   9  -4   0    1.77    1.99
   9  -4  -1  118.07    8.34
   9  -4   1  115.59    8.14
   9  -4  -2    7.32    2.60
   9  -4   2   16.26    3.43
   9   4  -3    0.26    1.68
   9  -4   3    2.96    1.99
   9  -4  -3   -1.56    2.21
  -9  -4   3   -1.78    1.45
   9   4  -4   27.61    4.15
   9  -4  -4   28.87    4.39
  -9  -4   4   23.50    3.07
   9   4  -5  272.39   12.08
   9  -4  -5  291.22   13.19
  -9  -4   5  277.47   10.91
   9  -4  -6   47.49    5.43
   9   4  -6   43.38    4.94
  -9  -4   6   44.88    4.38
   9  -4  -7   -0.43    2.16
   9   4  -7    3.76    2.00
  -9  -4   7    3.18    1.54
   9  -4  -8    1.87    1.87
   9   4  -8    0.61    1.64
  -9  -4   8    2.27    1.64
   9   4  -9   25.07    3.80
   9  -4  -9   25.23    3.98
  -9  -4   9   24.76    3.55
   9   4 -10   -0.53    1.90
   9  -4 -10   -0.62    1.90
  -9  -4  10    1.11    1.43
   9   4 -11  121.30    7.99
  -9  -4  11  119.84    7.96
   9   4 -12   25.96    3.91
  -9  -4  12   24.20    3.69
   9   4 -13   26.16    3.87
  -9  -4  13   22.21    3.66
   9   4 -14    0.32    1.75
  -9  -4  14    1.18    1.62
   9   4 -15   86.68    6.86
  -9  -4  15   77.20    6.88
   9   4 -16   37.24    4.71
   9   4 -17    3.89    2.29
   9  -5   0    0.93    1.99
   9  -5  -1   19.46    3.55
   9  -5   1   13.40    2.89
   9  -5   2    2.27    2.20
   9  -5  -2    3.40    2.05
   9  -5   3   15.46    3.37
   9  -5  -3   12.86    2.92
  -9  -5   3   15.81    2.57
   9  -5  -4   -0.52    1.76
  -9  -5   4    0.00    1.50
   9  -5  -5   -0.97    2.32
   9   5  -5    3.47    2.24
  -9  -5   5    0.62    1.54
   9  -5  -6    0.85    1.87
   9   5  -6    2.47    2.01
  -9  -5   6    5.35    2.04
   9   5  -7   -0.41    1.56
   9  -5  -7    0.22    1.82
  -9  -5   7   -1.40    1.55
   9  -5  -8    2.56    2.30
   9   5  -8    6.21    2.37
  -9  -5   8    7.53    2.45
   9   5  -9    7.39    2.44
  -9  -5   9    6.27    2.20
   9   5 -10   -2.82    1.97
  -9  -5  10    1.62    1.85
   9   5 -11   12.86    2.98
  -9  -5  11   10.45    2.82
   9   5 -12   46.71    5.01
  -9  -5  12   45.92    5.08
   9   5 -13   -2.63    1.97
  -9  -5  13    3.34    2.26
   9   5 -14    5.59    2.12
  -9  -5  14    5.17    2.06
   9   5 -15    3.13    2.11
   9   5 -16   18.15    3.36
   9  -6   0    1.69    2.03
   9  -6  -1    5.57    2.40
   9  -6   1   12.48    3.21
   9  -6  -2  219.82   11.47
   9  -6   2  222.72   11.60
   9  -6   3   11.92    2.92
   9  -6  -3   14.16    3.41
  -9  -6   3   12.87    2.45
   9  -6   4    2.57    2.26
   9  -6  -4    0.27    1.94
  -9  -6   4    1.70    1.45
   9  -6  -5    9.49    2.88
  -9  -6   5   10.29    2.43
   9   6  -6   82.06    6.36
   9  -6  -6   75.96    6.76
  -9  -6   6   67.02    5.38
   9   6  -7    3.53    2.16
  -9  -6   7    6.06    2.18
   9   6  -8  119.67    7.74
  -9  -6   8  118.89    7.65
   9   6  -9    8.87    2.47
  -9  -6   9    5.05    2.29
   9   6 -10    4.32    2.16
  -9  -6  10    2.85    1.75
   9   6 -11    0.67    1.68
  -9  -6  11    3.07    2.01
   9   6 -12  160.49    9.00
  -9  -6  12  148.65    9.28
   9   6 -13   36.15    4.41
  -9  -6  13   42.77    5.02
   9   6 -14   13.79    3.20
  -9  -6  14   11.48    3.14
   9   6 -15   30.03    4.17
   9  -7   0    2.21    2.38
   9  -7   1   24.24    4.17
   9  -7  -1   25.70    4.31
   9  -7   2    7.28    2.43
   9  -7  -2    8.50    2.54
   9  -7  -3    0.31    2.35
   9  -7   3    0.70    2.20
  -9  -7   3    1.86    1.66
   9  -7  -4   48.01    5.68
   9  -7   4   43.30    5.37
  -9  -7   4   46.96    4.45
  -9  -7   5  139.48    7.80
  -9  -7   6   28.47    3.77
  -9  -7   7    5.33    2.29
   9   7  -8    1.09    1.98
  -9  -7   8    2.16    1.67
   9   7  -9   46.91    4.98
  -9  -7   9   34.97    4.42
   9   7 -10    2.72    1.61
  -9  -7  10    1.12    1.77
   9   7 -11    3.07    1.55
  -9  -7  11   -0.65    1.97
   9   7 -12   -1.96    1.92
  -9  -7  12    1.23    1.79
  -9  -7  13    0.97    1.64
  -9  -8   4   10.09    2.36
  -9  -8   5   62.61    5.29
  -9  -8   6   20.77    3.25
  -9  -8   7    6.51    2.12
  -9  -8   8   53.23    5.25
  -9  -8   9   26.53    3.82
   9   8 -10    1.73    2.11
  -9  -8  10   -1.72    1.57
  -9  -8  11   61.06    6.00
  -9  -8  12   73.42    6.59
  -9  -9   4    0.27    1.53
  -9  -9   5   42.53    4.53
  -9  -9   6   10.14    2.57
  -9  -9   7   15.10    3.08
  -9  -9   8    5.93    2.31
  -9  -9   9   26.82    4.02
  -9  -9  10    4.74    2.09
  -9  -9  11    6.03    2.54
  -9 -10   5  342.88   13.36
  -9 -10   6    1.95    1.93
  -9 -10   7   -0.08    1.89
  -9 -10   8    0.11    1.64
  -9 -10   9   56.21    5.71
  -9 -10  10    5.29    1.93
  -9 -11   5   20.22    3.35
  -9 -11   6    8.73    2.65
  -9 -11   7   -0.04    1.74
  -9 -11   8   52.24    5.42
  -9 -11   9    2.35    1.71
  -9 -12   6    5.54    2.21
  -9 -12   7   43.65    5.12
  -9 -12   8   39.06    5.08
 -10  -1  10   21.93    3.62
 -10  -1  11    4.87    2.16
 -10  -1  12    1.95    2.20
 -10  -2  10   14.90    3.20
 -10  -2  11   11.17    2.92
 -10  -3  11   15.82    3.39
  10   4  -5    4.90    2.66
  10   4  -6    2.28    2.60
  10   5  -7   32.94    4.50
  10   5  -8   29.98    4.35
  10   6  -8    3.96    2.29
   0   0   0    0.00    0.00


TITL pvl934_autored in Pbca
REM Pbca (#61 in standard setting)
CELL 0.71073   7.884221  17.988765  24.724234  90.0000  90.0000  90.0000
ZERR   39.00   0.000244   0.000588   0.000799   0.0000   0.0000   0.0000
LATT  1
SYMM -x+1/2,-y, z+1/2
SYMM -x, y+1/2,-z+1/2
SYMM  x+1/2,-y+1/2,-z
SFAC C H N O S Zn
UNIT 39.00 39.00 39.00 39.00 39.00 39.00
REM  CrysAlisPro recorded range (K): Min=130.0; max=130.0; aver:130.0
TEMP -143
TREF
HKLF 4
END
_computing_structure_solution     'SHELXT 2018/2 (Sheldrick, 2018)'
;
_shelx_hkl_checksum   71641

