 
data_pvv468ab_a
 
_audit_creation_method            'SHELXL-2018/3'
_shelx_SHELXL_version_number      '2018/3'
_chemical_name_systematic         ?
_chemical_name_common             ?
_chemical_melting_point           ?
_chemical_formula_moiety          ?
_chemical_formula_sum
 'C4.44 H3.56 Co0.22 N1.11 O1.11 S0.11' 
_chemical_formula_weight          106.96

loop_
 _atom_type_symbol
 _atom_type_description
 _atom_type_scat_dispersion_real
 _atom_type_scat_dispersion_imag
 _atom_type_scat_source
 'C'  'C'   0.0040   0.0019
 'International Tables Vol C Tables 4.2.6.8 and 6.1.1.4'
 'H'  'H'   0.0000   0.0000
 'International Tables Vol C Tables 4.2.6.8 and 6.1.1.4'
 'N'  'N'   0.0077   0.0039
 'International Tables Vol C Tables 4.2.6.8 and 6.1.1.4'
 'O'  'O'   0.0131   0.0071
 'International Tables Vol C Tables 4.2.6.8 and 6.1.1.4'
 'S'  'S'   0.1387   0.1410
 'International Tables Vol C Tables 4.2.6.8 and 6.1.1.4'
 'Co'  'Co'   0.3511   1.0868
 'International Tables Vol C Tables 4.2.6.8 and 6.1.1.4'
 
_space_group_crystal_system       triclinic
_space_group_IT_number            2
_space_group_name_H-M_alt         'P -1'
_space_group_name_Hall            '-P 1'
 
_shelx_space_group_comment
;
The symmetry employed for this shelxl refinement is uniquely defined
by the following loop, which should always be used as a source of
symmetry information in preference to the above space-group names.
They are only intended as comments.
;
 
loop_
 _space_group_symop_operation_xyz
 'x, y, z'
 '-x, -y, -z'
 
_cell_length_a                    12.376(4)
_cell_length_b                    13.080(3)
_cell_length_c                    13.184(3)
_cell_angle_alpha                 82.595(3)
_cell_angle_beta                  67.525(11)
_cell_angle_gamma                 86.034(5)
_cell_volume                      1955.2(9)
_cell_formula_units_Z             18
_cell_measurement_temperature     293(2)
_cell_measurement_reflns_used     ?
_cell_measurement_theta_min       ?
_cell_measurement_theta_max       ?
 
_exptl_crystal_description        ?
_exptl_crystal_colour             ?
_exptl_crystal_density_meas       ?
_exptl_crystal_density_method     ?
_exptl_crystal_density_diffrn     1.635          
_exptl_crystal_F_000              984
_exptl_transmission_factor_min    ?
_exptl_transmission_factor_max    ?
_exptl_crystal_size_max           ?
_exptl_crystal_size_mid           ?
_exptl_crystal_size_min           ?
_exptl_absorpt_coefficient_mu     1.135
_shelx_estimated_absorpt_T_min    ?
_shelx_estimated_absorpt_T_max    ?
_exptl_absorpt_correction_type    ?
_exptl_absorpt_correction_T_min   ?
_exptl_absorpt_correction_T_max   ?
_exptl_absorpt_process_details    ?
_exptl_absorpt_special_details    ?
_diffrn_ambient_temperature       293(2)
_diffrn_radiation_wavelength      0.7527
_diffrn_radiation_type            ?
_diffrn_source                    ?
_diffrn_measurement_device_type   ?
_diffrn_measurement_method        ?
_diffrn_detector_area_resol_mean  ?
_diffrn_reflns_number             28631
_diffrn_reflns_av_unetI/netI      0.0592
_diffrn_reflns_av_R_equivalents   0.0514
_diffrn_reflns_limit_h_min        -17
_diffrn_reflns_limit_h_max        13
_diffrn_reflns_limit_k_min        -18
_diffrn_reflns_limit_k_max        16
_diffrn_reflns_limit_l_min        -18
_diffrn_reflns_limit_l_max        18
_diffrn_reflns_theta_min          1.663
_diffrn_reflns_theta_max          31.360
_diffrn_reflns_theta_full         26.848
_diffrn_measured_fraction_theta_max   0.994
_diffrn_measured_fraction_theta_full  0.996
_diffrn_reflns_Laue_measured_fraction_max    0.994
_diffrn_reflns_Laue_measured_fraction_full   0.996
_diffrn_reflns_point_group_measured_fraction_max   0.994
_diffrn_reflns_point_group_measured_fraction_full  0.996
_reflns_number_total              10740
_reflns_number_gt                 7706
_reflns_threshold_expression      'I > 2\s(I)'
_reflns_Friedel_coverage          0.000
_reflns_Friedel_fraction_max      .
_reflns_Friedel_fraction_full     .
 
_reflns_special_details
;
 Reflections were merged by SHELXL according to the crystal
 class for the calculation of statistics and refinement.
 
 _reflns_Friedel_fraction is defined as the number of unique
 Friedel pairs measured divided by the number that would be
 possible theoretically, ignoring centric projections and
 systematic absences.
;
 
_computing_data_collection        ?
_computing_cell_refinement        ?
_computing_data_reduction         ?
_computing_structure_solution     'SHELXT 2018/2 (Sheldrick, 2018)'
_computing_structure_refinement 'SHELXL-2018/3 (Sheldrick, 2018)'
_computing_molecular_graphics     ?
_computing_publication_material   ?
_refine_special_details           ?
_refine_ls_structure_factor_coef  Fsqd
_refine_ls_matrix_type            full
_refine_ls_weighting_scheme       calc
_refine_ls_weighting_details
'w=1/[\s^2^(Fo^2^)+(0.0870P)^2^+2.3534P] where P=(Fo^2^+2Fc^2^)/3'
_atom_sites_solution_primary      ?
_atom_sites_solution_secondary    ?
_atom_sites_solution_hydrogens    geom
_refine_ls_hydrogen_treatment     constr
_refine_ls_extinction_method      none
_refine_ls_extinction_coef        .
_refine_ls_number_reflns          10740
_refine_ls_number_parameters      572
_refine_ls_number_restraints      0
_refine_ls_R_factor_all           0.0874
_refine_ls_R_factor_gt            0.0598
_refine_ls_wR_factor_ref          0.1651
_refine_ls_wR_factor_gt           0.1522
_refine_ls_goodness_of_fit_ref    1.019
_refine_ls_restrained_S_all       1.019
_refine_ls_shift/su_max           0.000
_refine_ls_shift/su_mean          0.000
 
loop_
 _atom_site_label
 _atom_site_type_symbol
 _atom_site_fract_x
 _atom_site_fract_y
 _atom_site_fract_z
 _atom_site_U_iso_or_equiv
 _atom_site_adp_type
 _atom_site_occupancy
 _atom_site_site_symmetry_order  
 _atom_site_calc_flag
 _atom_site_refinement_flags_posn
 _atom_site_refinement_flags_adp
 _atom_site_refinement_flags_occupancy
 _atom_site_disorder_assembly
 _atom_site_disorder_group
Co01 Co 0.33549(4) 0.33782(3) 0.21804(3) 0.01990(10) Uani 1 1 d . . . . .
Co02 Co 0.09296(4) 0.35735(3) 0.32510(3) 0.01955(10) Uani 1 1 d . . . . .
S003 S 0.65449(9) -0.09782(7) -0.00361(8) 0.0378(2) Uani 1 1 d . . . . .
O004 O 0.3058(2) 1.18344(17) 0.2448(2) 0.0301(5) Uani 1 1 d . . . . .
O005 O 0.1286(2) 0.34999(19) 0.46333(19) 0.0296(5) Uani 1 1 d . . . . .
O006 O 0.2972(2) 0.3446(2) 1.08044(19) 0.0290(5) Uani 1 1 d . . . . .
O007 O 0.1018(2) 0.36168(17) 1.16319(17) 0.0240(4) Uani 1 1 d . . . . .
O008 O 0.1427(2) 0.50610(17) 0.2866(2) 0.0285(5) Uani 1 1 d . . . . .
O009 O 0.3382(2) 0.49182(17) 0.2086(2) 0.0288(5) Uani 1 1 d . . . . .
N1 N 1.1546(3) -0.1772(3) -0.2245(3) 0.0410(8) Uani 1 1 d . . . . .
O00A O 0.1114(2) 1.20189(17) 0.3272(2) 0.0283(5) Uani 1 1 d . . . . .
O00B O -0.0820(2) 0.37128(18) 0.3855(2) 0.0278(5) Uani 1 1 d . . . . .
O00C O 0.3231(2) 0.33016(19) 0.37841(19) 0.0309(5) Uani 1 1 d . . . . .
N00D N 0.5121(2) 0.3159(2) 0.1305(2) 0.0249(5) Uani 1 1 d . . . . .
N00E N 0.6755(3) 0.2402(2) 0.0354(2) 0.0268(6) Uani 1 1 d . . . . .
N00F N -0.2614(3) 0.3833(2) 0.3765(2) 0.0300(6) Uani 1 1 d . . . . .
N00G N 1.0455(3) -0.0456(2) -0.1557(3) 0.0314(6) Uani 1 1 d . . . . .
N00H N 0.7956(3) -0.1035(2) -0.0586(3) 0.0337(6) Uani 1 1 d . . . . .
N00J N 0.6327(3) 0.0218(2) 0.0208(3) 0.0353(7) Uani 1 1 d . . . . .
N3 N 1.1554(3) -0.0165(3) -0.1775(3) 0.0372(7) Uani 1 1 d . . . . .
N4 N 0.6973(3) 0.3438(2) 0.0122(3) 0.0318(6) Uani 1 1 d . . . . .
C00K C 0.2438(3) 0.5425(2) 0.2495(2) 0.0234(6) Uani 1 1 d . . . . .
C00M C 0.1689(3) 0.8198(2) 0.3153(3) 0.0245(6) Uani 1 1 d . . . . .
C00N C 0.1519(3) 0.3712(2) 0.6606(3) 0.0236(6) Uani 1 1 d . . . . .
H00N H 0.081397 0.391381 0.653356 0.028 Uiso 1 1 calc R U . . .
C00O C 0.1953(3) 0.3561(2) 1.0796(2) 0.0228(6) Uani 1 1 d . . . . .
C00P C 0.2306(3) 0.3409(2) 0.4624(3) 0.0252(6) Uani 1 1 d . . . . .
C00Q C 0.2051(3) 1.1487(2) 0.2918(3) 0.0258(6) Uani 1 1 d . . . . .
C00S C 0.0711(3) 0.8834(2) 0.3680(3) 0.0285(7) Uani 1 1 d . . . . .
H00S H -0.001365 0.853847 0.407598 0.034 Uiso 1 1 calc R U . . .
C00T C 0.1850(3) 0.3629(2) 0.9691(2) 0.0233(6) Uani 1 1 d . . . . .
C00U C 0.2706(3) 0.3410(3) 0.7741(3) 0.0255(6) Uani 1 1 d . . . . .
C00V C 0.1927(3) 1.0335(2) 0.3049(3) 0.0267(6) Uani 1 1 d . . . . .
C00W C 0.2799(3) 0.8649(2) 0.2612(3) 0.0274(6) Uani 1 1 d . . . . .
C00X C 0.2800(3) 0.3397(3) 0.8772(3) 0.0258(6) Uani 1 1 d . . . . .
H00X H 0.351643 0.322976 0.883513 0.031 Uiso 1 1 calc R U . . .
C00Y C 0.1616(3) 0.3708(2) 0.7639(3) 0.0229(6) Uani 1 1 d . . . . .
C00Z C 0.2446(3) 0.3423(3) 0.5707(3) 0.0261(6) Uani 1 1 d . . . . .
C010 C 0.8783(3) 0.1957(3) -0.0574(3) 0.0312(7) Uani 1 1 d . . . . .
H010 H 0.895833 0.263462 -0.056390 0.037 Uiso 1 1 calc R U . . .
C011 C 0.0765(3) 0.3915(2) 0.9591(3) 0.0244(6) Uani 1 1 d . . . . .
H011 H 0.011775 0.405593 1.021279 0.029 Uiso 1 1 calc R U . . .
C012 C 0.2547(3) 0.6549(2) 0.2559(3) 0.0241(6) Uani 1 1 d . . . . .
C013 C 0.1588(3) 0.7127(2) 0.3127(3) 0.0260(6) Uani 1 1 d . . . . .
H013 H 0.086715 0.681598 0.349677 0.031 Uiso 1 1 calc R U . . .
C014 C 0.5648(3) 0.2255(3) 0.1061(3) 0.0268(6) Uani 1 1 d . . . . .
H014 H 0.530202 0.161641 0.133735 0.032 Uiso 1 1 calc R U . . .
C015 C 0.3661(3) 0.7000(3) 0.2049(3) 0.0301(7) Uani 1 1 d . . . . .
H015 H 0.431174 0.659865 0.168675 0.036 Uiso 1 1 calc R U . . .
C016 C 0.7645(3) 0.1677(3) -0.0129(3) 0.0287(7) Uani 1 1 d . . . . .
C017 C 0.9502(3) 0.0248(3) -0.1085(3) 0.0305(7) Uani 1 1 d . . . . .
C018 C 0.8326(3) -0.0086(3) -0.0625(3) 0.0297(7) Uani 1 1 d . . . . .
C019 C 0.0665(3) 0.3985(2) 0.8582(3) 0.0248(6) Uani 1 1 d . . . . .
H019 H -0.003655 0.421749 0.851844 0.030 Uiso 1 1 calc R U . . .
C01A C -0.1458(3) 0.3738(2) 0.3314(3) 0.0270(6) Uani 1 1 d . . . . .
H01A H -0.110755 0.368715 0.255953 0.032 Uiso 1 1 calc R U . . .
C01B C 0.3785(3) 0.8017(3) 0.2087(3) 0.0322(7) Uani 1 1 d . . . . .
H01B H 0.452390 0.830173 0.176559 0.039 Uiso 1 1 calc R U . . .
C01C C 0.2897(3) 0.9723(2) 0.2592(3) 0.0287(7) Uani 1 1 d . . . . .
H01C H 0.363021 1.001896 0.226493 0.034 Uiso 1 1 calc R U . . .
C01D C 0.7386(3) 0.0639(3) -0.0165(3) 0.0279(7) Uani 1 1 d . . . . .
C01E C 0.9717(3) 0.1254(3) -0.1055(3) 0.0316(7) Uani 1 1 d . . . . .
H01E H 1.048288 0.148140 -0.135171 0.038 Uiso 1 1 calc R U . . .
C01F C 0.0816(3) 0.9877(3) 0.3615(3) 0.0283(7) Uani 1 1 d . . . . .
H01F H 0.015996 1.028680 0.394214 0.034 Uiso 1 1 calc R U . . .
C01G C 0.5965(3) 0.3851(3) 0.0706(3) 0.0289(7) Uani 1 1 d . . . . .
H01G H 0.583748 0.456026 0.071013 0.035 Uiso 1 1 calc R U . . .
C01H C 0.3530(3) 0.3139(3) 0.5801(3) 0.0336(8) Uani 1 1 d . . . . .
H01H H 0.416226 0.295724 0.518612 0.040 Uiso 1 1 calc R U . . .
C01I C 1.0460(3) -0.1408(3) -0.1834(3) 0.0366(8) Uani 1 1 d . . . . .
H01I H 0.979855 -0.176068 -0.175021 0.044 Uiso 1 1 calc R U . . .
C01J C 0.3658(3) 0.3129(3) 0.6793(3) 0.0330(7) Uani 1 1 d . . . . .
H01J H 0.437419 0.293533 0.684506 0.040 Uiso 1 1 calc R U . . .
C01L C 1.2165(4) -0.0985(3) -0.2180(3) 0.0386(8) Uani 1 1 d . . . . .
H01L H 1.297543 -0.102178 -0.240809 0.046 Uiso 1 1 calc R U . . .
O01M O 1.4750(4) -0.0372(4) -0.3109(4) 0.0869(14) Uani 1 1 d . . . . .
N2 N 1.6384(4) -0.0112(3) -0.4667(4) 0.0550(10) Uani 1 1 d . . . . .
C01N C -0.3321(4) 0.3818(3) 0.3102(4) 0.0395(8) Uani 1 1 d . . . . .
H01D H -0.281724 0.379822 0.234091 0.059 Uiso 1 1 calc R U . . .
H01K H -0.381223 0.442636 0.317465 0.059 Uiso 1 1 calc R U . . .
H01M H -0.379799 0.321790 0.335282 0.059 Uiso 1 1 calc R U . . .
C01O C -0.3208(4) 0.3899(3) 0.4940(3) 0.0411(9) Uani 1 1 d . . . . .
H01N H -0.265340 0.405348 0.524299 0.062 Uiso 1 1 calc R U . . .
H01O H -0.356449 0.325222 0.529707 0.062 Uiso 1 1 calc R U . . .
H01P H -0.380024 0.443437 0.505805 0.062 Uiso 1 1 calc R U . . .
C01P C 1.6325(6) 0.1002(4) -0.4805(5) 0.0667(15) Uani 1 1 d . . . . .
H01Q H 1.630584 0.123721 -0.551891 0.100 Uiso 1 1 calc R U . . .
H01R H 1.699952 0.126895 -0.474717 0.100 Uiso 1 1 calc R U . . .
H01S H 1.562992 0.123858 -0.424203 0.100 Uiso 1 1 calc R U . . .
C01Q C 1.5586(5) -0.0704(5) -0.3832(5) 0.0646(14) Uani 1 1 d . . . . .
H01T H 1.569009 -0.141573 -0.381622 0.078 Uiso 1 1 calc R U . . .
C01R C 1.7392(6) -0.0627(4) -0.5389(5) 0.0757(19) Uani 1 1 d . . . . .
H01U H 1.735812 -0.058421 -0.610876 0.114 Uiso 1 1 calc R U . . .
H01V H 1.740401 -0.133788 -0.509947 0.114 Uiso 1 1 calc R U . . .
H01W H 1.808709 -0.030362 -0.544172 0.114 Uiso 1 1 calc R U . . .
 
loop_
 _atom_site_aniso_label
 _atom_site_aniso_U_11
 _atom_site_aniso_U_22
 _atom_site_aniso_U_33
 _atom_site_aniso_U_23
 _atom_site_aniso_U_13
 _atom_site_aniso_U_12
Co01 0.0253(2) 0.0152(2) 0.02212(19) -0.00532(14) -0.01169(16) 0.00256(14)
Co02 0.0247(2) 0.01533(19) 0.02176(19) -0.00458(14) -0.01176(16) 0.00107(14)
S003 0.0372(5) 0.0251(4) 0.0435(5) -0.0098(3) -0.0049(4) -0.0023(3)
O004 0.0363(13) 0.0179(11) 0.0388(13) -0.0058(9) -0.0163(11) -0.0003(9)
O005 0.0391(13) 0.0290(12) 0.0276(11) -0.0063(9) -0.0201(10) 0.0032(10)
O006 0.0271(12) 0.0387(14) 0.0252(11) -0.0071(9) -0.0139(9) 0.0033(10)
O007 0.0296(11) 0.0233(11) 0.0211(10) -0.0059(8) -0.0111(9) 0.0015(9)
O008 0.0361(13) 0.0195(11) 0.0333(12) -0.0054(9) -0.0158(10) -0.0029(9)
O009 0.0341(13) 0.0174(11) 0.0371(12) -0.0072(9) -0.0155(10) 0.0049(9)
N1 0.0390(18) 0.0384(18) 0.053(2) -0.0211(15) -0.0222(15) 0.0117(14)
O00A 0.0389(13) 0.0169(11) 0.0328(12) -0.0051(8) -0.0175(10) 0.0028(9)
O00B 0.0269(12) 0.0277(12) 0.0304(11) -0.0061(9) -0.0121(9) 0.0008(9)
O00C 0.0396(14) 0.0319(13) 0.0226(11) -0.0041(9) -0.0130(10) -0.0005(10)
N00D 0.0285(14) 0.0214(13) 0.0281(13) -0.0066(10) -0.0138(11) 0.0032(10)
N00E 0.0307(14) 0.0202(13) 0.0296(13) -0.0069(10) -0.0107(11) 0.0024(10)
N00F 0.0275(14) 0.0287(15) 0.0349(15) -0.0046(11) -0.0130(12) 0.0007(11)
N00G 0.0365(16) 0.0282(15) 0.0356(15) -0.0068(11) -0.0195(13) 0.0011(12)
N00H 0.0357(16) 0.0262(15) 0.0356(15) -0.0069(12) -0.0088(13) 0.0012(12)
N00J 0.0349(16) 0.0268(15) 0.0392(16) -0.0084(12) -0.0068(13) -0.0014(12)
N3 0.0348(17) 0.0352(17) 0.0449(18) -0.0100(13) -0.0182(14) 0.0062(13)
N4 0.0344(16) 0.0205(14) 0.0372(15) -0.0052(11) -0.0098(12) 0.0022(11)
C00K 0.0338(16) 0.0163(14) 0.0237(14) -0.0038(10) -0.0146(12) 0.0011(11)
C00M 0.0286(16) 0.0168(14) 0.0290(15) -0.0044(11) -0.0115(12) 0.0000(11)
C00N 0.0290(15) 0.0204(14) 0.0259(14) -0.0032(11) -0.0152(12) -0.0003(11)
C00O 0.0289(15) 0.0199(14) 0.0231(13) -0.0052(11) -0.0132(12) 0.0014(11)
C00P 0.0367(17) 0.0209(15) 0.0227(14) -0.0040(11) -0.0160(13) 0.0005(12)
C00Q 0.0373(17) 0.0173(14) 0.0268(14) -0.0056(11) -0.0161(13) 0.0016(12)
C00S 0.0308(17) 0.0192(15) 0.0319(16) -0.0037(12) -0.0075(13) -0.0021(12)
C00T 0.0292(15) 0.0211(14) 0.0232(13) -0.0044(11) -0.0137(12) 0.0015(11)
C00U 0.0258(15) 0.0294(16) 0.0235(14) -0.0049(11) -0.0112(12) -0.0002(12)
C00V 0.0352(17) 0.0169(14) 0.0318(16) -0.0047(11) -0.0161(13) -0.0010(12)
C00W 0.0310(16) 0.0189(15) 0.0347(16) -0.0066(12) -0.0142(13) -0.0003(12)
C00X 0.0251(15) 0.0299(16) 0.0253(14) -0.0048(12) -0.0125(12) 0.0004(12)
C00Y 0.0258(15) 0.0211(14) 0.0245(14) -0.0052(11) -0.0123(12) 0.0026(11)
C00Z 0.0323(16) 0.0265(16) 0.0234(14) -0.0043(11) -0.0147(13) 0.0005(12)
C010 0.0333(18) 0.0242(16) 0.0375(18) -0.0092(13) -0.0138(14) 0.0032(13)
C011 0.0276(15) 0.0208(14) 0.0262(14) -0.0065(11) -0.0112(12) 0.0029(11)
C012 0.0297(16) 0.0194(14) 0.0263(14) -0.0046(11) -0.0136(12) -0.0003(11)
C013 0.0322(16) 0.0202(15) 0.0285(15) -0.0050(11) -0.0142(13) -0.0002(12)
C014 0.0277(16) 0.0245(16) 0.0291(15) -0.0056(12) -0.0115(13) 0.0031(12)
C015 0.0307(17) 0.0206(16) 0.0396(18) -0.0062(13) -0.0138(14) 0.0041(12)
C016 0.0296(17) 0.0261(16) 0.0311(16) -0.0056(12) -0.0123(13) 0.0044(13)
C017 0.0348(18) 0.0298(17) 0.0300(16) -0.0080(13) -0.0151(14) 0.0057(14)
C018 0.0374(18) 0.0220(16) 0.0308(16) -0.0056(12) -0.0134(14) 0.0017(13)
C019 0.0250(15) 0.0250(15) 0.0278(15) -0.0064(11) -0.0133(12) 0.0020(11)
C01A 0.0299(16) 0.0224(15) 0.0315(16) -0.0058(12) -0.0142(13) 0.0000(12)
C01B 0.0276(17) 0.0213(16) 0.047(2) -0.0030(14) -0.0129(15) -0.0037(12)
C01C 0.0317(17) 0.0178(15) 0.0377(17) -0.0055(12) -0.0136(14) -0.0006(12)
C01D 0.0318(17) 0.0244(16) 0.0259(15) -0.0063(12) -0.0086(13) 0.0031(13)
C01E 0.0297(17) 0.0295(18) 0.0377(18) -0.0091(14) -0.0138(14) 0.0030(13)
C01F 0.0331(17) 0.0211(15) 0.0285(15) -0.0070(12) -0.0087(13) 0.0037(12)
C01G 0.0300(16) 0.0228(16) 0.0350(17) -0.0084(12) -0.0125(13) 0.0026(12)
C01H 0.0315(17) 0.047(2) 0.0223(15) -0.0074(14) -0.0107(13) 0.0063(15)
C01I 0.0354(19) 0.0332(19) 0.048(2) -0.0173(16) -0.0211(16) 0.0077(15)
C01J 0.0257(16) 0.049(2) 0.0254(15) -0.0088(14) -0.0105(13) 0.0044(15)
C01L 0.0351(19) 0.043(2) 0.042(2) -0.0125(16) -0.0187(16) 0.0083(16)
O01M 0.053(2) 0.135(4) 0.073(3) 0.000(3) -0.027(2) -0.002(3)
N2 0.063(3) 0.056(2) 0.052(2) 0.0016(18) -0.030(2) -0.004(2)
C01N 0.0340(19) 0.042(2) 0.049(2) -0.0110(17) -0.0216(17) 0.0043(16)
C01O 0.0328(19) 0.049(2) 0.0369(19) -0.0065(17) -0.0085(15) 0.0025(17)
C01P 0.095(4) 0.059(3) 0.055(3) -0.016(2) -0.038(3) 0.016(3)
C01Q 0.051(3) 0.079(4) 0.067(3) -0.011(3) -0.025(3) 0.001(3)
C01R 0.114(5) 0.042(3) 0.063(3) -0.005(2) -0.028(3) 0.009(3)
 
_geom_special_details
;
 All esds (except the esd in the dihedral angle between two l.s. planes)
 are estimated using the full covariance matrix.  The cell esds are taken
 into account individually in the estimation of esds in distances, angles
 and torsion angles; correlations between esds in cell parameters are only
 used when they are defined by crystal symmetry.  An approximate (isotropic)
 treatment of cell esds is used for estimating esds involving l.s. planes.
;
 
loop_
 _geom_bond_atom_site_label_1
 _geom_bond_atom_site_label_2
 _geom_bond_distance
 _geom_bond_site_symmetry_2
 _geom_bond_publ_flag
Co01 O009 2.004(2) . ?
Co01 O006 2.033(2) 1_554 ?
Co01 O004 2.039(2) 1_545 ?
Co01 O00C 2.050(2) . ?
Co01 N00D 2.065(3) . ?
Co01 Co02 2.7955(11) . ?
Co02 O00B 2.005(3) . ?
Co02 O005 2.022(2) . ?
Co02 O008 2.023(2) . ?
Co02 O00A 2.028(2) 1_545 ?
Co02 O007 2.089(2) 1_554 ?
S003 N00H 1.615(3) . ?
S003 N00J 1.622(3) . ?
O004 C00Q 1.248(4) . ?
O005 C00P 1.256(4) . ?
O006 C00O 1.264(4) . ?
O007 C00O 1.262(4) . ?
O008 C00K 1.260(4) . ?
O009 C00K 1.265(4) . ?
N1 C01I 1.321(5) . ?
N1 C01L 1.355(5) . ?
O00A C00Q 1.267(4) . ?
O00B C01A 1.247(4) . ?
O00C C00P 1.267(4) . ?
N00D C014 1.325(4) . ?
N00D C01G 1.360(4) . ?
N00E C014 1.341(4) . ?
N00E N4 1.371(4) . ?
N00E C016 1.413(4) . ?
N00F C01A 1.326(4) . ?
N00F C01O 1.450(5) . ?
N00F C01N 1.456(5) . ?
N00G C01I 1.341(5) . ?
N00G N3 1.351(5) . ?
N00G C017 1.436(5) . ?
N00H C018 1.341(5) . ?
N00J C01D 1.342(5) . ?
N3 C01L 1.316(5) . ?
N4 C01G 1.312(4) . ?
C00K C012 1.501(4) . ?
C00M C00W 1.414(5) . ?
C00M C00S 1.416(5) . ?
C00M C013 1.421(4) . ?
C00N C00Z 1.371(4) . ?
C00N C00Y 1.411(4) . ?
C00N H00N 0.9300 . ?
C00O C00T 1.501(4) . ?
C00P C00Z 1.505(4) . ?
C00Q C00V 1.506(4) . ?
C00S C01F 1.367(5) . ?
C00S H00S 0.9300 . ?
C00T C00X 1.378(4) . ?
C00T C011 1.418(4) . ?
C00U C00X 1.407(4) . ?
C00U C01J 1.420(5) . ?
C00U C00Y 1.429(4) . ?
C00V C01C 1.373(5) . ?
C00V C01F 1.421(5) . ?
C00W C01C 1.414(4) . ?
C00W C01B 1.419(5) . ?
C00X H00X 0.9300 . ?
C00Y C019 1.415(4) . ?
C00Z C01H 1.414(5) . ?
C010 C016 1.359(5) . ?
C010 C01E 1.423(5) . ?
C010 H010 0.9300 . ?
C011 C019 1.374(4) . ?
C011 H011 0.9300 . ?
C012 C013 1.372(5) . ?
C012 C015 1.416(5) . ?
C013 H013 0.9300 . ?
C014 H014 0.9300 . ?
C015 C01B 1.359(5) . ?
C015 H015 0.9300 . ?
C016 C01D 1.426(5) . ?
C017 C01E 1.370(5) . ?
C017 C018 1.421(5) . ?
C018 C01D 1.441(5) . ?
C019 H019 0.9300 . ?
C01A H01A 0.9300 . ?
C01B H01B 0.9300 . ?
C01C H01C 0.9300 . ?
C01E H01E 0.9300 . ?
C01F H01F 0.9300 . ?
C01G H01G 0.9300 . ?
C01H C01J 1.375(5) . ?
C01H H01H 0.9300 . ?
C01I H01I 0.9300 . ?
C01J H01J 0.9300 . ?
C01L H01L 0.9300 . ?
O01M C01Q 1.208(7) . ?
N2 C01Q 1.357(7) . ?
N2 C01R 1.434(7) . ?
N2 C01P 1.445(7) . ?
C01N H01D 0.9600 . ?
C01N H01K 0.9600 . ?
C01N H01M 0.9600 . ?
C01O H01N 0.9600 . ?
C01O H01O 0.9600 . ?
C01O H01P 0.9600 . ?
C01P H01Q 0.9600 . ?
C01P H01R 0.9600 . ?
C01P H01S 0.9600 . ?
C01Q H01T 0.9300 . ?
C01R H01U 0.9600 . ?
C01R H01V 0.9600 . ?
C01R H01W 0.9600 . ?
 
loop_
 _geom_angle_atom_site_label_1
 _geom_angle_atom_site_label_2
 _geom_angle_atom_site_label_3
 _geom_angle
 _geom_angle_site_symmetry_1
 _geom_angle_site_symmetry_3
 _geom_angle_publ_flag
O009 Co01 O006 92.13(10) . 1_554 ?
O009 Co01 O004 170.85(10) . 1_545 ?
O006 Co01 O004 88.78(10) 1_554 1_545 ?
O009 Co01 O00C 88.70(10) . . ?
O006 Co01 O00C 163.58(10) 1_554 . ?
O004 Co01 O00C 87.87(10) 1_545 . ?
O009 Co01 N00D 96.54(10) . . ?
O006 Co01 N00D 92.70(10) 1_554 . ?
O004 Co01 N00D 92.51(10) 1_545 . ?
O00C Co01 N00D 103.49(11) . . ?
O009 Co01 Co02 86.48(7) . . ?
O006 Co01 Co02 83.53(7) 1_554 . ?
O004 Co01 Co02 84.57(7) 1_545 . ?
O00C Co01 Co02 80.16(8) . . ?
N00D Co01 Co02 175.27(8) . . ?
O00B Co02 O005 101.97(10) . . ?
O00B Co02 O008 102.39(10) . . ?
O005 Co02 O008 89.70(10) . . ?
O00B Co02 O00A 99.88(10) . 1_545 ?
O005 Co02 O00A 90.41(10) . 1_545 ?
O008 Co02 O00A 157.21(10) . 1_545 ?
O00B Co02 O007 92.43(10) . 1_554 ?
O005 Co02 O007 165.59(10) . 1_554 ?
O008 Co02 O007 87.09(9) . 1_554 ?
O00A Co02 O007 87.17(9) 1_545 1_554 ?
O00B Co02 Co01 173.69(7) . . ?
O005 Co02 Co01 84.33(8) . . ?
O008 Co02 Co01 77.67(7) . . ?
O00A Co02 Co01 79.66(7) 1_545 . ?
O007 Co02 Co01 81.26(7) 1_554 . ?
N00H S003 N00J 100.78(17) . . ?
C00Q O004 Co01 121.8(2) . 1_565 ?
C00P O005 Co02 123.0(2) . . ?
C00O O006 Co01 124.6(2) . 1_556 ?
C00O O007 Co02 124.7(2) . 1_556 ?
C00K O008 Co02 129.5(2) . . ?
C00K O009 Co01 119.8(2) . . ?
C01I N1 C01L 102.0(3) . . ?
C00Q O00A Co02 128.1(2) . 1_565 ?
C01A O00B Co02 126.0(2) . . ?
C00P O00C Co01 126.5(2) . . ?
C014 N00D C01G 103.6(3) . . ?
C014 N00D Co01 125.1(2) . . ?
C01G N00D Co01 130.5(2) . . ?
C014 N00E N4 109.8(3) . . ?
C014 N00E C016 130.0(3) . . ?
N4 N00E C016 120.3(3) . . ?
C01A N00F C01O 120.8(3) . . ?
C01A N00F C01N 120.7(3) . . ?
C01O N00F C01N 118.3(3) . . ?
C01I N00G N3 110.7(3) . . ?
C01I N00G C017 130.8(3) . . ?
N3 N00G C017 118.6(3) . . ?
C018 N00H S003 106.5(2) . . ?
C01D N00J S003 106.5(2) . . ?
C01L N3 N00G 101.2(3) . . ?
C01G N4 N00E 102.6(3) . . ?
O008 C00K O009 125.4(3) . . ?
O008 C00K C012 118.0(3) . . ?
O009 C00K C012 116.6(3) . . ?
C00W C00M C00S 118.8(3) . . ?
C00W C00M C013 118.9(3) . . ?
C00S C00M C013 122.3(3) . . ?
C00Z C00N C00Y 121.1(3) . . ?
C00Z C00N H00N 119.4 . . ?
C00Y C00N H00N 119.4 . . ?
O007 C00O O006 125.9(3) . . ?
O007 C00O C00T 117.3(3) . . ?
O006 C00O C00T 116.8(3) . . ?
O005 C00P O00C 125.8(3) . . ?
O005 C00P C00Z 117.3(3) . . ?
O00C C00P C00Z 116.9(3) . . ?
O004 C00Q O00A 125.8(3) . . ?
O004 C00Q C00V 117.5(3) . . ?
O00A C00Q C00V 116.6(3) . . ?
C01F C00S C00M 121.0(3) . . ?
C01F C00S H00S 119.5 . . ?
C00M C00S H00S 119.5 . . ?
C00X C00T C011 119.6(3) . . ?
C00X C00T C00O 120.3(3) . . ?
C011 C00T C00O 120.1(3) . . ?
C00X C00U C01J 122.1(3) . . ?
C00X C00U C00Y 119.2(3) . . ?
C01J C00U C00Y 118.6(3) . . ?
C01C C00V C01F 119.6(3) . . ?
C01C C00V C00Q 119.4(3) . . ?
C01F C00V C00Q 121.0(3) . . ?
C01C C00W C00M 119.2(3) . . ?
C01C C00W C01B 121.6(3) . . ?
C00M C00W C01B 119.2(3) . . ?
C00T C00X C00U 121.1(3) . . ?
C00T C00X H00X 119.5 . . ?
C00U C00X H00X 119.5 . . ?
C00N C00Y C019 122.1(3) . . ?
C00N C00Y C00U 119.2(3) . . ?
C019 C00Y C00U 118.7(3) . . ?
C00N C00Z C01H 119.9(3) . . ?
C00N C00Z C00P 119.8(3) . . ?
C01H C00Z C00P 120.2(3) . . ?
C016 C010 C01E 122.6(3) . . ?
C016 C010 H010 118.7 . . ?
C01E C010 H010 118.7 . . ?
C019 C011 C00T 120.5(3) . . ?
C019 C011 H011 119.7 . . ?
C00T C011 H011 119.7 . . ?
C013 C012 C015 120.3(3) . . ?
C013 C012 C00K 120.7(3) . . ?
C015 C012 C00K 119.0(3) . . ?
C012 C013 C00M 120.4(3) . . ?
C012 C013 H013 119.8 . . ?
C00M C013 H013 119.8 . . ?
N00D C014 N00E 109.5(3) . . ?
N00D C014 H014 125.2 . . ?
N00E C014 H014 125.2 . . ?
C01B C015 C012 120.3(3) . . ?
C01B C015 H015 119.8 . . ?
C012 C015 H015 119.8 . . ?
C010 C016 N00E 120.2(3) . . ?
C010 C016 C01D 118.2(3) . . ?
N00E C016 C01D 121.7(3) . . ?
C01E C017 C018 118.8(3) . . ?
C01E C017 N00G 120.2(3) . . ?
C018 C017 N00G 121.0(3) . . ?
N00H C018 C017 126.9(3) . . ?
N00H C018 C01D 113.2(3) . . ?
C017 C018 C01D 119.8(3) . . ?
C011 C019 C00Y 120.7(3) . . ?
C011 C019 H019 119.6 . . ?
C00Y C019 H019 119.6 . . ?
O00B C01A N00F 123.0(3) . . ?
O00B C01A H01A 118.5 . . ?
N00F C01A H01A 118.5 . . ?
C015 C01B C00W 120.7(3) . . ?
C015 C01B H01B 119.6 . . ?
C00W C01B H01B 119.6 . . ?
C00V C01C C00W 121.0(3) . . ?
C00V C01C H01C 119.5 . . ?
C00W C01C H01C 119.5 . . ?
N00J C01D C016 127.3(3) . . ?
N00J C01D C018 112.9(3) . . ?
C016 C01D C018 119.7(3) . . ?
C017 C01E C010 120.8(3) . . ?
C017 C01E H01E 119.6 . . ?
C010 C01E H01E 119.6 . . ?
C00S C01F C00V 120.1(3) . . ?
C00S C01F H01F 119.9 . . ?
C00V C01F H01F 119.9 . . ?
N4 C01G N00D 114.5(3) . . ?
N4 C01G H01G 122.8 . . ?
N00D C01G H01G 122.8 . . ?
C01J C01H C00Z 120.6(3) . . ?
C01J C01H H01H 119.7 . . ?
C00Z C01H H01H 119.7 . . ?
N1 C01I N00G 109.9(4) . . ?
N1 C01I H01I 125.0 . . ?
N00G C01I H01I 125.0 . . ?
C01H C01J C00U 120.6(3) . . ?
C01H C01J H01J 119.7 . . ?
C00U C01J H01J 119.7 . . ?
N3 C01L N1 116.2(4) . . ?
N3 C01L H01L 121.9 . . ?
N1 C01L H01L 121.9 . . ?
C01Q N2 C01R 117.4(5) . . ?
C01Q N2 C01P 123.7(5) . . ?
C01R N2 C01P 118.7(5) . . ?
N00F C01N H01D 109.5 . . ?
N00F C01N H01K 109.5 . . ?
H01D C01N H01K 109.5 . . ?
N00F C01N H01M 109.5 . . ?
H01D C01N H01M 109.5 . . ?
H01K C01N H01M 109.5 . . ?
N00F C01O H01N 109.5 . . ?
N00F C01O H01O 109.5 . . ?
H01N C01O H01O 109.5 . . ?
N00F C01O H01P 109.5 . . ?
H01N C01O H01P 109.5 . . ?
H01O C01O H01P 109.5 . . ?
N2 C01P H01Q 109.5 . . ?
N2 C01P H01R 109.5 . . ?
H01Q C01P H01R 109.5 . . ?
N2 C01P H01S 109.5 . . ?
H01Q C01P H01S 109.5 . . ?
H01R C01P H01S 109.5 . . ?
O01M C01Q N2 124.7(6) . . ?
O01M C01Q H01T 117.7 . . ?
N2 C01Q H01T 117.7 . . ?
N2 C01R H01U 109.5 . . ?
N2 C01R H01V 109.5 . . ?
H01U C01R H01V 109.5 . . ?
N2 C01R H01W 109.5 . . ?
H01U C01R H01W 109.5 . . ?
H01V C01R H01W 109.5 . . ?
 
_refine_diff_density_max    1.067
_refine_diff_density_min   -1.343
_refine_diff_density_rms    0.108

_shelx_res_file
;
TITL pvv468ab_a.res in P-1
    pvv468ab_a.res
    created by SHELXL-2018/3 at 12:48:29 on 29-Mar-2023
REM Old TITL pvv468ab in P-1
REM SHELXT solution in P-1: R1 0.107, Rweak 0.005, Alpha 0.049
REM <I/s>   0.000 for    0 systematic absences,  Orientation as input
REM Formula found by SHELXT:  C44 N6 O10 S Co2
CELL 0.75270  12.3760  13.0800  13.184   82.595   67.525   86.034
ZERR   18.000   0.0041   0.0026   0.0031    0.0031    0.011    0.0053
LATT  1
SFAC C H N O S CO

DISP $C  0.00402  0.00193 12.76530!source kissel
DISP $H -0.00002  0.00000  0.66630!source kissel
DISP $N  0.00768  0.00389 22.25521!source kissel
DISP $O  0.01307  0.00707 37.19182!source kissel
DISP $S  0.13867  0.14097 619.53511!source kissel
DISP $Co  0.35110  1.08684 4674.31362!source kissel

UNIT 80 64 20 20 2 4
ACTA
L.S. 10
BOND $H
OMIT 0
LIST 4
FMAP 2
PLAN 20
WGHT    0.087000    2.353400
FVAR       0.53432
CO01  6    0.335488    0.337820    0.218044    11.00000    0.02531    0.01520 =
         0.02212   -0.00532   -0.01169    0.00256
CO02  6    0.092955    0.357351    0.325096    11.00000    0.02474    0.01533 =
         0.02176   -0.00458   -0.01176    0.00107
S003  5    0.654493   -0.097824   -0.003614    11.00000    0.03724    0.02512 =
         0.04355   -0.00980   -0.00488   -0.00228
O004  4    0.305793    1.183437    0.244766    11.00000    0.03627    0.01789 =
         0.03878   -0.00578   -0.01630   -0.00031
O005  4    0.128554    0.349987    0.463328    11.00000    0.03912    0.02901 =
         0.02763   -0.00627   -0.02006    0.00322
O006  4    0.297169    0.344557    1.080439    11.00000    0.02714    0.03871 =
         0.02516   -0.00712   -0.01387    0.00327
O007  4    0.101775    0.361683    1.163190    11.00000    0.02964    0.02333 =
         0.02105   -0.00593   -0.01105    0.00147
O008  4    0.142677    0.506104    0.286630    11.00000    0.03611    0.01953 =
         0.03328   -0.00544   -0.01584   -0.00289
O009  4    0.338211    0.491819    0.208593    11.00000    0.03405    0.01741 =
         0.03711   -0.00718   -0.01550    0.00493
N1    3    1.154572   -0.177164   -0.224493    11.00000    0.03896    0.03843 =
         0.05260   -0.02108   -0.02217    0.01172
O00A  4    0.111433    1.201887    0.327235    11.00000    0.03890    0.01694 =
         0.03277   -0.00510   -0.01752    0.00281
O00B  4   -0.081975    0.371283    0.385514    11.00000    0.02692    0.02774 =
         0.03045   -0.00608   -0.01205    0.00085
O00C  4    0.323097    0.330160    0.378406    11.00000    0.03956    0.03192 =
         0.02258   -0.00413   -0.01300   -0.00046
N00D  3    0.512122    0.315861    0.130499    11.00000    0.02850    0.02140 =
         0.02815   -0.00664   -0.01382    0.00315
N00E  3    0.675489    0.240245    0.035429    11.00000    0.03075    0.02025 =
         0.02965   -0.00692   -0.01068    0.00235
N00F  3   -0.261385    0.383311    0.376484    11.00000    0.02749    0.02867 =
         0.03494   -0.00461   -0.01303    0.00074
N00G  3    1.045458   -0.045624   -0.155739    11.00000    0.03646    0.02817 =
         0.03561   -0.00684   -0.01946    0.00108
N00H  3    0.795557   -0.103491   -0.058584    11.00000    0.03574    0.02620 =
         0.03561   -0.00690   -0.00880    0.00123
N00J  3    0.632666    0.021844    0.020750    11.00000    0.03489    0.02682 =
         0.03923   -0.00842   -0.00681   -0.00135
N3    3    1.155440   -0.016486   -0.177522    11.00000    0.03482    0.03517 =
         0.04492   -0.00996   -0.01824    0.00617
N4    3    0.697275    0.343762    0.012237    11.00000    0.03435    0.02052 =
         0.03723   -0.00516   -0.00975    0.00218
C00K  1    0.243773    0.542549    0.249523    11.00000    0.03384    0.01629 =
         0.02368   -0.00378   -0.01464    0.00108
C00M  1    0.168884    0.819827    0.315310    11.00000    0.02862    0.01684 =
         0.02903   -0.00437   -0.01146    0.00002
C00N  1    0.151881    0.371187    0.660578    11.00000    0.02904    0.02040 =
         0.02589   -0.00319   -0.01517   -0.00028
AFIX  43
H00N  2    0.081397    0.391381    0.653356    11.00000   -1.20000
AFIX   0
C00O  1    0.195274    0.356087    1.079623    11.00000    0.02892    0.01991 =
         0.02314   -0.00523   -0.01316    0.00141
C00P  1    0.230602    0.340947    0.462436    11.00000    0.03666    0.02092 =
         0.02267   -0.00397   -0.01605    0.00051
C00Q  1    0.205131    1.148700    0.291839    11.00000    0.03734    0.01733 =
         0.02680   -0.00563   -0.01612    0.00158
C00S  1    0.071113    0.883439    0.367988    11.00000    0.03079    0.01920 =
         0.03193   -0.00370   -0.00747   -0.00210
AFIX  43
H00S  2   -0.001365    0.853847    0.407598    11.00000   -1.20000
AFIX   0
C00T  1    0.184950    0.362895    0.969139    11.00000    0.02922    0.02105 =
         0.02321   -0.00437   -0.01374    0.00147
C00U  1    0.270557    0.341035    0.774066    11.00000    0.02580    0.02941 =
         0.02347   -0.00489   -0.01119   -0.00020
C00V  1    0.192673    1.033543    0.304902    11.00000    0.03520    0.01693 =
         0.03176   -0.00470   -0.01614   -0.00096
C00W  1    0.279892    0.864935    0.261227    11.00000    0.03105    0.01887 =
         0.03470   -0.00658   -0.01416   -0.00027
C00X  1    0.280033    0.339737    0.877231    11.00000    0.02511    0.02991 =
         0.02526   -0.00478   -0.01246    0.00036
AFIX  43
H00X  2    0.351643    0.322976    0.883513    11.00000   -1.20000
AFIX   0
C00Y  1    0.161585    0.370796    0.763866    11.00000    0.02577    0.02106 =
         0.02454   -0.00517   -0.01231    0.00263
C00Z  1    0.244596    0.342304    0.570741    11.00000    0.03232    0.02649 =
         0.02341   -0.00434   -0.01466    0.00045
C010  1    0.878294    0.195693   -0.057399    11.00000    0.03330    0.02423 =
         0.03755   -0.00916   -0.01379    0.00325
AFIX  43
H010  2    0.895833    0.263462   -0.056390    11.00000   -1.20000
AFIX   0
C011  1    0.076542    0.391490    0.959085    11.00000    0.02759    0.02077 =
         0.02624   -0.00645   -0.01119    0.00291
AFIX  43
H011  2    0.011775    0.405593    1.021279    11.00000   -1.20000
AFIX   0
C012  1    0.254654    0.654899    0.255858    11.00000    0.02972    0.01939 =
         0.02628   -0.00457   -0.01357   -0.00030
C013  1    0.158756    0.712702    0.312677    11.00000    0.03225    0.02015 =
         0.02853   -0.00496   -0.01423   -0.00021
AFIX  43
H013  2    0.086715    0.681598    0.349677    11.00000   -1.20000
AFIX   0
C014  1    0.564765    0.225484    0.106091    11.00000    0.02766    0.02448 =
         0.02914   -0.00564   -0.01152    0.00313
AFIX  43
H014  2    0.530202    0.161641    0.133735    11.00000   -1.20000
AFIX   0
C015  1    0.366099    0.700027    0.204925    11.00000    0.03066    0.02064 =
         0.03958   -0.00621   -0.01376    0.00409
AFIX  43
H015  2    0.431174    0.659865    0.168675    11.00000   -1.20000
AFIX   0
C016  1    0.764499    0.167664   -0.012918    11.00000    0.02961    0.02610 =
         0.03111   -0.00563   -0.01226    0.00437
C017  1    0.950182    0.024779   -0.108537    11.00000    0.03482    0.02977 =
         0.02998   -0.00797   -0.01511    0.00567
C018  1    0.832605   -0.008590   -0.062535    11.00000    0.03741    0.02197 =
         0.03076   -0.00563   -0.01339    0.00165
C019  1    0.066457    0.398518    0.858208    11.00000    0.02503    0.02502 =
         0.02780   -0.00636   -0.01328    0.00204
AFIX  43
H019  2   -0.003655    0.421749    0.851844    11.00000   -1.20000
AFIX   0
C01A  1   -0.145809    0.373775    0.331392    11.00000    0.02994    0.02245 =
         0.03154   -0.00579   -0.01416    0.00000
AFIX  43
H01A  2   -0.110755    0.368715    0.255953    11.00000   -1.20000
AFIX   0
C01B  1    0.378490    0.801698    0.208720    11.00000    0.02761    0.02126 =
         0.04694   -0.00296   -0.01287   -0.00370
AFIX  43
H01B  2    0.452390    0.830173    0.176559    11.00000   -1.20000
AFIX   0
C01C  1    0.289729    0.972318    0.259228    11.00000    0.03170    0.01782 =
         0.03770   -0.00549   -0.01363   -0.00061
AFIX  43
H01C  2    0.363021    1.001896    0.226493    11.00000   -1.20000
AFIX   0
C01D  1    0.738605    0.063914   -0.016500    11.00000    0.03177    0.02436 =
         0.02586   -0.00628   -0.00856    0.00306
C01E  1    0.971712    0.125437   -0.105477    11.00000    0.02970    0.02950 =
         0.03769   -0.00914   -0.01384    0.00298
AFIX  43
H01E  2    1.048288    0.148140   -0.135171    11.00000   -1.20000
AFIX   0
C01F  1    0.081641    0.987693    0.361507    11.00000    0.03313    0.02107 =
         0.02846   -0.00702   -0.00868    0.00374
AFIX  43
H01F  2    0.015996    1.028680    0.394214    11.00000   -1.20000
AFIX   0
C01G  1    0.596484    0.385143    0.070609    11.00000    0.02996    0.02282 =
         0.03505   -0.00839   -0.01251    0.00260
AFIX  43
H01G  2    0.583748    0.456026    0.071013    11.00000   -1.20000
AFIX   0
C01H  1    0.353012    0.313881    0.580117    11.00000    0.03152    0.04718 =
         0.02234   -0.00737   -0.01067    0.00628
AFIX  43
H01H  2    0.416226    0.295724    0.518612    11.00000   -1.20000
AFIX   0
C01I  1    1.046036   -0.140843   -0.183449    11.00000    0.03543    0.03319 =
         0.04828   -0.01734   -0.02105    0.00773
AFIX  43
H01I  2    0.979855   -0.176068   -0.175021    11.00000   -1.20000
AFIX   0
C01J  1    0.365794    0.312851    0.679349    11.00000    0.02566    0.04938 =
         0.02537   -0.00881   -0.01051    0.00443
AFIX  43
H01J  2    0.437419    0.293533    0.684506    11.00000   -1.20000
AFIX   0
C01L  1    1.216513   -0.098471   -0.217987    11.00000    0.03505    0.04290 =
         0.04239   -0.01253   -0.01871    0.00825
AFIX  43
H01L  2    1.297543   -0.102178   -0.240809    11.00000   -1.20000
AFIX   0
O01M  4    1.474951   -0.037171   -0.310851    11.00000    0.05311    0.13455 =
         0.07293    0.00032   -0.02745   -0.00170
N2    3    1.638422   -0.011197   -0.466722    11.00000    0.06252    0.05585 =
         0.05243    0.00158   -0.02991   -0.00433
C01N  1   -0.332054    0.381757    0.310181    11.00000    0.03403    0.04158 =
         0.04923   -0.01102   -0.02155    0.00425
AFIX 137
H01D  2   -0.281724    0.379822    0.234091    11.00000   -1.50000
H01K  2   -0.381223    0.442636    0.317465    11.00000   -1.50000
H01M  2   -0.379799    0.321790    0.335282    11.00000   -1.50000
AFIX   0
C01O  1   -0.320823    0.389885    0.494006    11.00000    0.03276    0.04932 =
         0.03688   -0.00652   -0.00846    0.00253
AFIX 137
H01N  2   -0.265340    0.405348    0.524299    11.00000   -1.50000
H01O  2   -0.356449    0.325222    0.529707    11.00000   -1.50000
H01P  2   -0.380024    0.443437    0.505805    11.00000   -1.50000
AFIX   0
C01P  1    1.632490    0.100159   -0.480542    11.00000    0.09464    0.05888 =
         0.05542   -0.01578   -0.03822    0.01624
AFIX 137
H01Q  2    1.630584    0.123721   -0.551891    11.00000   -1.50000
H01R  2    1.699952    0.126895   -0.474717    11.00000   -1.50000
H01S  2    1.562992    0.123858   -0.424203    11.00000   -1.50000
AFIX   0
C01Q  1    1.558599   -0.070366   -0.383243    11.00000    0.05078    0.07912 =
         0.06708   -0.01113   -0.02522    0.00135
AFIX  43
H01T  2    1.569009   -0.141573   -0.381622    11.00000   -1.20000
AFIX   0
C01R  1    1.739156   -0.062696   -0.538890    11.00000    0.11446    0.04247 =
         0.06292   -0.00498   -0.02762    0.00920
AFIX 137
H01U  2    1.735812   -0.058421   -0.610876    11.00000   -1.50000
H01V  2    1.740401   -0.133788   -0.509947    11.00000   -1.50000
H01W  2    1.808709   -0.030362   -0.544172    11.00000   -1.50000
AFIX   0
HKLF 4




REM  pvv468ab_a.res in P-1
REM wR2 = 0.1651, GooF = S = 1.019, Restrained GooF = 1.019 for all data
REM R1 = 0.0598 for 7706 Fo > 4sig(Fo) and 0.0874 for all 10740 data
REM 572 parameters refined using 0 restraints

END

WGHT      0.0932      1.0840

REM Highest difference peak  1.067,  deepest hole -1.343,  1-sigma level  0.108
Q1    1   0.6734 -0.1020  0.0582  11.00000  0.05    1.07
Q2    1   1.5774  0.1603 -0.4422  11.00000  0.05    0.73
Q3    1   1.5252  0.0176 -0.3733  11.00000  0.05    0.69
Q4    1   1.5174 -0.1377 -0.3638  11.00000  0.05    0.67
Q5    1   0.2941  0.2749  0.1711  11.00000  0.05    0.55
Q6    1  -0.4853  0.4949  0.2668  11.00000  0.05    0.54
Q7    1   0.1337  0.4149  0.3656  11.00000  0.05    0.50
Q8    1   0.4048  0.3643  0.1937  11.00000  0.05    0.49
Q9    1   0.1208  0.4387  0.2542  11.00000  0.05    0.47
Q10   1   0.0092  0.3994  0.3956  11.00000  0.05    0.46
Q11   1   0.3781  0.8102  0.1419  11.00000  0.05    0.46
Q12   1   0.1147  0.2838  0.3804  11.00000  0.05    0.46
Q13   1   0.3785  0.3808  0.2783  11.00000  0.05    0.45
Q14   1   0.3010  1.2561  0.2804  11.00000  0.05    0.44
Q15   1   0.2538  0.3599  1.1750  11.00000  0.05    0.43
Q16   1  -0.4373  0.4591  0.6159  11.00000  0.05    0.42
Q17   1   0.0561  0.2980  0.2765  11.00000  0.05    0.42
Q18   1   1.0766 -0.1425 -0.2720  11.00000  0.05    0.42
Q19   1   0.2859  0.2790  0.3119  11.00000  0.05    0.41
Q20   1   0.3613  0.4252  0.1552  11.00000  0.05    0.40
;
_shelx_res_checksum   15916

_shelx_hkl_file
;
   0   0  -1  591.55   25.95
   0   0   1  584.33   25.58
   0   0  -1  592.45   29.83
   0   0   1  584.33   29.46
   0   0  -2 2184.80   94.26
   0   0   2 2064.78   89.16
   0   0  -2 2141.03  106.62
   0   0   2 1956.03   97.42
   0   0  -3 2097.26   91.19
   0   0   3 2029.13   88.44
   0   0  -3 2056.20  103.06
   0   0   3 2016.50  101.12
   0   0  -4 1132.56   50.63
   0   0   4 1177.23   52.79
   0   0  -4 1173.17   60.19
   0   0   4 1176.33   60.37
   0   0  -5   41.69    7.49
   0   0   5   39.17    7.45
   0   0  -5   31.72    8.66
   0   0   5   41.02    8.71
   0   0  -6  756.69   35.47
   0   0   6  676.38   31.59
   0   0  -6  706.16   37.72
   0   0   6  701.64   37.99
   0   0  -7  600.12   29.33
   0   0   7  590.64   28.74
   0   0  -7  667.80   36.28
   0   0   7  665.55   36.73
   0   0  -8   17.37    7.94
   0   0   8   27.07    8.17
   0   0  -8   25.81    8.62
   0   0   8   35.29    8.93
   0   0  -9 1116.77   50.90
   0   0   9 1095.11   50.31
   0   0  -9 1173.62   61.32
   0   0   9 1206.11   63.17
   0   0 -10   66.78    8.57
   0   0  10   54.15    9.70
   0   0 -10   49.72   10.24
   0   0  10   48.10   10.42
   0   0 -11  312.38   17.91
   0   0  11  324.65   18.68
   0   0 -11  351.41   22.74
   0   0  11  309.81   20.94
   0   0 -12   -4.20    8.26
   0   0  12   -3.75    7.63
   0   0 -12  -13.00    9.48
   0   0  12   -7.85   10.29
   0   0 -13  274.93   17.06
   0   0  13  251.82   15.43
   0   0 -13  257.01   18.32
   0   0  13  254.89   18.95
   0   0 -14   -1.62    8.62
   0   0  14   17.06    7.67
   0   0 -14   10.65    9.52
   0   0  14   17.19   10.56
   0   0 -15   16.60    8.71
   0   0  15   21.34    7.90
   0   0 -15   30.23   10.02
   0   0  15   19.27   10.51
   0   0 -16   -3.88    9.11
   0   0  16   -1.90    7.72
   0   0 -16    5.32   10.06
   0   0  16   -6.81    9.84
   0  -1  16  103.69   11.33
   0   1 -16   91.42   11.19
   0  -1  16   86.95   12.41
   0   1 -16   88.80   11.69
   0  -1  15   -3.34    9.11
   0   1 -15    1.76    8.57
   0  -1  15   -2.39    9.79
   0   1 -15   10.96    9.48
   0  -1  14   50.63    9.07
   0   1 -14   44.94    9.75
   0  -1  14   55.68   10.92
   0   1 -14   55.50   11.01
   0  -1  13    4.42    7.40
   0   1 -13  -22.92    8.71
   0  -1  13   -0.81   10.78
   0   1 -13  -13.04    9.52
   0  -1  12  164.24   12.54
   0   1 -12  132.88   12.41
   0  -1  12  135.73   15.25
   0   1 -12  137.58   13.04
   0  -1  11  510.33   25.76
   0   1 -11  513.49   26.26
   0  -1  11  494.54   29.69
   0   1 -11  500.85   29.28
   0  -1  10   63.26    8.17
   0   1 -10   57.21    9.34
   0  -1  10   57.62   11.91
   0   1 -10   45.53   10.51
   0  -1   9  206.03   13.13
   0   1  -9  251.60   15.57
   0  -1   9  210.04   16.38
   0   1  -9  199.89   15.61
   0  -1   8  119.26   10.11
   0   1  -8  128.96   11.19
   0  -1   8  104.14   12.41
   0   1  -8  118.26   11.51
   0  -1   7  836.56   38.99
   0   1  -7  862.73   40.16
   0  -1   7  877.62   46.66
   0   1  -7  844.68   44.85
   0  -1   6  445.22   22.61
   0   1  -6  473.78   23.69
   0  -1   6  422.07   24.95
   0   1  -6  438.13   24.86
   0  -1   5    5.19    5.96
   0   1  -5    3.88    6.90
   0  -1   5    0.36    8.12
   0   1  -5    3.43    7.81
   0  -1   4  373.52   18.77
   0   1  -4  366.61   18.59
   0  -1   4  358.85   21.16
   0   1  -4  416.93   23.69
   0  -1   3   21.16    6.54
   0   1  -3   24.68    7.13
   0  -1   3   35.87    9.34
   0   1  -3   43.77    8.57
   0  -1   2 1208.36   52.88
   0   1  -2 1301.77   56.81
   0  -1   2 1222.80   61.77
   0   1  -2 1274.69   64.30
   0   1   0  160.14    7.04
   0  -1   0  178.91    9.57
   0   1   0  161.40    8.75
   0  -1  -1  648.85   28.34
   0   1   1  630.80   27.61
   0  -1  -2 1511.58   65.70
   0   1   2 1545.87   67.19
   0  -1  -2 1535.05   76.80
   0   1   2 1610.85   80.45
   0  -1  -3    6.99    6.77
   0   1   3    1.80    6.23
   0  -1  -3    8.39    7.90
   0   1   3    4.78    7.40
   0  -1  -4   11.73    7.31
   0   1   4   -0.99    6.90
   0  -1  -4    9.11    7.67
   0   1   4    8.48    7.81
   0  -1  -5  303.26   16.70
   0   1   5  292.57   16.15
   0  -1  -5  290.04   18.27
   0   1   5  273.53   17.28
   0  -1  -6  105.04    9.61
   0   1   6   98.64    9.66
   0  -1  -6  102.79   10.20
   0   1   6   84.83   10.15
   0  -1  -7   67.73    8.66
   0   1   7   48.78    7.76
   0  -1  -7   69.44    9.57
   0   1   7   60.78    9.30
   0  -1  -8 1119.92   51.17
   0   1   8 1170.01   52.93
   0  -1  -8 1099.17   57.30
   0   1   8 1111.35   58.03
   0  -1  -9   18.73    7.99
   0   1   9   27.34    7.54
   0  -1  -9   29.74    8.98
   0   1   9   33.57    9.57
   0  -1 -10   -5.01    7.67
   0   1  10    1.17    7.90
   0  -1 -10    1.04    8.75
   0   1  10   -2.80    9.02
   0  -1 -11  238.02   15.52
   0   1  11  221.55   14.80
   0  -1 -11  224.35   17.15
   0   1  11  261.12   19.13
   0  -1 -12  199.48   14.44
   0   1  12  194.07   13.22
   0  -1 -12  217.71   16.02
   0   1  12  210.54   17.06
   0  -1 -13   17.06    8.30
   0   1  13   15.79    7.22
   0  -1 -13   21.66    9.70
   0   1  13   17.64   10.60
   0  -1 -14   26.58    7.58
   0   1  14   28.83    8.08
   0  -1 -14   16.60    9.66
   0   1  14    2.03   10.33
   0  -1 -15    4.38    8.08
   0   1  15   13.49    8.48
   0  -1 -15    6.68    9.57
   0   1  15   13.54   10.42
   0  -1 -16   -8.80    8.71
   0   1  16   20.76    8.21
   0  -1 -16   -1.49    9.97
   0   1  16   -0.14   11.69
   0  -2  16   60.51    9.75
   0   2 -16   45.71    9.66
   0  -2  16   45.48   10.51
   0   2 -16   31.18   10.02
   0  -2  15    0.99    8.08
   0   2 -15   -0.59    8.35
   0  -2  15   -4.38   10.60
   0   2 -15   19.13   10.06
   0  -2  14    2.57    7.67
   0   2 -14    7.63    8.66
   0  -2  14   -4.11   10.47
   0   2 -14   11.51   10.02
   0  -2  13    9.25    7.90
   0   2 -13    6.05    8.66
   0  -2  13    3.93   12.05
   0   2 -13    4.24    9.25
   0  -2  12  105.09   10.60
   0   2 -12  104.59   11.46
   0  -2  12  109.83   13.85
   0   2 -12  139.11   13.49
   0  -2  11   50.13    9.79
   0   2 -11   47.78    9.25
   0  -2  11   50.63   12.00
   0   2 -11   63.31   11.51
   0  -2  10   -7.81    7.35
   0   2 -10   20.76    8.35
   0  -2  10   10.83   10.56
   0   2 -10   -0.14    9.30
   0  -2   9  134.51   11.46
   0   2  -9   95.39   10.02
   0  -2   9  127.24   13.36
   0   2  -9  109.74   11.60
   0  -2   8 1232.28   55.86
   0   2  -8 1303.57   58.79
   0  -2   8 1253.48   65.29
   0   2  -8 1199.79   62.18
   0  -2   7    8.17    6.77
   0   2  -7    6.32    6.50
   0  -2   7    6.32    8.39
   0   2  -7   16.70    8.03
   0  -2   6    4.51    5.82
   0   2  -6    4.92    6.18
   0  -2   6    3.70    8.08
   0   2  -6    3.65    7.94
   0  -2   5  113.66    9.07
   0   2  -5  122.10    9.70
   0  -2   5  109.10   10.78
   0   2  -5  119.44   10.83
   0  -2   4    2.53    5.78
   0   2  -4    6.77    6.05
   0  -2   4   20.03    8.21
   0   2  -4    9.66    7.81
   0  -2   3  925.90   41.47
   0   2  -3  944.40   42.32
   0  -2   3  948.01   49.36
   0   2  -3  955.68   49.68
   0  -2   2 1635.67   70.89
   0   2  -2 1549.48   67.28
   0  -2   2 1605.44   80.95
   0   2  -2 1591.90   80.27
   0  -2   1  854.16   37.09
   0   2  -1  863.63   37.45
   0  -2   1  840.62   43.00
   0   2  -1  864.53   44.22
   0   2   0   88.03    4.29
   0  -2   0   88.17    7.35
   0   2   0   92.50    7.63
   0  -2  -1  685.85   30.01
   0   2   1  685.85   29.96
   0  -2  -2   83.61    7.13
   0   2   2   71.83    7.04
   0  -2  -3  963.35   43.27
   0   2   3  949.36   42.69
   0  -2  -3  918.68   47.29
   0  -2  -4  383.31   19.36
   0   2   4  389.49   19.81
   0  -2  -4  429.51   24.10
   0   2   4  377.71   21.66
   0  -2  -5  275.74   15.79
   0   2   5  257.28   15.25
   0  -2  -5  268.43   16.70
   0   2   5  249.39   16.24
   0  -2  -6  159.33   11.69
   0   2   6  176.07   12.09
   0  -2  -6  146.10   11.60
   0   2   6  173.31   13.67
   0  -2  -7  601.47   29.37
   0   2   7  605.08   29.69
   0  -2  -7  611.85   33.57
   0   2   7  641.63   34.97
   0  -2  -8  556.80   27.61
   0   2   8  588.39   28.79
   0  -2  -8  500.85   28.65
   0   2   8  527.93   29.96
   0  -2  -9  661.03   31.95
   0   2   9  643.89   31.22
   0  -2  -9  668.25   36.82
   0   2   9  591.10   33.53
   0  -2 -10    7.04    7.81
   0   2  10   12.36    7.49
   0  -2 -10    6.05    8.48
   0   2  10    5.46    9.30
   0  -2 -11  564.93   28.88
   0   2  11  546.43   27.89
   0  -2 -11  638.47   35.74
   0   2  11  561.32   32.76
   0  -2 -12  117.45   11.05
   0   2  12   97.69   10.87
   0  -2 -12   90.97   11.91
   0   2  12   98.00   13.00
   0  -2 -13   12.45    8.03
   0   2  13   27.21    9.02
   0  -2 -13    1.49    8.75
   0   2  13   24.50   10.20
   0  -2 -14   33.03    9.48
   0   2  14   25.54    7.94
   0  -2 -14   33.71   10.29
   0   2  14   30.59   10.56
   0  -2 -15    2.03    8.93
   0   2  15    3.75    7.04
   0  -2 -15   -3.34    9.30
   0   2  15   -0.59   10.51
   0  -2 -16  196.01   14.57
   0   2  16  158.60   12.45
   0  -2 -16  179.68   15.61
   0  -3  16   -5.60    8.03
   0   3 -16    4.83    9.48
   0  -3  16   -0.41   10.06
   0   3 -16   -3.56    9.30
   0  -3  15  -12.14    7.58
   0   3 -15   -0.05    7.26
   0  -3  15    6.00   10.42
   0   3 -15    6.32    9.79
   0  -3  14   -9.02    7.85
   0   3 -14    9.02    7.81
   0  -3  14   15.70   11.05
   0   3 -14    5.87   10.24
   0  -3  13   81.90   10.47
   0   3 -13  115.87   11.05
   0  -3  13   90.47   12.45
   0   3 -13  117.81   12.27
   0  -3  12   95.88   10.51
   0   3 -12   94.53   10.38
   0  -3  12  145.70   15.21
   0   3 -12  108.52   12.95
   0  -3  11  271.68   16.24
   0   3 -11  248.76   15.79
   0  -3  11  238.42   18.64
   0   3 -11  261.53   18.55
   0  -3  10   26.98    8.17
   0   3 -10   26.94    8.39
   0  -3  10   22.79   11.15
   0   3 -10   20.94    9.93
   0  -3   9   -1.58    6.23
   0   3  -9   -3.88    7.26
   0  -3   9    0.36    9.43
   0   3  -9   -6.00    8.62
   0  -3   8  166.27   11.60
   0   3  -8  160.50   11.91
   0  -3   8  193.66   15.57
   0   3  -8  172.59   14.39
   0  -3   7    0.90    6.68
   0   3  -7    6.68    6.45
   0  -3   7    0.36    8.30
   0   3  -7   15.21    8.53
   0  -3   6  426.58   21.39
   0   3  -6  433.67   21.79
   0  -3   6  458.44   26.44
   0   3  -6  484.16   28.02
   0  -3   5  111.00    8.71
   0   3  -5  125.48    9.34
   0  -3   5  130.72   12.09
   0   3  -5  113.21   10.65
   0  -3   4  177.10   10.38
   0   3  -4  143.26    9.66
   0  -3   4  185.59   13.76
   0   3  -4  182.29   13.72
   0  -3   3   23.19    5.73
   0   3  -3   19.54    5.50
   0  -3   3   28.25    8.12
   0   3  -3    6.95    7.08
   0  -3   2  200.66   10.56
   0   3  -2  195.56   10.47
   0  -3   2  188.02   13.67
   0   3  -2  217.35   14.53
   0  -3   1   69.13    4.56
   0   3  -1   76.26    4.92
   0  -3   1   68.45    8.26
   0   3  -1   78.65    8.17
   0  -3  -1 1894.21   81.44
   0   3   1 1873.91   80.63
   0  -3  -2  533.79   24.68
   0   3   2  503.56   23.37
   0  -3  -3   61.28    7.04
   0   3   3   69.35    7.54
   0  -3  -4  885.74   40.11
   0   3   4  894.77   40.52
   0  -3  -4  900.63   46.61
   0  -3  -5  250.47   14.57
   0   3   5  230.71   14.08
   0  -3  -5  260.04   16.51
   0  -3  -6   84.56    8.93
   0   3   6   84.83    9.07
   0  -3  -6   82.35    9.43
   0  -3  -7 1532.34   68.36
   0   3   7 1609.04   71.43
   0  -3  -7 1521.51   77.56
   0   3   7 1466.46   75.17
   0  -3  -8   76.30    9.79
   0   3   8   51.21    7.81
   0  -3  -8   71.29    9.61
   0   3   8   74.36   10.51
   0  -3  -9 1996.64   88.26
   0   3   9 1986.71   87.63
   0  -3  -9 1937.53   98.37
   0   3   9 1694.78   86.63
   0  -3 -10   -3.07    8.03
   0   3  10    6.32    7.67
   0  -3 -10   12.90    9.34
   0   3  10   -1.17    8.84
   0  -3 -11  278.94   17.33
   0   3  11  289.05   17.51
   0  -3 -11  247.18   17.82
   0   3  11  304.98   21.34
   0  -3 -12  150.12   12.68
   0   3  12  132.70   11.87
   0  -3 -12  155.76   14.17
   0   3  12  156.39   14.26
   0  -3 -13  139.83   11.51
   0   3  13  141.19   11.64
   0  -3 -13  113.03   12.18
   0  -3 -14   30.91    9.61
   0   3  14   15.75    8.93
   0  -3 -14   40.02   10.24
   0  -3 -15    1.99    8.12
   0   3  15    1.80    8.08
   0  -3 -15    5.91    9.75
   0  -3 -16   71.20   10.06
   0   3  16   67.46   10.51
   0  -3 -16   63.94   12.41
   0  -4  15   12.00    7.99
   0   4 -15    2.71    8.39
   0  -4  15   -9.88   11.51
   0   4 -15   19.94   10.15
   0  -4  14    7.49    8.35
   0   4 -14   13.49    8.89
   0  -4  14   15.88   10.78
   0   4 -14    8.84    9.93
   0  -4  13  185.86   13.36
   0   4 -13  164.38   13.27
   0  -4  13  185.86   16.02
   0   4 -13  184.41   15.21
   0  -4  12  337.65   18.91
   0   4 -12  343.69   19.54
   0  -4  12  322.44   21.70
   0   4 -12  382.14   24.28
   0  -4  11  151.16   13.13
   0   4 -11  145.11   12.36
   0  -4  11  170.92   15.79
   0   4 -11  178.01   15.57
   0  -4  10    5.01    8.03
   0   4 -10    3.75    7.72
   0  -4  10   18.05   10.65
   0   4 -10   13.76    9.84
   0  -4   9  329.43   18.32
   0   4  -9  323.16   17.78
   0  -4   9  335.57   22.65
   0   4  -9  331.42   22.15
   0  -4   8   65.65    8.26
   0   4  -8   63.80    8.57
   0  -4   8   70.44   10.83
   0   4  -8   91.51   11.46
   0  -4   7  614.11   29.33
   0   4  -7  599.67   28.88
   0  -4   7  586.58   33.03
   0   4  -7  608.69   33.80
   0  -4   6    2.21    5.50
   0   4  -6   -2.35    5.82
   0  -4   6   -7.13    8.12
   0   4  -6    4.56    7.17
   0  -4   5  112.04    8.93
   0   4  -5  108.16    8.53
   0  -4   5  107.66   11.01
   0   4  -5  120.16   11.05
   0  -4   4    5.05    4.69
   0   4  -4    2.84    5.32
   0  -4   4   13.63    7.67
   0   4  -4   -3.93    7.81
   0  -4   3  182.70   10.42
   0   4  -3  199.17   10.87
   0  -4   3  192.72   13.49
   0   4  -3  208.10   14.26
   0  -4   2  157.75    8.39
   0   4  -2  159.46    8.62
   0  -4   2  177.69   12.86
   0   4  -2  171.01   11.96
   0   4  -1  653.82   28.56
   0  -4   1  659.23   34.92
   0   4  -1  684.50   36.23
   0  -4  -1  194.38    9.39
   0   4   1  194.29    9.66
   0  -4  -2  321.09   15.48
   0   4   2  333.09   16.06
   0  -4  -3  614.56   28.25
   0   4   3  628.10   28.97
   0  -4  -4    0.23    5.41
   0   4   4   -0.32    5.64
   0  -4  -4   -5.64    6.54
   0  -4  -5    8.53    6.32
   0   4   5   16.38    6.45
   0  -4  -5   30.91    7.35
   0  -4  -6  742.71   34.61
   0   4   6  754.89   35.42
   0  -4  -6  808.13   42.60
   0  -4  -7    7.90    7.17
   0   4   7   12.05    7.17
   0  -4  -7    7.17    7.04
   0  -4  -8    6.41    7.04
   0   4   8    8.75    7.22
   0  -4  -8    9.34    7.58
   0  -4  -9  294.06   17.33
   0   4   9  355.29   19.49
   0  -4  -9  360.79   21.97
   0  -4 -10    9.88    7.67
   0   4  10   -1.40    7.85
   0  -4 -10   13.94    8.12
   0  -4 -11   24.77    8.17
   0   4  11   18.82    8.30
   0  -4 -11   27.52    9.20
   0  -4 -12    9.48    8.93
   0   4  12    7.67    7.81
   0  -4 -12    3.61    9.30
   0  -4 -13   34.65    7.99
   0   4  13   49.95    9.20
   0  -4 -13   51.71   11.05
   0  -4 -14   34.43    9.39
   0   4  14   36.50    8.93
   0  -4 -14   26.62   10.69
   0  -4 -15   85.82   10.15
   0   4  15   79.23   10.24
   0  -4 -15   86.90   10.92
   0  -4 -16   39.62    8.57
   0   4  16   45.26    9.11
   0  -4 -16   35.29   11.60
   0  -5  15    3.93    8.66
   0   5 -15    6.14    8.75
   0  -5  15    0.36   11.96
   0   5 -15    0.90    9.52
   0  -5  14  108.97   11.73
   0   5 -14  115.83   11.64
   0  -5  14  130.00   14.30
   0   5 -14  117.18   12.41
   0  -5  13    8.17    7.67
   0   5 -13   19.81    9.25
   0  -5  13    8.89   10.42
   0   5 -13   17.37   10.47
   0  -5  12  298.84   18.14
   0   5 -12  285.67   17.28
   0  -5  12  309.67   21.48
   0   5 -12  309.45   20.85
   0  -5  11   20.53    8.17
   0   5 -11   50.90    9.02
   0  -5  11   34.83   12.09
   0   5 -11   53.47   11.01
   0  -5  10  170.33   12.54
   0   5 -10  223.40   14.57
   0  -5  10  218.39   18.00
   0   5 -10  206.57   16.47
   0  -5   9   -1.35    7.94
   0   5  -9    1.67    6.59
   0  -5   9   -3.97   10.60
   0   5  -9    8.12    8.44
   0  -5   8  297.44   17.19
   0   5  -8  335.07   17.91
   0  -5   8  336.25   22.25
   0   5  -8  297.85   19.27
   0  -5   7  239.46   14.89
   0   5  -7  236.71   13.81
   0  -5   7  222.13   16.65
   0   5  -7  208.55   15.43
   0  -5   6    5.91    5.37
   0   5  -6    1.04    5.46
   0  -5   6   -0.95    8.62
   0   5  -6    4.38    8.21
   0  -5   5  223.04   12.41
   0   5  -5  232.42   13.00
   0  -5   5  226.83   16.15
   0   5  -5  253.86   17.01
   0  -5   4  165.24    9.39
   0   5  -4  165.96    9.84
   0  -5   4  168.80   13.18
   0   5  -4  168.30   13.31
   0  -5   3  523.41   24.10
   0   5  -3  505.36   23.24
   0  -5   3  488.22   27.30
   0   5  -3  494.54   27.57
   0  -5   2  137.31    7.49
   0   5  -2  145.97    7.81
   0  -5   2  142.27   11.64
   0   5  -2  164.15   12.23
   0   5  -1 1658.23   71.38
   0  -5   1 1668.15   84.15
   0   5  -1 1630.25   82.30
   0  -5   0  220.65   14.26
   0  -5  -1 1634.31   70.44
   0   5   1 1638.37   70.57
   0  -5  -1 1647.40   82.93
   0  -5  -2  250.52   12.36
   0   5   2  245.87   12.27
   0  -5  -3   11.15    5.01
   0   5   3   13.76    5.32
   0  -5  -4  322.67   16.60
   0   5   4  284.90   15.16
   0  -5  -5  451.22   22.06
   0   5   5  455.73   22.34
   0  -5  -5  450.68   25.04
   0  -5  -6  242.21   14.12
   0   5   6  243.97   14.57
   0  -5  -6  247.27   15.75
   0  -5  -7    6.72    6.68
   0   5   7   10.74    7.04
   0  -5  -7   10.02    7.99
   0  -5  -8 1456.98   65.25
   0   5   8 1447.96   64.89
   0  -5  -8 1408.70   72.38
   0  -5  -9  314.27   17.87
   0   5   9  316.80   18.05
   0  -5  -9  310.57   20.17
   0  -5 -10  138.30   11.82
   0   5  10  159.23   12.72
   0  -5 -10  118.40   12.63
   0  -5 -11   17.78    7.22
   0   5  11   16.02    9.02
   0  -5 -11   23.96    9.97
   0  -5 -12   65.11    9.70
   0   5  12   60.82   10.15
   0  -5 -12   61.68   11.37
   0  -5 -13    6.72    8.93
   0   5  13    1.08    8.30
   0  -5 -13    3.43    9.20
   0  -5 -14   49.27    9.88
   0   5  14   41.02    9.07
   0  -5 -14   42.60   11.24
   0  -5 -15   -9.61    8.44
   0   5  15    0.00    8.84
   0  -5 -15    0.99    9.34
   0  -5 -16   84.38   10.33
   0   5  16   85.96   11.10
   0  -5 -16  105.31   13.22
   0  -6  15    9.07    9.48
   0   6 -15   -7.31    9.75
   0  -6  15    8.39   12.00
   0   6 -15    1.67   10.29
   0  -6  14   13.99    9.16
   0   6 -14   21.12    9.16
   0  -6  14   -2.35    9.39
   0   6 -14    7.94    9.57
   0  -6  13  231.43   15.25
   0   6 -13  217.22   14.98
   0  -6  13  195.56   16.15
   0   6 -13  216.40   16.42
   0  -6  12  117.09   11.01
   0   6 -12  100.58   11.37
   0  -6  12  122.42   13.18
   0   6 -12  143.35   13.54
   0  -6  11  114.34   10.74
   0   6 -11  134.46   12.05
   0  -6  11  132.12   14.12
   0   6 -11  104.91   13.22
   0  -6  10   17.33    8.48
   0   6 -10    4.51    8.03
   0  -6  10    8.71   11.19
   0   6 -10   -7.67    9.11
   0  -6   9   81.63    9.02
   0   6  -9   77.25    8.89
   0  -6   9   74.86   12.00
   0   6  -9   74.00   10.87
   0  -6   8  435.74   21.97
   0   6  -8  442.69   22.61
   0  -6   8  409.44   26.04
   0   6  -8  449.73   27.16
   0  -6   7    8.75    5.60
   0   6  -7    4.69    6.54
   0  -6   7   12.68    9.20
   0   6  -7    5.82    8.75
   0  -6   6  221.95   13.00
   0   6  -6  226.11   13.09
   0  -6   6  225.61   16.83
   0   6  -6  230.03   16.24
   0  -6   5  187.48   11.69
   0   6  -5  186.35   11.05
   0  -6   5  168.35   13.99
   0   6  -5  160.99   12.77
   0  -6   4  677.28   30.59
   0   6  -4  652.91   29.83
   0  -6   4  629.90   34.61
   0   6  -4  633.96   34.47
   0  -6   3   20.58    3.70
   0   6  -3   26.80    4.51
   0  -6   3   18.27    7.72
   0   6  -3   24.64    7.67
   0   6  -2 5996.69  256.47
   0  -6   2 5983.16  296.50
   0   6  -2 5929.01  293.74
   0  -6   1 1123.53   57.71
   0   6  -1 1189.41   60.82
   0  -6   0 9006.32  444.90
   0  -6  -1 3109.35  133.34
   0   6   1 3149.96  135.09
   0  -6  -1 3130.55  155.99
   0  -6  -2  678.18   30.19
   0   6   2  682.69   30.46
   0  -6  -3  136.27    8.48
   0   6   3  143.62    8.80
   0  -6  -4   82.98    7.13
   0   6   4   71.74    7.04
   0  -6  -5  426.31   21.07
   0   6   5  422.66   21.07
   0  -6  -6    1.67    6.27
   0   6   6   -1.08    6.59
   0  -6  -6   -3.84    7.22
   0  -6  -7  997.64   45.80
   0   6   7 1021.56   46.61
   0  -6  -7 1077.06   55.95
   0  -6  -8   14.89    6.86
   0   6   8    0.63    6.23
   0  -6  -8   16.42    7.90
   0  -6  -9 1038.25   47.83
   0   6   9 1121.73   51.12
   0  -6  -9 1049.99   55.00
   0  -6 -10   -0.50    7.22
   0   6  10    5.60    7.72
   0  -6 -10   -8.12    7.72
   0  -6 -11   77.84    9.93
   0   6  11   71.56   10.24
   0  -6 -11   63.13   10.29
   0  -6 -12   53.92    9.48
   0   6  12   53.74    9.43
   0  -6 -12   41.20    9.97
   0  -6 -13   36.37    9.61
   0   6  13   39.89    8.44
   0  -6 -13   38.13    9.93
   0  -6 -14    8.39    9.30
   0   6  14    1.44    8.84
   0  -6 -14   -5.64   11.15
   0  -6 -15   32.40    9.30
   0   6  15   43.27   10.69
   0  -6 -15   21.97   10.56
   0  -6 -16   81.94   11.28
   0   6  16   98.59   11.33
   0  -6 -16   91.64   13.36
   0  -7  14   27.61    9.61
   0   7 -14   22.65   10.33
   0  -7  14   28.65   11.51
   0   7 -14   23.19   11.05
   0  -7  13  107.12   10.74
   0   7 -13  127.56   12.23
   0  -7  13  110.37   13.45
   0   7 -13  112.35   12.00
   0  -7  12   76.71    9.48
   0   7 -12   70.75   10.60
   0  -7  12   92.36   13.27
   0   7 -12   80.72   11.15
   0  -7  11  190.10   13.31
   0   7 -11  200.84   14.12
   0  -7  11  175.84   15.93
   0   7 -11  167.67   15.57
   0  -7  10   -6.77    6.36
   0   7 -10   -3.25    8.30
   0  -7  10    2.53   10.02
   0   7 -10  -13.31    9.61
   0  -7   9  273.62   16.33
   0   7  -9  280.07   16.33
   0  -7   9  230.62   17.96
   0   7  -9  283.77   19.76
   0  -7   8    6.14    7.49
   0   7  -8   -0.14    7.22
   0  -7   8   -0.77   10.29
   0   7  -8   -8.35    9.66
   0  -7   7  211.76   12.54
   0   7  -7  173.00   11.28
   0  -7   7  174.67   15.43
   0   7  -7  154.14   13.85
   0  -7   6   29.51    5.64
   0   7  -6   37.81    6.54
   0  -7   6   29.33    9.75
   0   7  -6   26.35    8.03
   0  -7   5   24.46    4.96
   0   7  -5   23.64    5.55
   0  -7   5   34.61    9.20
   0   7  -5   23.96    7.72
   0  -7   4  459.34   21.48
   0   7  -4  436.96   20.62
   0  -7   4  430.19   25.36
   0   7  -4  445.76   25.40
   0  -7   3  769.33   34.16
   0   7  -3  764.82   33.89
   0  -7   3  724.66   39.08
   0   7  -3  823.02   43.72
   0   7  -2  514.39   22.79
   0  -7   2  527.93   29.37
   0   7  -2  492.28   27.43
   0  -7   1  197.27   13.72
   0   7  -1  183.15   12.81
   0  -7   0 4548.28  225.93
   0   7   1  170.38    8.30
   0  -7  -1  161.04   11.69
   0  -7  -2    6.68    3.20
   0   7   2    7.26    3.47
   0  -7  -2    4.56    5.64
   0  -7  -3   28.79    4.47
   0   7   3   31.99    4.92
   0  -7  -4   56.27    6.27
   0   7   4   59.34    6.50
   0  -7  -5   -0.32    5.28
   0   7   5   15.34    5.60
   0  -7  -6  260.13   14.85
   0   7   6  262.02   14.71
   0  -7  -6  274.52   17.42
   0  -7  -7  202.46   12.81
   0   7   7  218.03   13.67
   0  -7  -7  216.77   15.25
   0  -7  -8  404.20   21.21
   0   7   8  391.57   20.53
   0  -7  -8  409.71   24.00
   0  -7  -9  922.29   42.78
   0   7   9  845.13   39.80
   0  -7  -9  948.01   49.77
   0  -7 -10   30.59    8.48
   0   7  10   26.85    8.80
   0  -7 -10   41.56    8.84
   0  -7 -11   64.39    9.79
   0   7  11   64.30    9.39
   0  -7 -11   83.97   11.51
   0  -7 -12   12.32    8.26
   0   7  12   15.16    8.03
   0  -7 -12    8.80    9.20
   0  -7 -13   29.19    9.02
   0   7  13   14.53    8.21
   0  -7 -13   -3.52   10.15
   0  -7 -14   23.96    9.48
   0   7  14    8.62    8.57
   0  -7 -14   -0.18   10.33
   0  -7 -15  110.14   11.64
   0   7  15   82.08   10.92
   0  -7 -15  100.80   13.94
   0  -7 -16   13.45    8.75
   0   7  16   30.50    9.79
   0  -7 -16   39.80   12.45
   0  -8  14   17.28   10.87
   0   8 -14    9.25   10.87
   0  -8  14   29.69   11.33
   0   8 -14  -15.21    9.79
   0  -8  13   13.63    9.20
   0   8 -13   11.33    9.93
   0  -8  13   19.76   11.19
   0   8 -13    4.24   10.60
   0  -8  12   59.38    9.57
   0   8 -12   56.90    9.39
   0  -8  12   54.73   12.27
   0   8 -12   58.66    9.61
   0  -8  11  -15.16    7.31
   0   8 -11   13.18    8.39
   0  -8  11   -0.18    9.97
   0   8 -11    1.22    9.93
   0  -8  10  197.86   12.86
   0   8 -10  197.09   14.12
   0  -8  10  169.48   15.39
   0   8 -10  221.46   16.33
   0  -8   9    5.32    6.63
   0   8  -9   15.79    7.45
   0  -8   9   11.46   10.56
   0   8  -9  -21.12    9.97
   0  -8   8  215.55   12.77
   0   8  -8  205.17   13.09
   0  -8   8  214.01   17.55
   0   8  -8  209.37   16.20
   0  -8   7  182.56   11.64
   0   8  -7  206.03   12.81
   0  -8   7  186.40   16.06
   0   8  -7  202.96   15.70
   0  -8   6   -0.90    5.37
   0   8  -6    2.35    4.92
   0  -8   6    9.25    9.97
   0   8  -6    1.44    8.17
   0  -8   5   81.08    6.59
   0   8  -5   84.24    6.99
   0  -8   5   65.20   10.29
   0   8  -5   82.66   10.06
   0  -8   4  141.46    7.99
   0   8  -4  148.77    8.57
   0  -8   4  154.50   13.09
   0   8  -4  158.83   13.36
   0   8  -3  262.65   12.68
   0  -8   3  262.11   17.28
   0   8  -3  269.47   17.64
   0  -8   2   22.70    7.58
   0   8  -2   25.22    7.45
   0  -8   1  716.53   38.26
   0  -8   0  798.66   42.10
   0   8   1  897.02   39.08
   0  -8  -1  852.80   44.81
   0  -8  -2   42.37    4.11
   0   8   2   33.35    3.93
   0  -8  -2   53.38    8.03
   0  -8  -3  489.57   22.56
   0   8   3  487.77   22.56
   0  -8  -4    0.32    3.97
   0   8   4   -0.86    4.69
   0  -8  -5  174.26   10.87
   0   8   5  172.86   10.92
   0  -8  -6  457.99   22.52
   0   8   6  451.67   22.43
   0  -8  -7   22.43    7.49
   0   8   7   38.31    6.86
   0  -8  -7   49.68    9.25
   0  -8  -8  943.05   43.27
   0   8   8  897.92   41.56
   0  -8  -8  875.36   46.20
   0  -8  -9  161.40   12.50
   0   8   9  149.35   11.96
   0  -8  -9  116.23   11.42
   0  -8 -10  182.79   13.00
   0   8  10  190.37   13.94
   0  -8 -10  198.04   14.57
   0  -8 -11  126.03   11.46
   0   8  11   88.89   10.15
   0  -8 -11  117.36   12.32
   0  -8 -12   14.44    8.35
   0   8  12    5.55    7.35
   0  -8 -12   24.59    9.43
   0  -8 -13    0.59    8.53
   0   8  13  -12.05    7.54
   0  -8 -13    8.80   10.38
   0  -8 -14    9.39    8.53
   0   8  14    8.98    7.58
   0  -8 -14   27.93   10.65
   0  -8 -15   -2.03    9.61
   0   8  15   11.28    9.25
   0  -8 -15   -7.85   10.56
   0  -9  13    1.35    9.97
   0   9 -13   31.90   10.87
   0  -9  13   26.22   11.15
   0   9 -13   15.16   10.15
   0  -9  12   99.45   10.69
   0   9 -12   91.87   10.87
   0  -9  12   81.44   12.63
   0   9 -12  102.07   11.69
   0  -9  11   15.66    8.35
   0   9 -11   -1.35    8.35
   0  -9  11    3.25   10.65
   0   9 -11   -2.21    9.66
   0  -9  10   15.25    7.67
   0   9 -10   17.60    8.53
   0  -9  10   19.81   10.51
   0   9 -10   28.56    9.79
   0  -9   9   10.47    7.26
   0   9  -9   -1.94    7.22
   0  -9   9   -5.69    9.93
   0   9  -9   18.41    9.97
   0  -9   8    7.49    6.50
   0   9  -8   -1.04    7.08
   0  -9   8   -3.93   10.78
   0   9  -8   -1.13    8.75
   0  -9   7  262.47   14.71
   0   9  -7  266.53   14.75
   0  -9   7  272.94   19.40
   0   9  -7  255.98   18.05
   0  -9   6   48.87    5.91
   0   9  -6   45.21    6.77
   0  -9   6   55.50   11.24
   0   9  -6   67.77   11.60
   0  -9   5    9.97    4.20
   0   9  -5   -6.45    4.20
   0  -9   5    5.82    8.98
   0   9  -5   -3.52    8.03
   0   9  -4  190.10   10.11
   0  -9   4  202.28   15.30
   0   9  -4  201.02   14.57
   0   9  -3    1.85    2.66
   0  -9   3    7.13    7.90
   0   9  -3  -11.10    6.95
   0  -9   2   18.77    7.54
   0   9  -2    4.33    6.54
   0  -9   1  821.22   43.63
   0  -9   0  603.28   32.89
   0  -9  -1  178.77   13.13
   0  -9  -2  136.40    7.04
   0   9   2  128.06    7.04
   0  -9  -2  127.24   10.56
   0  -9  -3  230.35   11.73
   0   9   3  271.95   13.40
   0  -9  -3  224.35   15.03
   0  -9  -4    1.17    4.33
   0   9   4   -0.23    4.56
   0  -9  -5  523.41   24.68
   0   9   5  495.44   23.78
   0  -9  -6   79.91    7.63
   0   9   6   89.66    8.03
   0  -9  -7 2453.73  107.12
   0   9   7 2465.01  107.53
   0  -9  -7 2465.91  124.09
   0  -9  -8  111.27   10.56
   0   9   8  122.55   10.51
   0  -9  -8  114.61   10.96
   0  -9  -9 1328.84   59.92
   0   9   9 1432.62   64.48
   0  -9  -9 1552.19   79.55
   0  -9 -10   13.00    7.49
   0   9  10    5.32    7.99
   0  -9 -10    1.85    8.57
   0  -9 -11   12.18    8.48
   0   9  11   -6.36    7.58
   0  -9 -11   -1.94    9.75
   0  -9 -12   87.90   10.02
   0   9  12  106.40   10.02
   0  -9 -12  108.34   12.00
   0  -9 -13    1.80    7.94
   0   9  13   -3.70    8.03
   0  -9 -13   -7.26   10.65
   0  -9 -14   -5.60    8.12
   0   9  14   28.56    8.48
   0  -9 -14   -1.22   11.15
   0  -9 -15   -1.80    8.93
   0   9  15    6.90    8.66
   0  -9 -15    9.39   11.46
   0 -10  12   14.98    9.66
   0  10 -12    5.05    9.79
   0 -10  12   34.56   10.87
   0  10 -12   17.91   10.47
   0 -10  11   93.85   11.15
   0  10 -11  103.15   10.87
   0 -10  11  104.86   14.66
   0  10 -11  104.05   12.41
   0 -10  10   50.54    9.02
   0  10 -10   29.74    9.07
   0 -10  10   45.57   11.82
   0  10 -10   69.98   10.96
   0 -10   9   40.43    8.17
   0  10  -9   54.55    8.75
   0 -10   9   48.64   10.92
   0  10  -9   49.68    9.66
   0 -10   8   26.89    6.90
   0  10  -8   16.29    7.13
   0 -10   8   33.30   10.42
   0  10  -8    7.17    9.07
   0 -10   7   70.62    6.90
   0  10  -7   89.07    8.39
   0 -10   7   64.98   11.91
   0  10  -7   88.75   11.28
   0 -10   6   48.01    5.91
   0  10  -6   45.26    6.32
   0 -10   6   37.23   10.69
   0  10  -6   61.28   11.19
   0  10  -5  178.23    9.97
   0 -10   5  200.07   15.66
   0  10  -5  221.10   16.51
   0  10  -4   27.34    3.84
   0 -10   4   13.58    8.89
   0  10  -4   32.76    8.98
   0 -10   3    1.49    8.03
   0  10  -3   -8.62    7.26
   0 -10   2  674.12   36.95
   0 -10   1   47.20    8.57
   0 -10   0  256.56   16.97
   0 -10  -1   75.99    8.89
   0  10   2   10.06    2.62
   0 -10  -2   -4.83    7.31
   0 -10  -3   41.24    4.47
   0  10   3   37.14    4.42
   0 -10  -3   42.87    7.63
   0 -10  -4   11.42    4.24
   0  10   4   16.38    4.74
   0 -10  -4    3.93    6.95
   0 -10  -5   70.89    6.77
   0  10   5   45.80    6.23
   0 -10  -6   28.74    6.45
   0  10   6   31.63    6.99
   0 -10  -7   79.37    9.02
   0  10   7   80.95    9.07
   0 -10  -7   93.85    9.70
   0 -10  -8   29.46    7.40
   0  10   8   26.53    7.76
   0 -10  -8   18.82    8.35
   0 -10  -9  215.28   13.67
   0  10   9  193.48   13.18
   0 -10  -9  185.81   14.21
   0 -10 -10    0.63    7.58
   0  10  10   11.33    7.13
   0 -10 -10   10.78    8.93
   0 -10 -11   33.53    8.75
   0  10  11   26.40    8.26
   0 -10 -11   21.34    9.84
   0 -10 -12   -3.47    8.21
   0  10  12   -5.64    7.81
   0 -10 -12    2.75    9.93
   0 -10 -13    3.75    8.12
   0  10  13    4.20    7.90
   0 -10 -13   -4.78   11.87
   0 -10 -14   14.53    8.84
   0  10  14   -5.10    8.53
   0 -10 -14   11.96   11.01
   0 -11  12  106.67   13.09
   0  11 -12  118.26   15.97
   0 -11  12  102.61   13.90
   0  11 -12  107.30   11.91
   0 -11  11   16.11   10.02
   0  11 -11   18.45   10.78
   0 -11  11   35.74   11.01
   0  11 -11   41.65   10.74
   0 -11  10   22.92    8.71
   0  11 -10   39.66    9.02
   0 -11  10   46.16   11.78
   0  11 -10   43.63    9.57
   0 -11   9   68.18    9.02
   0  11  -9   57.39    9.66
   0 -11   9   55.00   12.27
   0  11  -9   58.39    9.97
   0 -11   8   35.01    6.86
   0  11  -8   38.99    7.90
   0 -11   8   55.27   11.42
   0  11  -8   46.25   10.65
   0  11  -7   23.33    6.23
   0 -11   7   37.95   10.74
   0  11  -7   32.04    9.57
   0  11  -6   11.42    5.14
   0 -11   6   -6.00    9.79
   0  11  -6    4.11    8.44
   0  11  -5   21.93    4.42
   0 -11   5   23.91    9.11
   0  11  -5   18.27    8.21
   0 -11   4   82.57   10.74
   0  11  -4   56.67    9.30
   0 -11   3  831.14   44.76
   0  11  -3  810.39   43.05
   0 -11   2    6.59    8.48
   0 -11   1  343.51   21.21
   0 -11   0  429.74   24.86
   0 -11  -1  313.82   19.09
   0 -11  -2   31.86    6.72
   0  11   3  217.22   10.87
   0 -11  -3  198.99   13.76
   0 -11  -4   11.01    4.69
   0  11   4   18.09    4.69
   0 -11  -4   18.82    6.50
   0 -11  -5    1.76    4.96
   0  11   5    4.11    5.37
   0 -11  -5   21.43    6.81
   0 -11  -6  475.13   22.74
   0  11   6  504.46   24.73
   0 -11  -7   77.88    8.30
   0  11   7   58.61    7.90
   0 -11  -7   63.08    8.66
   0 -11  -8  414.04   21.48
   0  11   8  420.26   21.84
   0 -11  -8  406.86   23.91
   0 -11  -9  112.49   10.38
   0  11   9   86.00    9.52
   0 -11  -9   85.73   10.38
   0 -11 -10   -0.86    7.31
   0  11  10    2.03    6.72
   0 -11 -10   21.66    9.20
   0 -11 -11    1.04    7.90
   0  11  11    9.39    7.45
   0 -11 -11   10.56    8.75
   0 -11 -12   78.15   10.24
   0  11  12  106.89   10.51
   0 -11 -12  103.19   12.81
   0 -11 -13   15.16    8.80
   0  11  13    7.40    8.21
   0 -11 -13   12.36   10.78
   0 -11 -14   35.78   11.55
   0  11  14   19.22    8.39
   0 -11 -14   30.59   12.50
   0 -12  11    8.80   10.15
   0  12 -11   12.45   12.54
   0 -12  11    9.20   11.05
   0  12 -11    1.31    8.98
   0  12 -10   53.15   11.42
   0 -12  10   84.33   12.90
   0  12 -10   59.88   10.29
   0  12  -9    0.05    9.48
   0 -12   9    5.37   10.51
   0  12  -9   10.56    8.30
   0  12  -8   -7.90    7.99
   0 -12   8   -7.31   10.74
   0  12  -8   12.77    9.07
   0  12  -7  113.08    8.93
   0 -12   7  128.19   13.27
   0  12  -7  112.62   11.05
   0  12  -6   27.39    5.05
   0 -12   6   33.80   10.74
   0  12  -6   31.54    9.20
   0 -12   5  232.56   17.15
   0  12  -5  244.56   17.06
   0 -12   4  386.83   23.78
   0  12  -4  374.87   23.69
   0 -12   3  189.20   14.85
   0 -12   2    4.56    7.63
   0 -12   1  412.96   24.23
   0 -12   0   43.95    8.17
   0 -12  -1   34.74    8.30
   0 -12  -2   61.55    8.80
   0  12   3   62.13    4.24
   0 -12  -3   70.03    8.44
   0 -12  -4  133.24    8.17
   0  12   4  162.75    9.20
   0 -12  -4  131.94   11.46
   0 -12  -5  251.96   13.22
   0  12   5  259.90   13.81
   0 -12  -5  243.34   15.97
   0 -12  -6   49.86    6.86
   0  12   6   55.00    6.90
   0 -12  -6   44.17    7.90
   0 -12  -7  433.44   21.84
   0  12   7  390.57   19.99
   0 -12  -8  152.20   11.37
   0  12   8  144.21   10.69
   0 -12  -8  145.11   12.68
   0 -12  -9  219.74   14.26
   0  12   9  194.79   13.27
   0 -12  -9  179.49   14.57
   0 -12 -10   20.40    8.39
   0  12  10   18.18    8.26
   0 -12 -10   14.08    9.43
   0 -12 -11   15.61    8.26
   0  12  11   11.46    8.62
   0 -12 -11    4.15    9.88
   0 -12 -12   -2.93    8.80
   0  12  12    7.81    8.48
   0 -12 -12  -23.55   10.78
   0 -12 -13   15.88   10.24
   0  12  13    8.26    8.75
   0 -12 -13    6.81   10.65
   0  13 -10  -10.92   10.83
   0 -13  10   -9.20   11.82
   0  13 -10   -8.57    8.62
   0  13  -9   21.88    9.88
   0 -13   9   19.72   11.87
   0  13  -9   40.34    9.48
   0  13  -8   20.62    8.12
   0 -13   8    0.41   10.83
   0  13  -8   10.20    8.39
   0 -13   7   -5.37   10.83
   0  13  -7    1.90    8.66
   0 -13   6  114.88   13.09
   0  13  -6  122.96   12.00
   0 -13   5  218.98   16.33
   0  13  -5  240.00   16.79
   0 -13   4  329.30   21.07
   0 -13   3   56.94   10.38
   0 -13   2  540.11   30.73
   0 -13   1    6.68    7.67
   0 -13   0  457.99   26.31
   0 -13  -1   -0.90    7.85
   0 -13  -2    3.11    7.67
   0 -13  -3   83.61    9.57
   0  13   4    3.84    3.75
   0 -13  -4    9.70    7.54
   0 -13  -5  509.43   23.87
   0  13   5  469.72   22.11
   0 -13  -5  473.33   26.67
   0 -13  -6  310.35   16.24
   0  13   6  292.25   15.30
   0 -13  -6  316.12   19.58
   0 -13  -7  153.46   11.24
   0  13   7  190.05   12.09
   0 -13  -7  166.82   13.04
   0 -13  -8   84.20    9.66
   0  13   8   95.66    9.48
   0 -13  -8   78.96   10.20
   0 -13  -9  362.73   19.72
   0  13   9  411.20   21.48
   0 -13  -9  375.73   23.06
   0 -13 -10   35.69    8.93
   0  13  10   24.23    8.03
   0 -13 -10   35.42    9.61
   0 -13 -11    2.98    9.16
   0  13  11   13.00    8.30
   0 -13 -11    2.03    9.75
   0 -13 -12   -0.41   10.29
   0  13  12   -5.64    8.71
   0 -13 -12    1.40   11.73
   0 -14   9    0.90   12.72
   0  14  -9   -3.56    9.25
   0 -14   8   11.19   12.41
   0  14  -8   -6.63    8.08
   0 -14   7  -13.63   11.10
   0  14  -7   -6.09    9.57
   0 -14   6    9.20    9.93
   0  14  -6    8.48    8.12
   0 -14   5  123.27   13.58
   0 -14   4   31.13    9.97
   0 -14   3  197.14   15.30
   0 -14   2   35.56    9.39
   0 -14   1  143.98   12.86
   0 -14   0   10.83    8.80
   0 -14  -1   15.16    7.76
   0 -14  -2   47.20    9.30
   0 -14  -3   47.87    7.94
   0 -14  -4  246.05   16.38
   0  14   5   44.13    5.19
   0 -14  -5   55.50    8.84
   0 -14  -6  222.27   12.45
   0  14   6  228.54   13.04
   0 -14  -6  248.13   16.06
   0 -14  -7    1.31    6.18
   0  14   7   12.41    6.59
   0 -14  -7   21.43    7.35
   0 -14  -8  749.47   34.97
   0  14   8  710.67   33.53
   0 -14  -8  703.90   38.26
   0 -14  -8  748.57   40.07
   0 -14  -9    9.07    8.75
   0  14   9    7.04    8.57
   0 -14  -9   16.11    9.75
   0 -14 -10   45.35   10.78
   0  14  10   41.96    9.97
   0 -14 -10   46.93   10.96
   0 -14 -11   10.24   11.15
   0  14  11   17.46    8.89
   0 -14 -11   18.27   11.60
   0 -15   7    8.39   12.36
   0 -15   6   72.01   12.32
   0 -15   5   21.88   10.47
   0 -15   4  781.51   42.37
   0 -15   3  172.73   14.53
   0 -15   2   18.05   10.15
   0 -15   1   47.15   10.83
   0 -15   0   31.18    9.97
   0 -15  -1  121.11   12.32
   0 -15  -2   13.99    8.66
   0 -15  -3  292.48   19.13
   0 -15  -4    7.63    8.48
   0 -15  -5   56.40    9.52
   0  15   6  239.06   13.04
   0 -15  -6  244.02   17.06
   0 -15  -7  520.71   25.22
   0  15   7  496.34   24.55
   0 -15  -7  529.28   30.10
   0 -15  -8  100.85   10.69
   0  15   8  125.89   11.87
   0 -15  -8  113.93   12.77
   0 -15  -8  112.94   12.05
   0 -15  -9   24.14   10.51
   0  15   9   21.16    9.57
   0 -15  -9   22.43   11.55
   0 -15  -9   35.20   10.33
   0 -15 -10   51.53   13.45
   0  15  10   71.47   11.15
   0 -15 -10   65.52   11.87
   0 -15 -10   63.67   11.51
   0 -16   5   -7.08   11.10
   0 -16   4  136.54   14.35
   0 -16   3    2.57   10.29
   0 -16   2  -16.65   10.15
   0 -16   1   66.87   11.33
   0 -16   0   67.82   10.87
   0 -16  -1   11.82   10.11
   0 -16  -2    0.41    9.70
   0 -16  -3   18.95    9.61
   0 -16  -4   20.89    8.66
   0 -16  -5   49.50   10.65
   0 -16  -6   16.83   10.29
   0  16   7    2.12    6.90
   0 -16  -7   12.59   11.69
   0 -16  -8    6.81    9.34
   0  16   8    5.73   10.15
   0 -16  -8    5.05   11.51
   0 -16  -8   -0.18    8.57
   0 -16  -9   26.49   11.78
   0  16   9   53.60   12.27
   0 -16  -9   66.92   11.78
   0 -16  -9   43.54   11.19
   0 -17   3   32.04   11.69
   0 -17   2   -7.72   10.65
   0 -17   1    9.02   10.33
   0 -17   0   15.66   11.01
   0 -17  -1   -4.69    9.75
   0 -17  -2   35.01   11.69
   0 -17  -3    5.55   10.74
   0 -17  -4   46.84   13.76
   0 -17  -5   41.06   11.78
   0 -17  -6  106.22   13.54
   0 -17  -7   42.50   12.05
   1 -17  -6   15.52   11.64
   1 -17  -5  168.76   16.02
   1 -17  -4   10.65   10.24
   1 -17  -3  146.15   15.21
   1 -17  -2   23.01   10.24
   1 -17  -1   86.95   13.63
   1 -17   0   19.81   11.82
   1 -17   1    1.22   12.77
   1 -17   2   12.81   12.81
   1 -17   3  -20.80   11.37
  -1  16   8   32.53   10.87
   1 -16  -8   44.13   10.78
   1 -16  -8   26.44   12.09
   1 -16  -8   30.82   11.82
  -1  16   7    7.63    9.75
   1 -16  -7    8.71   10.92
   1 -16  -7  -13.54   10.92
  -1  16   6   17.51    7.45
   1 -16  -6   19.04    9.16
   1 -16  -5    1.58    9.70
   1 -16  -4   55.77   10.51
   1 -16  -3   25.76    9.97
   1 -16  -2   14.26    8.93
   1 -16  -1   33.89   10.56
   1 -16   0    1.17   10.60
   1 -16   1    1.26    9.84
   1 -16   2    6.27   11.19
   1 -16   3   33.84   10.74
   1 -16   4   14.26   11.42
   1 -16   5  125.89   14.39
   1 -16   6    2.35   13.00
  -1  15  10   15.75   10.33
   1 -15 -10    3.79   11.37
   1 -15 -10   14.39   13.22
   1 -15 -10   16.47   10.78
  -1  15   9   34.97   10.24
   1 -15  -9   42.28   11.87
   1 -15  -9   45.66   13.00
   1 -15  -9   49.09   10.87
  -1  15   8   62.58   10.51
   1 -15  -8   49.68   10.38
   1 -15  -8   74.36   11.01
   1 -15  -8   51.89   11.37
  -1  15   7  155.49   12.18
   1 -15  -7  174.58   12.45
   1 -15  -7  142.81   12.95
   1 -15  -7  176.29   14.48
  -1  15   6  261.71   14.89
   1 -15  -6  265.14   17.73
  -1  15   5   85.05    7.67
   1 -15  -5   85.37   10.42
   1 -15  -4  143.08   12.72
   1 -15  -3   49.99    9.39
   1 -15  -2  255.03   17.33
   1 -15  -1   46.97    9.25
   1 -15   0   36.82    9.39
   1 -15   1   18.82    8.93
   1 -15   2   20.03    9.43
   1 -15   3   25.72   10.51
   1 -15   4  107.07   12.63
   1 -15   5   78.38   12.86
   1 -15   6   89.48   13.49
   1 -15   7   63.53   13.45
  -1  14  11   12.41   10.38
   1 -14 -11    4.29   11.33
   1 -14 -11  -18.32   12.68
  -1  14  10  -10.83    9.43
   1 -14 -10   22.79   10.47
   1 -14 -10   -0.05   10.38
  -1  14   9   11.33    9.34
   1 -14  -9    8.98    8.44
   1 -14  -9   17.87   10.24
   1 -14  -9   18.77    8.71
  -1  14   8   21.43    8.75
   1 -14  -8   21.66    8.44
   1 -14  -8   -1.22    8.93
   1 -14  -8   18.14    8.89
  -1  14   7  470.17   23.60
   1 -14  -7  499.50   24.37
   1 -14  -7  464.30   26.62
   1 -14  -7  457.54   26.35
  -1  14   6   27.89    7.04
   1 -14  -6   14.48    6.59
   1 -14  -6   46.52    8.48
  -1  14   5  303.17   15.79
   1 -14  -5  306.15   18.91
  -1  14   4  111.32    7.40
   1 -14  -4   98.59   10.24
   1 -14  -3  730.07   39.26
   1 -14  -2   22.97    8.21
   1 -14  -1   -2.39    8.12
   1 -14   0    1.76    8.48
   1 -14   1    0.14    7.81
   1 -14   2   55.09    9.79
   1 -14   3  159.01   13.54
   1 -14   4   69.98   10.92
   1 -14   5   24.37   11.69
  -1  14  -6  304.35   19.36
   1 -14   6  288.06   19.99
  -1  14  -7   -4.87    8.75
   1 -14   7    3.20   11.60
  -1  14  -8   11.37    8.84
   1 -14   8   16.24   12.00
  -1  14  -9   10.87    9.30
  -1  14  -9    4.33    8.35
  -1  14  -9   -0.68    8.66
   1 -14   9    7.13   11.78
  -1  13  12   17.69    9.39
   1 -13 -12   25.72   10.42
   1 -13 -12    0.09   10.87
  -1  13  11   -9.25    9.48
   1 -13 -11    4.60    9.30
   1 -13 -11    7.17   10.47
  -1  13  10   57.67    9.43
   1 -13 -10   82.71   10.74
   1 -13 -10   69.17   11.51
  -1  13   9   41.87    8.26
   1 -13  -9   27.61    8.21
   1 -13  -9   23.96    9.52
  -1  13   8  334.71   18.36
   1 -13  -8  352.90   19.40
   1 -13  -8  325.92   20.44
  -1  13   7   -3.11    7.13
   1 -13  -7   -0.14    7.35
   1 -13  -7   -1.62    7.76
   1 -13  -7   11.87    7.45
  -1  13   6  206.07   13.04
   1 -13  -6  203.32   12.45
   1 -13  -6  202.64   13.90
  -1  13   5  205.94   12.09
   1 -13  -5  223.49   12.68
   1 -13  -5  198.72   14.03
  -1  13   4  160.50    9.57
   1 -13  -4  174.08   12.81
  -1  13   3   69.26    5.37
   1 -13  -3   78.33    9.20
   1 -13  -2   -8.98    7.31
   1 -13  -1   21.43    8.03
   1 -13   0   15.39    8.21
   1 -13   1  169.25   13.27
   1 -13   2   15.16    9.30
   1 -13   3  144.39   13.09
   1 -13   4  173.40   14.53
  -1  13  -5  754.89   40.65
   1 -13   5  779.71   42.14
  -1  13  -6   76.39   10.51
   1 -13   6   51.57   11.33
  -1  13  -7   52.39    6.99
  -1  13  -7   30.19    5.91
  -1  13  -7   45.21    8.98
   1 -13   7   59.83   12.68
  -1  13  -8    2.48    7.72
  -1  13  -8  -14.26    8.89
   1 -13   8   18.14   11.28
  -1  13  -9   14.08   10.20
  -1  13  -9    6.90    9.66
   1 -13   9  -14.35   12.45
  -1  13 -10    0.36   10.69
  -1  13 -10   -2.03    9.02
   1 -13  10  -14.12   12.00
  -1  12  13   17.37    9.20
   1 -12 -13    4.20   11.01
   1 -12 -13   24.50   13.36
  -1  12  12   22.70    8.21
   1 -12 -12   53.42   10.06
   1 -12 -12   33.98   10.29
  -1  12  11  153.73   12.23
   1 -12 -11  128.28   11.42
   1 -12 -11  144.12   13.94
  -1  12  10   24.68    9.07
   1 -12 -10   11.28    8.30
   1 -12 -10    3.93    9.34
  -1  12   9    6.00    6.95
   1 -12  -9   -6.81    7.40
   1 -12  -9    6.95    8.71
  -1  12   8  113.17   10.29
   1 -12  -8   81.44    9.66
   1 -12  -8   91.37   10.51
  -1  12   7   30.77    7.99
   1 -12  -7   43.23    7.35
   1 -12  -7   46.11    8.57
  -1  12   6  313.06   16.79
   1 -12  -6  279.39   15.52
   1 -12  -6  276.69   17.55
  -1  12   5   22.25    6.32
   1 -12  -5   28.97    6.14
   1 -12  -5   22.38    7.31
  -1  12   4   59.29    6.50
   1 -12  -4   31.09    5.23
   1 -12  -4   41.20    7.85
  -1  12   3   -1.40    4.33
   1 -12  -3   -6.36    6.59
  -1  12   2  123.86    6.81
   1 -12  -2  158.33   12.23
   1 -12  -1   14.57    6.63
   1 -12   0    1.58    7.45
   1 -12   1   19.72    8.17
   1 -12   2   21.07    8.39
   1 -12   3   50.81    9.57
  -1  12  -4  265.23   16.97
   1 -12   4  260.71   18.00
  -1  12  -5  327.36   20.49
   1 -12   5  321.22   20.94
  -1  12  -6  184.28   10.20
  -1  12  -6  204.72   11.15
  -1  12  -6  230.89   16.33
   1 -12   6  192.53   15.79
  -1  12  -7   58.79    7.04
  -1  12  -7   57.03   10.96
   1 -12   7   64.16   11.28
  -1  12  -8   -2.71    7.63
  -1  12  -8   -7.45    9.16
   1 -12   8  -11.05   11.51
  -1  12  -9   -6.72    8.75
  -1  12  -9   -5.10    9.11
   1 -12   9   -1.44   10.38
  -1  12 -10   -0.23    9.75
  -1  12 -10   11.33    9.79
   1 -12  10   -0.59   11.33
  -1  12 -11    6.54   11.51
  -1  12 -11   -1.62    9.39
   1 -12  11   19.81   12.27
  -1  11  13   12.36    7.85
   1 -11 -13   33.44   10.92
   1 -11 -13   41.96   12.41
  -1  11  12   67.59    9.20
   1 -11 -12   80.90   10.20
   1 -11 -12   62.18   11.60
  -1  11  11  216.00   14.30
   1 -11 -11  240.82   15.16
   1 -11 -11  281.65   19.58
  -1  11  10   18.36    7.63
   1 -11 -10   36.91    8.62
   1 -11 -10   37.86    9.93
  -1  11   9   27.12    8.53
   1 -11  -9   42.55    8.35
   1 -11  -9   30.28    9.16
  -1  11   8    6.77    7.85
   1 -11  -8    7.67    7.26
   1 -11  -8   15.88    8.30
  -1  11   7  415.57   21.21
   1 -11  -7  415.66   21.12
   1 -11  -7  420.72   24.28
  -1  11   6   15.34    6.23
   1 -11  -6   17.73    6.54
  -1  11   5  141.91   10.11
   1 -11  -5  145.11    9.34
   1 -11  -5  147.59   11.60
  -1  11   4  201.02   11.55
   1 -11  -4  215.95   12.05
   1 -11  -4  236.12   15.30
  -1  11   3 1632.51   71.07
   1 -11  -3 1728.17   75.22
   1 -11  -3 1596.86   81.13
  -1  11   2   20.26    3.84
   1 -11  -2   17.28    5.96
   1 -11  -1   36.64    7.94
   1 -11   0   46.57    7.81
   1 -11   1   -5.46    6.68
   1 -11   2   68.90    9.30
  -1  11  -3   12.63    8.03
   1 -11   3   22.25    8.80
  -1  11  -4  526.12   23.60
  -1  11  -4  554.55   24.77
  -1  11  -4  537.40   30.73
   1 -11   4  599.22   33.66
  -1  11  -5    9.93    4.15
  -1  11  -5    4.74    8.57
   1 -11   5  -19.67    9.20
  -1  11  -6  617.27   28.38
  -1  11  -6  629.45   35.38
   1 -11   6  631.25   35.29
  -1  11  -7   19.94    6.14
  -1  11  -7   25.13    9.20
   1 -11   7    3.43   10.60
  -1  11  -8   16.24    7.04
  -1  11  -8   25.54    8.80
   1 -11   8   16.15   10.47
  -1  11  -9   -8.66    8.12
  -1  11  -9    4.69    9.39
   1 -11   9    4.60   11.64
  -1  11 -10   22.79    8.93
   1 -11  10   14.03    8.26
  -1  11 -10    3.38    9.20
   1 -11  10   10.11   11.69
  -1  11 -11   15.16    9.43
   1 -11  11    8.39    9.39
  -1  11 -11    8.35    9.75
   1 -11  11   13.90   11.64
  -1  11 -12   58.48   12.77
   1 -11  12   73.01   12.18
  -1  11 -12   68.13   10.83
   1 -11  12   71.43   13.49
  -1  10  14   80.27   10.11
   1 -10 -14   94.12   11.28
   1 -10 -14   72.38   14.26
  -1  10  13   11.01    8.30
   1 -10 -13  -13.67    8.35
   1 -10 -13   -0.68   10.24
  -1  10  12  114.20   10.92
   1 -10 -12  110.05   11.10
   1 -10 -12  118.99   13.99
  -1  10  11   -2.89    7.49
   1 -10 -11    6.72    8.17
   1 -10 -11   -1.22    8.57
  -1  10  10  109.01   10.24
   1 -10 -10   95.16   10.42
   1 -10 -10   78.69   10.83
  -1  10   9    2.03    7.94
   1 -10  -9    9.93    7.85
   1 -10  -9   12.72    8.84
  -1  10   8    6.36    7.17
   1 -10  -8   16.97    6.95
   1 -10  -8   -7.58    7.26
  -1  10   7  179.68   12.59
   1 -10  -7  208.06   13.00
   1 -10  -7  203.18   14.44
  -1  10   6  216.09   13.18
   1 -10  -6  205.12   12.86
   1 -10  -6  192.17   13.54
  -1  10   5    4.83    5.87
   1 -10  -5    0.05    5.23
  -1  10   4    3.38    5.05
   1 -10  -4    5.64    5.19
   1 -10  -4   -2.03    6.27
  -1  10   3  108.65    7.67
   1 -10  -3   89.88    6.77
   1 -10  -3  104.68    9.57
  -1  10   2    2.98    3.79
   1 -10  -2    8.17    6.99
  -1  10   1   13.40    3.20
   1 -10  -1   14.39    7.04
   1 -10   0    3.79    6.54
   1 -10   1   -3.43    7.85
   1 -10   2   41.02    8.17
  -1  10  -3  189.87    9.34
  -1  10  -3  207.56   10.15
  -1  10  -3  213.38   15.79
   1 -10   3  223.89   15.93
  -1  10  -4    0.72    3.52
  -1  10  -4    2.66    3.29
  -1  10  -4    1.76    8.03
   1 -10   4    2.57    8.44
  -1  10  -5  198.81   11.10
  -1  10  -5  219.02   15.39
   1 -10   5  188.93   15.52
  -1  10  -6  301.19   15.75
  -1  10  -6  323.84   20.26
   1 -10   6  325.24   21.34
  -1  10  -7   56.40    7.08
  -1  10  -7   82.75   10.96
   1 -10   7   73.28   11.64
  -1  10  -8    1.35    6.45
   1 -10   8    8.89    6.45
  -1  10  -8  -11.69    9.43
   1 -10   8  -11.15    9.52
  -1  10  -9   42.23    8.39
   1 -10   9   28.83    7.26
  -1  10  -9   35.51   10.92
   1 -10   9   35.06   10.74
  -1  10 -10   -1.35    8.08
   1 -10  10   -0.68    7.40
  -1  10 -10   -5.60    9.11
   1 -10  10    8.30   11.19
  -1  10 -11   92.05   10.24
   1 -10  11   50.31    9.48
  -1  10 -11   96.24   11.69
   1 -10  11   77.97   12.68
  -1  10 -12  190.28   13.99
   1 -10  12  202.46   14.03
  -1  10 -12  200.43   16.29
   1 -10  12  181.16   15.07
  -1  10 -13   30.77   11.05
   1 -10  13   10.02    9.43
  -1  10 -13   13.45    9.88
   1 -10  13   30.86   10.96
  -1   9  14   -1.08    8.44
   1  -9 -14   11.28    8.30
   1  -9 -14   -1.13   12.63
  -1   9  13   38.35    9.20
   1  -9 -13   50.04    8.44
   1  -9 -13   55.05   11.55
  -1   9  12   12.45    8.57
   1  -9 -12   28.25    9.07
   1  -9 -12   12.14   10.74
  -1   9  11   -2.89    7.85
   1  -9 -11    1.17    7.81
   1  -9 -11    3.11    8.75
  -1   9  10   43.95    8.80
   1  -9 -10    6.90    8.26
   1  -9 -10   22.20    9.43
  -1   9   9   61.68    8.89
   1  -9  -9   71.65    9.20
   1  -9  -9   92.41   10.83
  -1   9   8 2046.73   90.20
   1  -9  -8 1902.34   84.15
   1  -9  -8 2031.84  102.79
  -1   9   7  884.39   40.79
   1  -9  -7  856.41   40.11
   1  -9  -7  848.29   45.03
  -1   9   6  625.84   29.78
   1  -9  -6  605.99   28.92
   1  -9  -6  602.38   32.71
  -1   9   5    0.23    5.82
   1  -9  -5    5.87    5.05
  -1   9   4  416.93   20.49
   1  -9  -4  379.43   18.55
  -1   9   3    0.09    4.56
   1  -9  -3    7.40    4.38
   1  -9  -3   -4.74    6.41
  -1   9   2    1.76    3.93
   1  -9  -2   -1.67    3.70
   1  -9  -2   -2.53    6.68
  -1   9   1   69.62    5.14
   1  -9  -1   81.94    8.93
  -1   9   0   62.04    4.24
  -1   9   0   52.21    3.97
   1  -9   0   48.33    7.40
  -1   9  -1  415.53   18.55
  -1   9  -1  426.45   19.04
   1  -9   1  411.06   23.55
  -1   9  -2   67.59    4.65
  -1   9  -2   71.16    4.56
  -1   9  -2   60.96    8.35
   1  -9   2   57.71    9.25
  -1   9  -3   24.68    7.81
   1  -9   3   28.47    8.08
  -1   9  -4   -2.98    3.84
  -1   9  -4   -8.44    6.50
   1  -9   4   10.51    8.98
  -1   9  -5 1065.78   47.24
  -1   9  -5 1035.55   54.10
   1  -9   5 1144.74   60.19
  -1   9  -6  224.62   12.95
   1  -9   6  224.26   12.32
  -1   9  -6  226.47   16.38
   1  -9   6  219.79   17.19
  -1   9  -7    6.99    6.36
   1  -9   7    6.32    5.23
  -1   9  -7   -6.81    9.39
   1  -9   7    8.57   10.96
  -1   9  -8   -0.72    6.50
   1  -9   8    1.44    6.05
  -1   9  -8    8.71   10.02
   1  -9   8   -5.41   10.51
  -1   9  -9    9.34    6.77
   1  -9   9    2.17    6.63
  -1   9  -9    3.43   10.11
   1  -9   9   -5.37   10.92
  -1   9 -10   17.87    8.21
   1  -9  10   14.80    7.85
  -1   9 -10   -1.94    9.48
   1  -9  10   17.28   10.92
  -1   9 -11   43.50    9.52
   1  -9  11   46.11    8.84
  -1   9 -11   28.07   10.83
   1  -9  11   77.25   13.09
  -1   9 -12   -1.44    7.99
   1  -9  12   11.37    8.89
  -1   9 -12    6.00    9.88
   1  -9  12    1.17   11.28
  -1   9 -13   32.80   10.20
   1  -9  13   51.98   10.24
  -1   9 -13   61.19   11.64
   1  -9  13   78.74   12.77
  -1   8  15   31.54    9.61
   1  -8 -15   33.57    9.66
   1  -8 -15   39.30   12.86
  -1   8  14  208.15   14.12
   1  -8 -14  176.52   13.22
   1  -8 -14  193.62   17.06
  -1   8  13   11.87    8.39
   1  -8 -13   12.59    8.44
   1  -8 -13    4.96   10.78
  -1   8  12   21.52    8.66
   1  -8 -12   21.75    8.39
   1  -8 -12   15.84   10.24
  -1   8  11  109.56   10.92
   1  -8 -11  113.26   10.78
   1  -8 -11  122.60   12.77
  -1   8  10   80.32    9.52
   1  -8 -10   83.93    9.97
   1  -8 -10   49.41    9.34
  -1   8   9  452.12   23.78
   1  -8  -9  405.51   21.52
   1  -8  -9  412.59   24.10
  -1   8   8    8.93    7.76
   1  -8  -8   11.87    7.99
   1  -8  -8    0.14    7.26
  -1   8   7  610.05   29.55
   1  -8  -7  608.24   29.33
   1  -8  -7  584.33   31.95
  -1   8   6 1089.24   49.32
   1  -8  -6 1113.61   50.45
   1  -8  -6 1095.11   56.72
  -1   8   5  672.77   31.54
   1  -8  -5  625.84   29.24
  -1   8   4   -6.50    4.65
   1  -8  -4   11.15    5.55
  -1   8   3  302.86   15.48
   1  -8  -3  327.00   15.93
  -1   8   2  610.05   27.66
   1  -8  -2  614.11   27.75
   1  -8  -2  629.45   33.48
  -1   8   1  247.09   12.05
   1  -8  -1  268.61   16.56
  -1   8   0  330.65   15.16
  -1   8   0  357.95   16.33
   1  -8   0  378.53   21.43
  -1   8  -1   76.03    4.74
  -1   8  -1   73.77    4.74
   1  -8   1   82.44    8.71
  -1   8  -2   31.50    3.65
  -1   8  -2   36.23    3.56
  -1   8  -2   25.09    7.35
   1  -8   2   24.46    7.35
  -1   8  -3   26.62    4.20
  -1   8  -3   29.60    6.99
   1  -8   3   26.17    8.62
  -1   8  -4 1081.12   47.65
  -1   8  -4 1029.23   53.74
   1  -8   4 1051.79   55.09
  -1   8  -5   -3.52    4.65
   1  -8   5    0.77    4.33
  -1   8  -5    7.67    8.35
   1  -8   5    4.83    8.62
  -1   8  -6  785.12   35.83
   1  -8   6  804.97   36.95
  -1   8  -6  815.35   44.04
   1  -8   6  825.28   44.63
  -1   8  -7   39.39    7.08
   1  -8   7   40.11    6.72
  -1   8  -7   24.91   10.83
   1  -8   7   23.82   10.38
  -1   8  -8   25.99    7.67
   1  -8   8   47.92    7.31
  -1   8  -8   21.66    9.88
   1  -8   8   31.81   11.10
  -1   8  -9   34.38    7.54
   1  -8   9   43.41    6.86
  -1   8  -9   48.51   10.11
   1  -8   9   40.34   11.64
  -1   8 -10    7.63    7.17
   1  -8  10    7.17    7.45
  -1   8 -10   19.40    9.16
   1  -8  10    9.34   10.65
  -1   8 -11   71.47    9.70
   1  -8  11   69.08    8.71
  -1   8 -11  100.31   12.63
   1  -8  11   63.80   12.36
  -1   8 -12    0.90    8.71
   1  -8  12    5.05    7.40
  -1   8 -12   -3.43   10.06
   1  -8  12   12.72   11.55
  -1   8 -13  105.68   11.46
   1  -8  13  118.31   12.36
  -1   8 -13   89.25   11.01
   1  -8  13  114.16   13.58
  -1   8 -14   -5.91    9.66
   1  -8  14    8.48    9.70
  -1   8 -14    5.32   10.92
   1  -8  14   -4.74   10.60
  -1   7  15  142.04   13.00
   1  -7 -15  116.87   11.46
   1  -7 -15  132.70   15.30
  -1   7  14   99.49   11.19
   1  -7 -14   86.72   10.47
   1  -7 -14   98.91   13.18
  -1   7  13   12.72    7.67
   1  -7 -13   12.32    8.80
   1  -7 -13   13.94    9.88
  -1   7  12  221.37   14.48
   1  -7 -12  206.03   14.57
   1  -7 -12  182.34   14.57
  -1   7  11   18.64    8.30
   1  -7 -11   16.15    8.98
   1  -7 -11   11.73    8.53
  -1   7  10  108.43   10.83
   1  -7 -10  115.87   10.92
   1  -7 -10  109.96   11.73
  -1   7   9   97.46   10.20
   1  -7  -9  103.01    9.97
   1  -7  -9  101.48   10.47
  -1   7   8  185.72   13.00
   1  -7  -8  225.88   14.35
   1  -7  -8  223.58   15.88
  -1   7   7 1711.47   75.89
   1  -7  -7 1688.46   74.99
   1  -7  -7 1803.07   91.46
  -1   7   6  939.44   43.00
   1  -7  -6  927.71   42.37
   1  -7  -6  914.62   47.74
  -1   7   5  325.33   17.24
   1  -7  -5  348.21   18.18
   1  -7  -5  347.35   20.30
  -1   7   4    0.95    5.50
   1  -7  -4   -5.41    5.19
  -1   7   3  905.60   40.61
   1  -7  -3  935.38   41.83
  -1   7   2  301.32   14.89
   1  -7  -2  305.52   14.89
   1  -7  -2  317.93   18.05
  -1   7   1  535.15   24.14
   1  -7  -1  459.34   20.89
   1  -7  -1  552.74   29.69
  -1   7   0   51.80    4.24
   1  -7   0   36.77    6.14
  -1   7  -1   42.91    3.70
  -1   7  -1   34.47    3.61
  -1   7  -1   35.83    6.63
   1  -7   1   37.18    7.58
  -1   7  -2   -0.41    3.07
  -1   7  -2    0.95    3.07
  -1   7  -2   -1.58    6.72
   1  -7   2   12.41    6.86
  -1   7  -3 1250.33   54.55
  -1   7  -3 1156.92   59.97
   1  -7   3 1152.41   59.61
  -1   7  -4    9.79    4.60
   1  -7   4   12.41    4.38
  -1   7  -4    8.44    7.85
   1  -7   4    5.41    7.81
  -1   7  -5   69.98    6.63
   1  -7   5   64.79    6.23
  -1   7  -5   90.15   10.38
   1  -7   5   76.80   10.15
  -1   7  -6  594.25   28.02
   1  -7   6  673.22   30.86
  -1   7  -6  601.02   33.35
   1  -7   6  632.16   35.15
  -1   7  -7   66.55    7.81
   1  -7   7   65.97    6.90
  -1   7  -7   57.85    9.57
   1  -7   7   67.32   10.42
  -1   7  -8    1.35    6.72
   1  -7   8   -6.23    6.81
  -1   7  -8   16.29    9.30
   1  -7   8   12.23   10.11
  -1   7  -9   24.95    7.63
   1  -7   9   27.84    8.44
  -1   7  -9   34.07   10.02
   1  -7   9   21.48   11.10
  -1   7 -10  117.81   11.19
   1  -7  10  136.54   10.74
  -1   7 -10  108.11   13.49
   1  -7  10  135.82   14.44
  -1   7 -11   13.49    7.49
   1  -7  11   23.55    7.17
  -1   7 -11    9.07    9.97
   1  -7  11   25.54   10.56
  -1   7 -12  382.63   21.07
   1  -7  12  380.20   20.26
  -1   7 -12  440.93   26.58
   1  -7  12  368.87   23.60
  -1   7 -13   12.50    8.53
   1  -7  13   34.38    8.57
  -1   7 -13   31.72    9.93
   1  -7  13    8.48   11.01
  -1   7 -14   68.31   10.47
   1  -7  14   82.71   10.69
  -1   7 -14   69.04   11.91
   1  -7  14   88.26   12.45
   1  -7  15   15.75   11.05
  -1   7 -15   11.01   10.42
  -1   6  15   27.57    9.88
   1  -6 -15   41.24    9.57
   1  -6 -15   55.59   12.95
  -1   6  14  104.64   11.15
   1  -6 -14   96.97   11.28
   1  -6 -14   88.98   12.54
  -1   6  13   69.17    9.97
   1  -6 -13   95.52   10.47
   1  -6 -13   39.66   10.60
  -1   6  12   16.29    8.44
   1  -6 -12   22.25    9.11
   1  -6 -12   19.49    9.84
  -1   6  11   51.89    9.30
   1  -6 -11   68.18   10.20
   1  -6 -11   32.89    9.39
  -1   6  10  118.44   11.78
   1  -6 -10  117.59   11.64
   1  -6 -10  105.63   11.28
  -1   6   9   35.38    8.26
   1  -6  -9   38.67    9.07
   1  -6  -9   33.03    8.84
  -1   6   8  969.67   44.90
   1  -6  -8 1002.16   46.34
   1  -6  -8 1004.86   52.57
  -1   6   7   19.45    7.26
   1  -6  -7   39.48    7.90
   1  -6  -7   14.03    7.31
  -1   6   6  800.91   37.23
   1  -6  -6  764.36   35.65
   1  -6  -6  809.03   42.60
  -1   6   5   48.15    7.22
   1  -6  -5   66.46    7.85
   1  -6  -5   62.40    7.85
  -1   6   4    6.95    5.55
   1  -6  -4    2.62    5.55
  -1   6   3    9.52    4.87
   1  -6  -3    7.67    4.47
  -1   6   2    3.38    4.38
   1  -6  -2    4.78    4.42
  -1   6   1  123.36    7.40
   1  -6  -1  115.74    7.22
   1  -6  -1  108.88    8.93
  -1   6   0  484.61   21.84
   1  -6   0  471.07   25.63
  -1   6  -1 2818.31  120.97
  -1   6  -1 2996.09  128.55
  -1   6  -1 2793.94  139.43
   1  -6   1 2718.59  135.73
  -1   6  -2  689.46   30.55
  -1   6  -2  637.12   34.29
   1  -6   2  616.36   33.03
  -1   6  -3  827.08   36.77
  -1   6  -3  759.85   39.98
   1  -6   3  779.25   41.38
  -1   6  -4    8.66    4.96
   1  -6   4    1.80    3.84
  -1   6  -4   10.96    6.77
   1  -6   4   18.73    8.08
  -1   6  -5 3993.73  171.82
   1  -6   5 4013.14  173.04
  -1   6  -5 3878.22  193.17
   1  -6   5 4042.47  201.60
  -1   6  -6    5.05    5.64
   1  -6   6   -1.99    5.10
  -1   6  -6    3.93    7.54
   1  -6   6   -3.20    8.66
  -1   6  -7   12.68    6.18
   1  -6   7   16.42    6.81
  -1   6  -7    5.19    7.49
   1  -6   7   26.76    9.25
  -1   6  -8   -4.83    6.59
   1  -6   8   -7.76    5.73
  -1   6  -8   -5.64    8.71
   1  -6   8   -7.63    9.97
  -1   6  -9   55.23    8.71
   1  -6   9   64.93    8.12
  -1   6  -9   48.60   11.15
   1  -6   9   41.06   10.96
  -1   6 -10   12.14    7.67
   1  -6  10    9.97    7.22
  -1   6 -10    2.62    9.79
   1  -6  10   10.83   10.83
  -1   6 -11   76.71    9.93
   1  -6  11   71.11    9.52
  -1   6 -11   82.30   11.64
   1  -6  11   85.19   13.36
  -1   6 -12  190.87   13.63
   1  -6  12  230.21   14.57
  -1   6 -12  236.75   17.73
   1  -6  12  227.14   18.05
  -1   6 -13  113.53   12.18
   1  -6  13  124.99   11.42
  -1   6 -13  110.68   12.59
   1  -6  13  120.79   13.54
  -1   6 -14  153.50   12.68
  -1   6 -14  140.64   13.04
  -1   6 -15   -4.11    8.39
   1  -6  15   22.83    8.89
  -1   6 -15   -3.02   10.06
   1  -6  15    6.81   11.73
  -1   5  16   76.03   10.74
   1  -5 -16   72.69   10.87
   1  -5 -16   77.34   12.68
  -1   5  15   15.43    9.02
   1  -5 -15   13.40    8.35
   1  -5 -15   27.84   11.46
  -1   5  14    7.99    7.45
   1  -5 -14   18.27    9.70
   1  -5 -14   26.98   11.05
  -1   5  13  167.85   13.31
   1  -5 -13  138.84   12.59
   1  -5 -13  137.67   13.49
  -1   5  12   14.85    8.62
   1  -5 -12    4.69    8.66
   1  -5 -12    2.80    9.11
  -1   5  11   68.00    9.57
   1  -5 -11   84.42   10.51
   1  -5 -11   71.52   10.96
  -1   5  10   38.53    9.79
   1  -5 -10   31.54    9.16
   1  -5 -10   25.13    8.48
  -1   5   9  265.27   15.97
   1  -5  -9  267.30   16.20
   1  -5  -9  248.67   17.10
  -1   5   8   55.50    8.84
   1  -5  -8   56.58    9.02
   1  -5  -8   51.71    8.48
  -1   5   7  876.27   40.70
   1  -5  -7  892.96   41.20
   1  -5  -7  851.90   44.85
  -1   5   6  134.01   10.29
   1  -5  -6  131.39   10.20
   1  -5  -6  152.87   11.64
  -1   5   5   33.93    7.04
   1  -5  -5   37.95    7.35
   1  -5  -5   27.98    6.77
  -1   5   4   34.88    6.41
   1  -5  -4   29.37    6.23
   1  -5  -4   36.77    6.90
  -1   5   3  399.69   19.54
   1  -5  -3  444.04   21.57
  -1   5   2  220.51   11.64
   1  -5  -2  202.24   10.83
  -1   5   1   58.61    5.41
   1  -5  -1   62.67    5.19
   1  -5  -1   50.85    6.50
  -1   5   0  386.96   17.73
   1  -5   0  363.50   20.26
  -1   5  -1    9.79    3.29
  -1   5  -1   11.24    3.34
  -1   5  -1    6.54    6.09
   1  -5   1    5.28    6.45
  -1   5  -2 1246.27   54.19
  -1   5  -2 1258.00   63.76
   1  -5   2 1227.31   62.63
  -1   5  -3   17.96    4.29
   1  -5   3   19.09    4.65
  -1   5  -3   13.00    6.59
   1  -5   3   25.67    7.40
  -1   5  -4 1023.81   45.48
   1  -5   4 1005.31   44.40
  -1   5  -4  995.39   51.53
   1  -5   4  989.07   51.53
  -1   5  -5  517.55   24.59
   1  -5   5  511.23   24.05
  -1   5  -5  494.99   27.89
   1  -5   5  511.23   28.74
  -1   5  -6 2079.67   90.74
   1  -5   6 2144.64   93.31
  -1   5  -6 2090.04  105.49
   1  -5   6 2108.09  106.85
  -1   5  -7   37.77    6.86
   1  -5   7   36.95    7.26
  -1   5  -7   21.61    8.66
   1  -5   7   31.27    9.34
  -1   5  -8  119.30    9.93
   1  -5   8  127.74   10.51
  -1   5  -8  143.35   13.22
   1  -5   8  117.23   12.23
  -1   5  -9   -5.32    7.17
   1  -5   9   -5.32    7.35
  -1   5  -9    5.19    9.39
   1  -5   9   -6.14   10.56
  -1   5 -10    9.84    7.76
   1  -5  10   19.22    7.94
  -1   5 -10   22.38    9.70
   1  -5  10   -0.59   10.92
  -1   5 -11  223.98   14.35
   1  -5  11  249.52   15.21
  -1   5 -11  237.79   17.87
   1  -5  11  255.21   19.58
  -1   5 -12   13.36    8.03
   1  -5  12   23.15    7.40
  -1   5 -12    6.95   10.24
   1  -5  12   14.30   11.10
  -1   5 -13  237.34   14.98
   1  -5  13  216.40   14.17
  -1   5 -13  205.67   16.15
   1  -5  13  235.72   17.91
  -1   5 -14   12.72    8.98
   1  -5  14   33.44    8.62
  -1   5 -14   18.50    9.79
   1  -5  14   19.58   11.01
  -1   5 -15  180.58   12.45
   1  -5  15  154.77   12.41
  -1   5 -15  156.30   14.12
   1  -5  15  184.73   16.33
  -1   4  16    4.29   10.38
   1  -4 -16    3.34    9.25
   1  -4 -16   35.51   11.15
  -1   4  15    1.90    8.89
   1  -4 -15  -12.18    8.30
   1  -4 -15   -5.64   10.78
  -1   4  14  269.87   16.11
   1  -4 -14  272.27   17.01
   1  -4 -14  294.10   19.76
  -1   4  13  -10.56    8.44
   1  -4 -13   -8.93    7.63
   1  -4 -13    0.18    9.25
  -1   4  12   12.59    9.11
   1  -4 -12   12.45    9.25
   1  -4 -12   -4.38    9.66
  -1   4  11   72.01    9.84
   1  -4 -11   57.44   10.24
   1  -4 -11   78.33   11.05
  -1   4  10  209.86   15.25
   1  -4 -10  188.25   13.94
   1  -4 -10  199.17   15.39
  -1   4   9  131.49   11.10
   1  -4  -9  152.83   12.23
   1  -4  -9  161.90   13.36
  -1   4   8   10.83    7.40
   1  -4  -8    9.43    7.63
   1  -4  -8   11.55    8.26
  -1   4   7 1019.75   46.66
   1  -4  -7 1003.51   45.75
   1  -4  -7 1047.28   54.42
  -1   4   6   50.09    8.08
   1  -4  -6   47.24    7.81
   1  -4  -6   51.98    7.63
  -1   4   5  106.98    9.16
   1  -4  -5  104.68    9.57
   1  -4  -5  109.69    9.97
  -1   4   4  104.14    8.89
   1  -4  -4   93.00    8.21
   1  -4  -4  106.89    9.02
  -1   4   3  769.33   35.10
   1  -4  -3  770.23   35.10
  -1   4   2    7.22    5.28
   1  -4  -2    2.39    4.83
  -1   4   1   82.08    6.41
   1  -4  -1   79.96    6.23
  -1   4   0  615.91   27.43
   1  -4   0  625.84   32.53
  -1   4  -1   38.49    4.20
  -1   4  -1   52.48    6.86
   1  -4   1   45.35    7.31
  -1   4  -2  823.47   36.37
  -1   4  -2  844.23   43.81
   1  -4   2  794.14   41.42
  -1   4  -3    0.14    4.42
   1  -4   3    2.84    4.69
  -1   4  -3    4.96    6.63
   1  -4   3    7.31    6.72
  -1   4  -4  636.22   29.19
   1  -4   4  578.01   26.94
  -1   4  -4  554.10   30.77
   1  -4   4  532.89   29.42
  -1   4  -5  192.08   11.64
   1  -4   5  193.39   11.82
  -1   4  -5  173.00   13.22
   1  -4   5  177.42   13.67
  -1   4  -6 1190.31   53.29
   1  -4   6 1248.52   55.68
  -1   4  -6 1179.03   61.28
   1  -4   6 1174.52   61.05
  -1   4  -7   49.27    7.54
   1  -4   7   41.65    7.08
  -1   4  -7   58.39   10.06
   1  -4   7   36.95    9.52
  -1   4  -8    6.90    6.90
   1  -4   8   11.55    6.09
  -1   4  -8    2.44    8.12
   1  -4   8   27.66    9.39
  -1   4  -9   13.40    7.40
   1  -4   9    7.85    6.27
  -1   4  -9   -4.24    8.71
   1  -4   9    2.12    9.16
  -1   4 -10   45.21    8.98
   1  -4  10   36.91    8.98
  -1   4 -10   45.89    9.93
   1  -4  10   58.97   11.64
  -1   4 -11   77.70    9.66
   1  -4  11  101.98   10.96
  -1   4 -11  105.09   12.90
   1  -4  11  104.10   13.45
  -1   4 -12   94.03   10.42
   1  -4  12  121.51   11.51
  -1   4 -12   92.77   12.81
   1  -4  12   89.61   13.76
  -1   4 -13  380.11   20.71
   1  -4  13  416.70   22.25
  -1   4 -13  396.17   24.46
   1  -4  13  400.32   24.91
  -1   4 -14  216.81   14.94
   1  -4  14  196.60   13.40
  -1   4 -14  230.93   17.15
   1  -4  14  187.39   16.74
  -1   4 -15   -0.54    8.17
   1  -4  15   -5.50    7.85
  -1   4 -15    7.13    9.11
   1  -4  15   24.41    9.75
  -1   4 -16    9.02    9.57
   1  -4  16   16.11    8.93
  -1   4 -16    7.17    9.34
   1  -4  16   -7.54   10.15
  -1   3  16   18.73    8.89
   1  -3 -16   25.85    9.39
   1  -3 -16   19.31   11.37
  -1   3  15   69.04   10.11
   1  -3 -15   78.47   10.38
   1  -3 -15   46.52   11.33
  -1   3  14    0.27    9.43
   1  -3 -14    1.31    8.84
   1  -3 -14   36.59   10.15
  -1   3  13    9.88    7.76
   1  -3 -13   12.81    8.93
  -1   3  13   16.60   10.11
   1  -3 -13   22.56   10.20
  -1   3  12    9.48    8.30
   1  -3 -12   -5.37    8.75
  -1   3  12    1.17    9.79
   1  -3 -12   -1.17    9.88
  -1   3  11   -8.71    8.53
   1  -3 -11   -0.90    8.08
  -1   3  11   -2.98    9.57
   1  -3 -11    8.17    9.61
  -1   3  10   63.13    9.48
   1  -3 -10   61.50    9.34
  -1   3  10   63.04   11.05
   1  -3 -10   69.98   10.78
  -1   3   9    9.25    7.85
   1  -3  -9   22.34    8.35
  -1   3   9   22.06    9.43
   1  -3  -9   18.68    8.44
  -1   3   8 1958.29   86.54
   1  -3  -8 2041.76   90.11
  -1   3   8 2087.34  105.99
   1  -3  -8 2098.17  106.08
  -1   3   7    3.34    7.04
   1  -3  -7   -5.32    6.99
  -1   3   7  -10.33    7.99
   1  -3  -7   13.49    7.22
  -1   3   6 1325.68   59.56
   1  -3  -6 1265.22   56.94
  -1   3   6 1357.72   69.49
   1  -3  -6 1299.06   66.33
  -1   3   5   15.21    7.31
   1  -3  -5    4.56    6.68
  -1   3   5   20.62    6.77
   1  -3  -5    8.98    7.04
  -1   3   4  439.80   22.02
   1  -3  -4  470.17   23.06
   1  -3  -4  450.81   24.73
  -1   3   3  329.52   16.97
   1  -3  -3  338.87   17.51
   1  -3  -3  341.98   18.91
  -1   3   2  864.99   38.90
   1  -3  -2  814.90   36.73
  -1   3   1  277.18   14.08
   1  -3  -1  274.75   13.94
  -1   3   0  194.61   10.20
   1  -3   0  207.11   10.56
   1  -3   0  195.38   11.60
  -1   3  -1  472.43   21.48
  -1   3  -1  488.22   25.63
   1  -3   1  471.97   25.22
  -1   3  -2  154.23    8.84
   1  -3   2  164.20    9.20
  -1   3  -2  166.18   11.91
   1  -3   2  175.70   12.54
  -1   3  -3  275.65   14.30
   1  -3   3  285.49   14.75
  -1   3  -3  281.42   17.01
   1  -3   3  297.49   18.09
  -1   3  -4    9.52    5.32
   1  -3   4    7.54    5.14
  -1   3  -4    2.03    7.22
   1  -3   4   11.87    7.58
  -1   3  -5  120.66    9.11
   1  -3   5  127.79    9.16
  -1   3  -5  130.45   11.15
   1  -3   5  120.93   11.15
  -1   3  -6  138.12    9.97
   1  -3   6  149.71   10.51
  -1   3  -6  144.03   12.05
   1  -3   6  124.63   11.64
  -1   3  -7   87.04    8.75
   1  -3   7   87.81    9.30
  -1   3  -7   89.16    9.93
   1  -3   7   84.29   10.69
  -1   3  -8  124.81   10.06
   1  -3   8  121.33   10.02
  -1   3  -8  109.78   11.46
   1  -3   8  110.46   12.05
  -1   3  -9  158.74   11.60
   1  -3   9  168.58   11.82
  -1   3  -9  154.72   13.90
   1  -3   9  156.17   14.85
  -1   3 -10   29.06    7.85
   1  -3  10   23.06    7.72
  -1   3 -10   35.69   10.51
   1  -3  10   21.93   11.05
  -1   3 -11   43.54    9.25
   1  -3  11   59.15    9.20
  -1   3 -11   35.42   10.74
   1  -3  11   48.55   12.14
  -1   3 -12  248.22   15.34
   1  -3  12  218.71   14.12
  -1   3 -12  252.59   17.96
   1  -3  12  278.90   20.30
  -1   3 -13  124.72   11.33
   1  -3  13  125.62   11.10
  -1   3 -13  131.35   13.72
   1  -3  13  113.98   15.03
  -1   3 -14  136.81   12.14
   1  -3  14  139.38   11.60
  -1   3 -14  125.21   13.22
   1  -3  14  152.92   15.03
  -1   3 -15   -8.35    8.75
   1  -3  15    8.93    7.40
  -1   3 -15   -7.26    9.39
   1  -3  15    5.05    9.84
  -1   3 -16    0.18    8.44
   1  -3  16   21.34    7.99
  -1   3 -16    8.44    9.88
   1  -3  16   17.46   10.51
  -1   2  16   40.52    9.97
   1  -2 -16   47.47   10.06
   1  -2 -16   42.05   11.05
  -1   2  15  107.16   11.05
   1  -2 -15   88.21   11.05
  -1   2  15   86.99   12.23
   1  -2 -15   98.37   11.42
  -1   2  14    3.52    6.95
   1  -2 -14  -28.16    9.25
  -1   2  14    2.12    9.48
   1  -2 -14   -8.12    9.57
  -1   2  13   45.80    9.61
   1  -2 -13   39.35    9.16
  -1   2  13   41.69   10.92
   1  -2 -13   29.55   10.69
  -1   2  12   28.79    9.61
   1  -2 -12   25.45    9.70
  -1   2  12   28.52   11.19
   1  -2 -12   13.99    8.98
  -1   2  11   93.18   11.51
   1  -2 -11  110.10   10.42
  -1   2  11   96.74   13.13
   1  -2 -11  105.36   12.45
  -1   2  10    7.67    8.89
   1  -2 -10   14.44    7.26
  -1   2  10   21.66    9.20
   1  -2 -10   -2.66    9.48
  -1   2   9  499.50   25.49
   1  -2  -9  450.90   23.24
  -1   2   9  503.56   29.06
   1  -2  -9  546.43   31.00
  -1   2   8  688.11   33.30
   1  -2  -8  688.56   32.76
  -1   2   8  759.85   41.83
   1  -2  -8  691.27   37.41
  -1   2   7  362.96   19.63
   1  -2  -7  389.54   20.76
  -1   2   7  374.15   22.38
   1  -2  -7  406.77   23.51
  -1   2   6  673.67   32.22
   1  -2  -6  685.85   32.67
  -1   2   6  677.73   36.55
   1  -2  -6  694.43   37.05
  -1   2   5  183.69   12.36
   1  -2  -5  239.91   13.85
  -1   2   5  243.30   15.43
   1  -2  -5  253.09   15.88
  -1   2   4  199.71   12.72
   1  -2  -4  164.97   11.10
  -1   2   4  165.24   12.05
   1  -2  -4  185.54   12.77
  -1   2   3  868.14   39.30
   1  -2  -3  855.51   39.08
  -1   2   3  827.53   42.78
   1  -2  -3  858.67   44.13
  -1   2   2  818.51   37.14
   1  -2  -2  812.19   36.82
   1  -2  -2  772.94   39.35
  -1   2   1   38.31    5.78
   1  -2  -1   38.71    5.60
  -1   2   0 2660.38  114.02
   1  -2   0 2591.80  111.09
  -1   2   0 2595.41  128.33
   1  -2   0 2588.64  128.01
  -1   2  -1  394.82   18.09
  -1   2  -1  385.61   20.62
   1  -2   1  375.10   19.99
  -1   2  -2 2934.72  126.16
   1  -2   2 2852.60  122.60
  -1   2  -2 2808.38  139.56
   1  -2   2 2847.19  141.55
  -1   2  -3  469.72   22.52
   1  -2   3  407.41   19.72
  -1   2  -3  425.23   23.96
   1  -2   3  448.60   25.09
  -1   2  -4 1876.17   81.81
   1  -2   4 1732.23   75.89
  -1   2  -4 1603.63   81.08
   1  -2   4 1681.24   85.01
  -1   2  -5   17.82    6.54
   1  -2   5   21.30    6.50
  -1   2  -5   21.84    8.98
   1  -2   5   35.87    8.62
  -1   2  -6  296.27   16.02
   1  -2   6  282.24   15.21
  -1   2  -6  292.84   18.50
   1  -2   6  324.52   20.35
  -1   2  -7  402.04   20.71
   1  -2   7  390.76   20.21
  -1   2  -7  386.06   23.06
   1  -2   7  394.00   23.78
  -1   2  -8  181.57   12.72
   1  -2   8  181.57   12.63
  -1   2  -8  184.05   14.62
   1  -2   8  194.34   15.25
  -1   2  -9  668.71   32.13
   1  -2   9  656.52   32.08
  -1   2  -9  671.86   37.18
   1  -2   9  604.18   34.16
  -1   2 -10   11.28    7.72
   1  -2  10   -7.22    7.81
  -1   2 -10    1.13    9.11
   1  -2  10   -0.63   10.24
  -1   2 -11  305.16   18.09
   1  -2  11  284.99   18.00
  -1   2 -11  305.70   20.71
   1  -2  11  343.29   23.64
  -1   2 -12   85.73    9.97
   1  -2  12   79.50   10.87
  -1   2 -12   72.06   11.55
   1  -2  12   84.92   13.85
  -1   2 -13  329.98   18.50
   1  -2  13  342.75   19.31
  -1   2 -13  331.78   21.88
   1  -2  13  358.54   23.37
  -1   2 -14   40.79    9.57
   1  -2  14   27.75    8.75
  -1   2 -14   33.66   10.11
   1  -2  14   63.89   12.14
  -1   2 -15    5.55    8.26
   1  -2  15   38.13    8.12
  -1   2 -15   21.61   10.11
   1  -2  15   34.70   10.87
  -1   2 -16   41.29    9.43
   1  -2  16   18.32    8.53
  -1   2 -16   40.61    9.88
   1  -2  16   45.35   11.19
  -1   1  16   83.43   11.19
   1  -1 -16   95.97   12.18
  -1   1  16  102.56   13.13
   1  -1 -16  104.01   12.50
  -1   1  15   -0.81    7.26
   1  -1 -15   -8.62    9.48
  -1   1  15   -3.29   10.92
   1  -1 -15   -2.71    9.66
  -1   1  14  137.08   12.23
   1  -1 -14  118.44   11.60
  -1   1  14  126.57   14.17
   1  -1 -14  119.08   12.41
  -1   1  13   15.16    8.26
   1  -1 -13    8.89    8.75
  -1   1  13   12.18   10.83
   1  -1 -13   47.51   10.65
  -1   1  12    2.44    8.21
   1  -1 -12    7.04    8.93
  -1   1  12    0.54   10.42
   1  -1 -12   -1.31    9.30
  -1   1  11    4.20    7.90
   1  -1 -11   -1.17    8.35
  -1   1  11    0.86    9.52
   1  -1 -11    3.47   10.02
  -1   1  10   -3.52    8.80
   1  -1 -10    4.92    7.17
  -1   1  10    6.27    9.84
   1  -1 -10    0.77    9.34
  -1   1   9 1053.14   48.46
   1  -1  -9 1046.83   48.05
  -1   1   9  994.03   52.97
   1  -1  -9 1086.08   57.17
  -1   1   8   31.00    8.21
   1  -1  -8   41.51    7.99
  -1   1   8   43.36    9.70
   1  -1  -8   38.26    8.89
  -1   1   7 2295.35  100.31
   1  -1  -7 2293.09  100.53
  -1   1   7 2007.47  101.84
   1  -1  -7 2468.16  123.90
  -1   1   6  190.91   13.09
   1  -1  -6  180.17   12.27
  -1   1   6  181.21   14.35
   1  -1  -6  190.87   13.63
  -1   1   5  543.72   26.94
   1  -1  -5  485.51   23.87
  -1   1   5  411.47   23.69
   1  -1  -5  520.25   28.65
  -1   1   4  294.96   16.56
   1  -1  -4  310.71   16.83
  -1   1   4  308.99   18.36
   1  -1  -4  331.96   19.36
  -1   1   3    2.57    7.04
   1  -1  -3    8.66    7.04
  -1   1   3    3.61    6.81
   1  -1  -3    6.59    6.77
  -1   1   2  120.25    9.25
   1  -1  -2  143.85   10.42
  -1   1   2  146.33   10.29
   1  -1  -2  145.38   10.15
  -1   1   1    9.25    5.23
   1  -1  -1    9.75    4.92
  -1   1   1    8.26    3.47
   1  -1  -1    9.39    3.34
  -1   1   0  801.82   34.97
   1  -1   0  817.61   35.60
   1  -1   0  774.74   38.58
  -1   1  -1  375.50   17.15
  -1   1  -1  389.85   20.26
   1  -1   1  397.52   20.58
  -1   1  -2  866.34   38.35
   1  -1   2  913.72   40.34
  -1   1  -2  897.47   45.84
   1  -1   2  923.19   47.02
  -1   1  -3 7679.74  328.53
   1  -1   3 7693.27  329.16
  -1   1  -3 7224.01  357.09
   1  -1   3 7174.37  354.57
  -1   1  -4 4139.93  178.01
   1  -1   4 4188.21  180.26
  -1   1  -4 3960.34  196.91
   1  -1   4 4225.21  209.91
  -1   1  -5   81.76    8.80
   1  -1   5  106.26    9.07
  -1   1  -5  105.90   11.15
   1  -1   5  100.53   10.33
  -1   1  -6 1182.64   53.11
   1  -1   6 1167.30   52.43
  -1   1  -6 1093.75   56.54
   1  -1   6 1098.27   57.21
  -1   1  -7   -1.04    6.90
   1  -1   7    1.40    6.95
  -1   1  -7   -7.99    8.21
   1  -1   7   -5.50    8.26
  -1   1  -8  742.71   35.42
   1  -1   8  758.95   35.65
  -1   1  -8  692.62   37.63
   1  -1   8  738.19   40.29
  -1   1  -9   20.30    7.85
   1  -1   9   19.04    7.04
  -1   1  -9    7.08    8.12
   1  -1   9   26.22    9.75
  -1   1 -10    7.40    6.68
   1  -1  10   10.20    7.26
  -1   1 -10   13.45    9.39
   1  -1  10   11.15   10.11
  -1   1 -11  223.85   15.07
   1  -1  11  242.94   15.52
  -1   1 -11  233.37   17.78
   1  -1  11  223.40   17.78
  -1   1 -12  159.73   12.32
   1  -1  12  155.53   12.14
  -1   1 -12  180.31   15.75
   1  -1  12  142.77   14.17
  -1   1 -13  220.96   14.57
   1  -1  13  254.58   15.57
  -1   1 -13  191.09   15.16
   1  -1  13  227.23   17.37
  -1   1 -14   67.68   10.06
   1  -1  14   65.70    8.53
  -1   1 -14   65.47   10.92
   1  -1  14   61.00   11.87
  -1   1 -15   38.40    7.67
   1  -1  15   32.40    9.25
  -1   1 -15   26.08   10.15
   1  -1  15   35.10   10.42
  -1   1 -16    4.24    8.21
   1  -1  16   12.36    8.03
  -1   1 -16    7.58    9.30
   1  -1  16   10.96   10.56
  -1   0  16   47.15   10.15
   1   0 -16   42.05    9.25
  -1   0  16   51.94   11.73
   1   0 -16   51.44   11.01
  -1   0  15    3.47    8.84
   1   0 -15   12.86    9.43
  -1   0  15   17.91   11.55
   1   0 -15    3.97    9.57
  -1   0  14   76.62    9.39
   1   0 -14   74.00   10.96
  -1   0  14   79.01   12.77
   1   0 -14   84.11   11.91
  -1   0  13   -6.14    8.39
   1   0 -13    1.31    8.53
  -1   0  13   12.72   10.02
   1   0 -13    6.41    8.84
  -1   0  12    0.86    8.48
   1   0 -12   11.15    8.48
  -1   0  12  -11.64   10.24
   1   0 -12    2.21    9.43
  -1   0  11   12.14    8.57
   1   0 -11    0.27    8.57
  -1   0  11   -2.84   11.01
   1   0 -11    5.41    9.48
  -1   0  10  332.82   19.04
   1   0 -10  271.72   16.92
  -1   0  10  315.49   21.30
   1   0 -10  346.31   21.88
  -1   0   9  144.53   12.05
   1   0  -9  179.58   12.50
  -1   0   9  202.37   16.33
   1   0  -9  157.25   13.72
  -1   0   8 1604.53   71.79
   1   0  -8 1501.65   67.23
  -1   0   8 1547.68   79.41
   1   0  -8 1514.29   77.56
  -1   0   7   95.70    9.11
   1   0  -7   99.81    9.25
  -1   0   7   87.72   11.24
   1   0  -7   99.00   10.29
  -1   0   6  513.04   25.18
   1   0  -6  509.88   25.09
  -1   0   6  495.44   27.98
   1   0  -6  499.05   27.84
  -1   0   5   11.19    6.81
   1   0  -5   17.37    7.13
  -1   0   5   11.87    7.85
   1   0  -5   14.89    7.35
  -1   0   4  457.08   22.70
   1   0  -4  469.27   23.24
  -1   0   4  509.43   28.16
   1   0  -4  466.56   25.85
  -1   0   3   97.82    9.70
   1   0  -3   71.29    8.84
  -1   0   3   78.02    8.80
   1   0  -3   90.20    9.75
  -1   0   2  862.28   38.80
   1   0  -2  901.99   40.34
  -1   0   2  860.92   44.04
   1   0  -2  852.35   43.72
  -1   0   1 3150.41  135.05
   1   0  -1 3273.14  140.28
  -1   0   1 3403.54  168.08
   1   0  -1 2823.72  139.65
  -1   0   0  684.05   29.83
   1   0   0  722.40   31.45
  -1   0   0  750.38   37.32
   1   0   0  716.99   35.69
  -1   0  -2  407.54   19.04
   1   0   2  407.72   19.04
  -1   0  -2  387.60   21.07
   1   0   2  420.13   22.25
  -1   0  -3 4846.09  208.01
   1   0   3 4787.43  205.39
  -1   0  -3 4710.72  233.37
   1   0   3 4141.28  205.44
  -1   0  -4 3941.84  169.84
   1   0   4 3496.04  151.02
  -1   0  -4 3711.27  184.50
   1   0   4 4190.92  208.24
  -1   0  -5 2900.43  125.75
   1   0   5 2893.66  125.57
  -1   0  -5 2764.16  138.25
   1   0   5 3132.36  156.57
  -1   0  -6  788.28   36.64
   1   0   6  781.96   35.96
  -1   0  -6  749.47   39.84
   1   0   6  700.74   37.99
  -1   0  -7   -7.22    6.77
   1   0   7    3.20    6.77
  -1   0  -7   13.99    8.17
   1   0   7    3.61    8.84
  -1   0  -8   13.72    7.58
   1   0   8   16.79    7.26
  -1   0  -8   19.13    8.35
   1   0   8   19.67    9.25
  -1   0  -9   -0.36    6.50
   1   0   9    5.96    7.54
  -1   0  -9   -2.12    8.21
   1   0   9   -7.26    9.16
  -1   0 -10   91.55   10.33
   1   0  10  104.82   11.15
  -1   0 -10  109.74   12.50
   1   0  10   99.31   11.96
  -1   0 -11   51.62    8.80
   1   0  11   43.50    9.30
  -1   0 -11   47.15   10.65
   1   0  11   37.00   10.92
  -1   0 -12  456.63   24.10
   1   0  12  471.07   24.77
  -1   0 -12  414.08   25.27
   1   0  12  473.33   28.61
  -1   0 -13   -3.70    8.44
   1   0  13    4.74    7.90
  -1   0 -13   -1.44    9.52
   1   0  13   -6.14   10.83
  -1   0 -14  279.67   17.01
   1   0  14  291.13   17.78
  -1   0 -14  262.74   17.96
   1   0  14  267.48   19.00
  -1   0 -15    4.29    7.99
   1   0  15    6.32    6.99
  -1   0 -15    3.61    9.07
   1   0  15   -3.52   10.11
  -1   0 -16   49.45    9.79
   1   0  16   59.92    8.71
  -1   0 -16   66.92   10.60
   1   0  16   46.43   11.05
  -1   0 -17    3.02    9.39
   1   0  17    1.76    7.90
  -1   0 -17    1.99   10.15
   1   0  17    8.35   11.05
  -1  -1  16   17.06    8.44
   1   1 -16   22.88    8.80
  -1  -1  16   18.23   10.78
   1   1 -16   18.68   10.02
  -1  -1  15   60.42   10.11
   1   1 -15   81.63   10.74
  -1  -1  15   71.47   12.68
   1   1 -15   75.53   11.19
  -1  -1  14  -17.42    8.44
   1   1 -14   -6.00    9.11
  -1  -1  14   -1.26   10.11
   1   1 -14   12.27    9.66
  -1  -1  13   -2.53    7.81
   1   1 -13    3.16    8.80
  -1  -1  13   -0.68   10.65
   1   1 -13    5.23    9.48
  -1  -1  12   39.48    8.80
   1   1 -12   18.41    8.84
  -1  -1  12    4.69   11.64
   1   1 -12   27.12    9.48
  -1  -1  11   14.85    9.25
   1   1 -11   -9.70    8.21
  -1  -1  11  -12.27   11.10
   1   1 -11   -4.60    9.34
  -1  -1  10    1.90    8.48
   1   1 -10    5.28    7.49
  -1  -1  10   14.75   10.33
   1   1 -10    1.94    9.30
  -1  -1   9  393.91   20.67
   1   1  -9  411.47   21.97
  -1  -1   9  406.01   24.86
   1   1  -9  441.83   26.04
  -1  -1   8  441.61   22.70
   1   1  -8  452.57   23.24
  -1  -1   8  449.41   26.76
   1   1  -8  411.83   24.28
  -1  -1   7  115.60    9.70
   1   1  -7  126.52   10.33
  -1  -1   7  126.84   12.23
   1   1  -7  130.94   12.05
  -1  -1   6  526.57   26.13
   1   1  -6  585.68   28.25
  -1  -1   6  592.90   32.76
   1   1  -6  564.93   31.13
  -1  -1   5   29.33    7.63
   1   1  -5   37.27    6.59
  -1  -1   5   31.00    8.44
   1   1  -5   35.87    8.17
  -1  -1   4  172.95   11.24
   1   1  -4  188.38   11.73
  -1  -1   4  177.42   13.22
   1   1  -4  187.71   13.40
  -1  -1   3  142.40   10.33
   1   1  -3  154.68   10.74
  -1  -1   3  164.29   12.68
   1   1  -3  179.00   13.31
  -1  -1   2 2745.66  118.31
   1   1  -2 2589.09  111.77
  -1  -1   2 2765.52  137.71
   1   1  -2 2656.32  132.34
  -1  -1   1 1111.80   48.46
   1   1  -1 1191.22   51.80
  -1  -1   1 1148.80   57.85
   1   1  -1 1189.86   59.92
  -1  -1   0 1956.93   83.84
   1   1   0 1951.97   83.57
  -1  -1   0 1995.29   98.91
   1   1   0 1890.61   93.76
  -1  -1  -1  839.72   36.41
   1   1   1  839.27   36.41
  -1  -1  -2 2172.62   93.67
   1   1   2 2448.76  105.40
  -1  -1  -3 1369.00   60.15
   1   1   3 1318.01   58.16
  -1  -1  -3 1357.26   68.72
   1   1   3 1451.12   73.41
   1   1   4 1024.27   46.11
   1   1   4 1087.89   56.09
  -1  -1  -5  555.00   26.94
   1   1   5  495.44   24.32
  -1  -1  -5  484.16   27.12
   1   1   5  479.65   26.89
  -1  -1  -6   12.86    6.99
   1   1   6    6.05    6.72
  -1  -1  -6   12.90    7.94
   1   1   6   13.81    8.21
  -1  -1  -7  711.57   33.66
   1   1   7  742.25   35.10
  -1  -1  -7  761.66   40.88
   1   1   7  702.55   38.13
  -1  -1  -8   -7.35    7.49
   1   1   8   -0.18    6.59
  -1  -1  -8   18.05    8.17
   1   1   8    7.04    8.26
  -1  -1  -9  614.56   29.78
   1   1   9  577.56   28.20
  -1  -1  -9  575.30   32.40
   1   1   9  558.16   31.90
  -1  -1 -10   35.29    8.71
   1   1  10   35.10    7.26
  -1  -1 -10   42.19    9.93
   1   1  10   38.04   10.74
  -1  -1 -11  530.18   27.16
   1   1  11  567.18   28.34
  -1  -1 -11  466.11   27.48
   1   1  11  500.85   29.74
  -1  -1 -12   88.21   10.38
   1   1  12   64.66    8.84
  -1  -1 -12   68.54   10.92
   1   1  12   65.83   12.54
  -1  -1 -13  587.49   29.01
   1   1  13  586.13   28.88
  -1  -1 -13  613.66   34.43
   1   1  13  605.08   34.52
  -1  -1 -14   91.19   10.69
   1   1  14   76.26    9.61
  -1  -1 -14  118.04   12.23
   1   1  14   92.64   13.09
  -1  -1 -15    0.86    8.62
   1   1  15   -2.66    7.58
  -1  -1 -15    7.45    9.02
   1   1  15    0.50    9.48
  -1  -1 -16    8.80    9.43
   1   1  16   14.80    7.63
  -1  -1 -16    9.57    9.88
   1   1  16   -0.09   10.51
  -1  -1 -17    6.09    9.30
   1   1  17   14.12    8.57
  -1  -1 -17   11.33   10.24
  -1  -2  15   17.28    8.57
   1   2 -15   18.91    9.84
  -1  -2  15   -0.99   10.38
   1   2 -15    0.36    9.48
  -1  -2  14    9.11    9.11
   1   2 -14   -2.62    8.89
  -1  -2  14   -1.90   10.51
   1   2 -14    4.15    9.93
  -1  -2  13  126.12   10.83
   1   2 -13  123.63   11.96
  -1  -2  13  127.20   14.48
   1   2 -13  155.22   14.39
  -1  -2  12   17.73    8.57
   1   2 -12   17.46    8.53
  -1  -2  12   20.35   11.37
   1   2 -12   -1.71    9.43
  -1  -2  11   67.19   10.11
   1   2 -11   92.54   10.96
  -1  -2  11   55.23   11.73
   1   2 -11   69.76   11.01
  -1  -2  10   19.31    8.93
   1   2 -10   23.01    8.21
  -1  -2  10   29.01   11.10
   1   2 -10   26.58    9.39
  -1  -2   9  636.22   31.40
   1   2  -9  618.62   30.19
  -1  -2   9  559.51   32.26
   1   2  -9  588.39   33.16
  -1  -2   8   33.16    8.30
   1   2  -8   52.21    8.35
  -1  -2   8   34.70    9.75
   1   2  -8   39.71    9.48
  -1  -2   7 1079.77   49.41
   1   2  -7 1041.86   47.42
  -1  -2   7 1033.74   54.42
   1   2  -7 1122.18   58.48
  -1  -2   6   51.89    7.67
   1   2  -6   55.05    7.90
  -1  -2   6   62.04    9.97
   1   2  -6   55.14    9.34
  -1  -2   5 1601.83   70.57
   1   2  -5 1597.76   70.39
  -1  -2   5 1644.69   83.70
   1   2  -5 1646.50   83.52
  -1  -2   4  650.66   30.28
   1   2  -4  652.01   30.32
  -1  -2   4  661.03   35.92
   1   2  -4  631.71   34.16
  -1  -2   3 3308.33  142.81
   1   2  -3 3189.66  137.53
  -1  -2   3 3380.08  168.39
   1   2  -3 3290.74  163.84
  -1  -2   2   24.59    5.55
   1   2  -2   24.23    5.91
  -1  -2   2   39.35    8.93
   1   2  -2   40.56    7.76
  -1  -2   1  386.38   17.78
   1   2  -1  384.93   17.73
  -1  -2   1  369.77   21.16
   1   2  -1  382.54   21.34
  -1  -2   0 6086.94  300.60
  -1  -2  -1 1482.70   63.76
   1   2   1 1429.91   61.46
  -1  -2  -3 1555.35   68.18
   1   2   3 1658.23   72.51
  -1  -2  -4   66.37    7.45
   1   2   4   91.24    8.62
  -1  -2  -4   63.89    8.75
  -1  -2  -5  252.23   14.62
   1   2   5  245.69   14.62
  -1  -2  -5  247.72   16.33
   1   2   5  273.39   17.28
  -1  -2  -6  745.41   34.70
   1   2   6  715.18   33.39
  -1  -2  -6  745.86   39.71
   1   2   6  764.36   40.79
  -1  -2  -7   52.93    8.57
   1   2   7   50.13    8.35
  -1  -2  -7   33.30    9.16
   1   2   7   38.13    8.48
  -1  -2  -8  409.35   21.61
   1   2   8  406.14   21.52
  -1  -2  -8  415.48   24.55
   1   2   8  411.42   24.82
  -1  -2  -9  182.74   12.90
   1   2   9  180.31   13.04
  -1  -2  -9  174.89   13.76
   1   2   9  190.55   15.25
  -1  -2 -10   12.14    8.17
   1   2  10    6.81    7.22
  -1  -2 -10   -8.80    9.02
   1   2  10    5.05    9.66
  -1  -2 -11  385.93   21.43
   1   2  11  369.59   20.98
  -1  -2 -11  357.18   22.65
   1   2  11  384.44   24.59
  -1  -2 -12  252.32   16.06
   1   2  12  233.64   15.16
  -1  -2 -12  255.30   18.14
   1   2  12  248.80   18.50
  -1  -2 -13  202.42   14.08
   1   2  13  185.99   13.94
  -1  -2 -13  201.69   15.39
   1   2  13  214.51   16.92
  -1  -2 -14   44.26    8.30
   1   2  14   56.09   10.02
  -1  -2 -14   52.84   10.47
   1   2  14   60.28   10.92
  -1  -2 -15  201.24   14.08
   1   2  15  221.95   13.94
  -1  -2 -15  172.32   14.85
  -1  -2 -16   24.23    8.03
   1   2  16   27.80    7.94
  -1  -2 -16   19.27    9.75
  -1  -2 -17   26.62    9.79
   1   2  17   28.38    7.45
  -1  -2 -17   44.76   11.46
  -1  -3  15   -2.93    8.75
   1   3 -15   -1.90    9.11
  -1  -3  15  -14.39   10.69
   1   3 -15   16.15   10.42
  -1  -3  14   46.79    9.25
   1   3 -14   54.91    9.16
  -1  -3  14   56.45   11.87
   1   3 -14   71.25   11.10
  -1  -3  13    2.26    8.53
   1   3 -13    6.45    7.81
  -1  -3  13    8.80    9.48
   1   3 -13    9.39   10.06
  -1  -3  12   -0.27    8.84
   1   3 -12  -10.11    8.53
  -1  -3  12    7.08   11.05
   1   3 -12    3.29    9.93
  -1  -3  11  -14.71    8.12
   1   3 -11    2.84    8.35
  -1  -3  11    7.45   10.42
   1   3 -11    6.90    9.61
  -1  -3  10  122.91   11.19
   1   3 -10  134.33   11.73
  -1  -3  10  126.30   14.17
   1   3 -10  102.92   12.72
  -1  -3   9  186.58   12.50
   1   3  -9  190.23   13.58
  -1  -3   9  230.21   17.82
   1   3  -9  252.01   18.00
  -1  -3   8  245.69   14.57
   1   3  -8  240.86   14.62
  -1  -3   8  258.41   18.14
   1   3  -8  319.64   20.40
  -1  -3   7   31.31    7.22
   1   3  -7   51.84    7.81
  -1  -3   7   44.63    9.93
   1   3  -7   63.40    9.48
  -1  -3   6   44.04    7.67
   1   3  -6   52.88    7.63
  -1  -3   6   56.54    9.34
   1   3  -6   59.15    9.20
  -1  -3   5  110.14    9.48
   1   3  -5  100.17    8.57
  -1  -3   5  115.06   11.24
   1   3  -5  123.00   11.42
  -1  -3   4  805.88   36.46
   1   3  -4  798.21   36.19
  -1  -3   4  792.79   42.14
   1   3  -4  759.85   40.38
  -1  -3   3    7.72    5.28
   1   3  -3   -3.97    4.74
  -1  -3   3    9.02    8.21
   1   3  -3   -0.18    7.22
  -1  -3   2   10.06    4.60
   1   3  -2    8.53    4.65
  -1  -3   2   20.03    8.26
   1   3  -2   13.27    7.31
  -1  -3   1 1954.23   84.06
   1   3  -1 1780.96   76.66
  -1  -3   1 1763.81   88.94
   1   3  -1 1780.06   89.75
  -1  -3   0  190.23    8.62
  -1  -3   0  183.19   12.90
   1   3   0  186.22   12.90
  -1  -3  -1  930.86   40.20
   1   3   1 1035.55   44.72
  -1  -3  -2  766.17   33.98
   1   3   2  754.89   33.57
  -1  -3  -3    5.32    6.09
   1   3   3    5.60    5.50
  -1  -3  -4    3.16    6.05
   1   3   4    9.07    5.78
  -1  -3  -4    9.97    7.81
  -1  -3  -5   42.91    7.26
   1   3   5   41.74    7.26
  -1  -3  -5   37.18    8.03
  -1  -3  -6  143.35   10.11
   1   3   6  131.98   10.02
  -1  -3  -6  156.21   12.50
  -1  -3  -7   98.14    9.61
   1   3   7   84.83    9.25
  -1  -3  -7   94.98   10.24
  -1  -3  -8 1317.56   59.34
   1   3   8 1293.19   58.48
  -1  -3  -8 1292.74   66.69
  -1  -3  -9    5.46    6.45
   1   3   9   -2.89    6.14
  -1  -3  -9    9.93    8.44
  -1  -3 -10   31.09    7.72
   1   3  10   39.66    8.30
  -1  -3 -10   23.51    9.79
  -1  -3 -11   42.41    8.35
   1   3  11   47.83    9.25
  -1  -3 -11   57.80   10.38
  -1  -3 -12  844.68   39.93
   1   3  12  884.84   41.56
  -1  -3 -12  891.61   47.69
  -1  -3 -13   43.45    8.93
   1   3  13   33.98    7.85
  -1  -3 -13   27.48    9.66
  -1  -3 -14  184.32   13.54
   1   3  14  181.34   13.58
  -1  -3 -14  200.48   15.39
  -1  -3 -15    3.29    7.63
   1   3  15   -1.44    8.30
  -1  -3 -15   -6.27   10.06
  -1  -3 -16   12.45    7.67
   1   3  16   -5.73    8.62
  -1  -3 -16   15.43   10.65
  -1  -3 -17    2.71    8.26
   1   3  17    9.34    7.22
  -1  -3 -17   -0.72   11.10
  -1  -4  15   24.77    8.39
   1   4 -15   28.47    9.88
  -1  -4  15   33.62   12.14
   1   4 -15   35.60   10.02
  -1  -4  14    5.82    8.89
   1   4 -14   -8.39    9.30
  -1  -4  14    0.86   11.10
   1   4 -14    4.42    9.30
  -1  -4  13   22.70    7.99
   1   4 -13    7.45    9.16
  -1  -4  13   34.79   10.96
   1   4 -13   25.76   10.96
  -1  -4  12    0.32    7.58
   1   4 -12   -3.34    7.76
  -1  -4  12   -4.96   10.78
   1   4 -12   -4.42    9.43
  -1  -4  11   22.83    9.11
   1   4 -11   29.06    9.02
  -1  -4  11   26.49   11.96
   1   4 -11   26.67    9.88
  -1  -4  10   -0.18    8.62
   1   4 -10   -1.04    7.94
  -1  -4  10    9.25   10.96
   1   4 -10    6.09   10.11
  -1  -4   9  278.36   17.60
   1   4  -9  277.09   16.79
  -1  -4   9  258.77   18.77
   1   4  -9  299.29   20.08
  -1  -4   8  513.94   25.54
   1   4  -8  531.99   26.22
  -1  -4   8  489.57   28.83
   1   4  -8  506.27   29.10
  -1  -4   7  192.17   12.14
   1   4  -7  182.92   12.27
  -1  -4   7  211.80   16.02
   1   4  -7  204.76   15.61
  -1  -4   6  304.84   16.15
   1   4  -6  302.90   16.29
  -1  -4   6  298.53   19.36
   1   4  -6  288.96   19.00
  -1  -4   5    9.43    5.55
   1   4  -5   10.02    6.05
  -1  -4   5    7.99    7.99
   1   4  -5    9.88    8.53
  -1  -4   4  221.86   12.45
   1   4  -4  220.47   12.50
  -1  -4   4  204.90   14.89
   1   4  -4  200.03   14.71
  -1  -4   3    3.93    4.83
   1   4  -3   14.62    4.87
  -1  -4   3    3.11    7.40
   1   4  -3   17.73    7.99
  -1  -4   2  181.07    9.48
   1   4  -2  148.86    8.26
  -1  -4   2  162.30   12.54
   1   4  -2  168.58   12.41
  -1  -4   1  333.99   15.07
   1   4  -1  336.29   15.21
  -1  -4   1  331.56   19.58
   1   4  -1  356.28   20.76
  -1  -4   0 8713.03  430.51
  -1  -4  -1   42.10    3.07
   1   4   1   37.95    2.89
  -1  -4  -2  131.12    7.31
   1   4   2  130.63    7.58
  -1  -4  -3  127.79    8.39
   1   4   3  124.36    8.17
  -1  -4  -4   22.83    5.82
   1   4   4   10.29    5.37
  -1  -4  -5    3.75    6.36
   1   4   5   10.69    5.87
  -1  -4  -5   11.15    7.45
  -1  -4  -6    2.89    6.68
   1   4   6    8.89    6.27
  -1  -4  -6   26.26    7.31
  -1  -4  -7  247.99   14.98
   1   4   7  264.68   15.21
  -1  -4  -7  262.20   17.51
  -1  -4  -8   31.22    7.94
   1   4   8   36.41    7.76
  -1  -4  -8   45.48    9.02
  -1  -4  -9  467.01   24.10
   1   4   9  480.10   24.77
  -1  -4  -9  496.34   28.52
  -1  -4 -10    8.08    8.08
   1   4  10    6.18    6.63
  -1  -4 -10   17.96    8.75
  -1  -4 -11  592.00   29.69
   1   4  11  599.22   30.28
  -1  -4 -11  585.23   32.89
  -1  -4 -12   -5.37    8.26
   1   4  12    3.20    8.89
  -1  -4 -12    6.86    9.25
  -1  -4 -13   92.36   10.02
   1   4  13   84.74   10.74
  -1  -4 -13   81.17   11.19
  -1  -4 -14  225.47   14.89
   1   4  14  225.16   14.57
  -1  -4 -14  286.07   19.18
  -1  -4 -15    7.72    7.22
   1   4  15    8.48    8.21
  -1  -4 -15   -3.20    9.52
  -1  -4 -16   31.27    8.26
   1   4  16   41.24   10.60
  -1  -4 -16   39.71   11.05
  -1  -4 -17   13.40    9.25
   1   4  17    8.75    7.72
  -1  -4 -17   -3.02    9.97
  -1  -5  15   -0.05    9.30
   1   5 -15    9.97   10.42
  -1  -5  15   15.66   11.82
   1   5 -15   16.33   11.37
  -1  -5  14   -2.93    9.43
   1   5 -14    5.23    9.25
  -1  -5  14   15.61   10.65
   1   5 -14    2.12    9.75
  -1  -5  13  -20.03    8.80
   1   5 -13    7.85    9.02
  -1  -5  13   -9.16   10.29
   1   5 -13   -3.38   10.33
  -1  -5  12   -7.54    8.98
   1   5 -12   10.38    8.66
  -1  -5  12   -2.57   10.74
   1   5 -12    4.56    8.62
  -1  -5  11  466.11   24.14
   1   5 -11  386.96   21.39
  -1  -5  11  428.97   26.80
   1   5 -11  462.95   27.75
  -1  -5  10    7.26    7.45
   1   5 -10    4.78    8.03
  -1  -5  10   11.87   10.33
   1   5 -10    8.35    9.48
  -1  -5   9  550.49   27.48
   1   5  -9  494.54   25.22
  -1  -5   9  523.41   31.18
   1   5  -9  520.71   30.46
  -1  -5   8   62.76    9.11
   1   5  -8   50.31    8.44
  -1  -5   8   34.25   11.33
   1   5  -8   46.11   10.92
  -1  -5   7  724.21   34.20
   1   5  -7  730.07   34.16
  -1  -5   7  672.77   37.45
   1   5  -7  746.32   40.79
  -1  -5   6   35.69    6.72
   1   5  -6   31.68    6.72
  -1  -5   6   26.67    9.07
   1   5  -6   26.67    8.57
  -1  -5   5  391.48   19.45
   1   5  -5  365.71   18.36
  -1  -5   5  404.43   23.91
   1   5  -5  369.91   21.97
  -1  -5   4  174.53    9.88
   1   5  -4  193.48   10.92
  -1  -5   4  173.54   13.63
   1   5  -4  203.50   14.26
  -1  -5   3   18.00    4.38
   1   5  -3   21.52    4.56
  -1  -5   3    7.90    7.81
   1   5  -3   19.54    6.86
  -1  -5   2   11.78    3.52
   1   5  -2    6.23    3.34
  -1  -5   2   16.24    7.45
   1   5  -2    7.76    6.54
  -1  -5   1  186.94    8.75
   1   5  -1  187.17    8.75
  -1  -5   1  196.87   13.63
   1   5  -1  189.83   13.81
  -1  -5   0 9999.00  493.63
  -1  -5  -1 1993.03   86.59
   1   5   1 1943.40   84.29
  -1  -5  -1 1958.29   98.41
  -1  -5  -2 1331.09   57.58
   1   5   2 1343.73   58.16
  -1  -5  -3   25.18    4.65
   1   5   3   30.50    4.87
  -1  -5  -4  103.33    8.08
   1   5   4   94.35    7.54
  -1  -5  -5    9.20    5.87
   1   5   5   29.01    6.23
  -1  -5  -6  159.19   11.19
   1   5   6  168.08   11.24
  -1  -5  -6  178.23   12.90
  -1  -5  -7    7.58    6.95
   1   5   7    3.43    6.23
  -1  -5  -7   19.27    7.49
  -1  -5  -8   95.34    9.57
   1   5   8  107.53    9.88
  -1  -5  -8   92.09   11.05
  -1  -5  -9  600.12   29.87
   1   5   9  593.80   29.33
  -1  -5  -9  568.54   31.81
  -1  -5 -10   32.40    8.21
   1   5  10   15.34    7.72
  -1  -5 -10   35.74    9.57
  -1  -5 -11  172.86   13.00
   1   5  11  182.43   13.76
  -1  -5 -11  191.05   14.98
  -1  -5 -12    8.93    8.48
   1   5  12    8.17    8.21
  -1  -5 -12    7.13    9.93
  -1  -5 -13  251.15   16.06
   1   5  13  263.24   16.51
  -1  -5 -13  257.42   17.96
  -1  -5 -14  -20.53    8.89
   1   5  14   16.33    8.03
  -1  -5 -14   16.29    9.48
  -1  -5 -15    8.44    8.03
   1   5  15    7.76    8.44
  -1  -5 -15    9.75    9.93
  -1  -5 -16    0.45    7.76
   1   5  16    0.86    9.84
  -1  -5 -16   16.56   10.06
  -1  -6  14    7.13    9.52
   1   6 -14  -15.84    9.61
  -1  -6  14    8.80   10.83
   1   6 -14    1.76   10.65
  -1  -6  13  -12.68    9.02
   1   6 -13    3.38    8.98
  -1  -6  13  -12.00    9.66
   1   6 -13    2.21    9.39
  -1  -6  12   14.94    9.11
   1   6 -12   31.95   10.06
  -1  -6  12   26.26   10.69
   1   6 -12   40.38   10.92
  -1  -6  11   64.66    8.84
   1   6 -11   84.96   10.60
  -1  -6  11   63.80   12.59
   1   6 -11   68.49   11.19
  -1  -6  10   65.25    9.11
   1   6 -10   57.21    9.16
  -1  -6  10   42.82   11.33
   1   6 -10   72.78   11.82
  -1  -6   9  182.61   13.49
   1   6  -9  187.84   12.90
  -1  -6   9  173.00   15.97
   1   6  -9  176.74   14.94
  -1  -6   8  264.46   15.43
   1   6  -8  315.85   17.69
  -1  -6   8  316.76   21.84
   1   6  -8  327.13   21.34
  -1  -6   7  370.68   18.77
   1   6  -7  452.12   22.70
  -1  -6   7  442.42   27.12
   1   6  -7  371.22   22.65
  -1  -6   6  161.36   10.83
   1   6  -6  152.47   10.20
  -1  -6   6  145.25   13.85
   1   6  -6  171.96   13.22
  -1  -6   5  100.89    8.62
   1   6  -5  104.23    8.03
  -1  -6   5  101.52   11.51
   1   6  -5  119.35   11.69
  -1  -6   4   -1.13    4.56
   1   6  -4    3.16    4.51
  -1  -6   4   -6.18    7.90
   1   6  -4   11.82    7.26
  -1  -6   3  123.45    7.31
   1   6  -3  110.82    6.99
  -1  -6   3  114.79   10.83
   1   6  -3  110.55   10.65
  -1  -6   2   89.30    5.23
   1   6  -2   90.38    5.41
  -1  -6   2   79.59    9.43
   1   6  -2   83.75    9.79
   1   6  -1 4260.40  190.96
  -1  -6   1 4161.59  206.97
   1   6  -1 4079.92  202.91
  -1  -6   0   39.93    7.58
  -1  -6  -1 3638.17  181.12
  -1  -6  -2 2390.56  102.61
   1   6   2 2470.87  106.08
  -1  -6  -3 2375.21  102.38
   1   6   3 2309.79   99.58
  -1  -6  -4  155.49    9.34
   1   6   4  161.36    9.66
  -1  -6  -5   42.37    6.45
   1   6   5   27.70    5.91
  -1  -6  -6  305.57   16.60
   1   6   6  316.44   16.88
  -1  -6  -6  302.99   18.50
  -1  -6  -7    7.49    6.32
   1   6   7   18.95    6.77
  -1  -6  -7    5.32    7.94
  -1  -6  -8  667.80   32.17
   1   6   8  726.91   34.43
  -1  -6  -8  721.05   39.03
  -1  -6  -9   42.10    7.90
   1   6   9   52.03    8.35
  -1  -6  -9   57.62    9.70
  -1  -6 -10   68.13    9.43
   1   6  10   57.71    8.98
  -1  -6 -10   65.38    9.79
  -1  -6 -11  172.14   13.40
   1   6  11  182.88   13.18
  -1  -6 -11  164.56   13.58
  -1  -6 -12  622.68   30.64
   1   6  12  623.58   30.86
  -1  -6 -12  607.34   34.07
  -1  -6 -13   -7.72    8.39
   1   6  13    2.93    7.99
  -1  -6 -13   21.30   10.42
  -1  -6 -14   25.99    9.07
   1   6  14   15.70    8.44
  -1  -6 -14   38.31    9.97
  -1  -6 -15   -0.90    8.39
   1   6  15    8.08    8.48
  -1  -6 -15    6.27    9.34
  -1  -6 -16   33.07    9.97
   1   6  16   11.82    9.25
  -1  -6 -16   19.00   11.15
  -1  -7  14   -3.70    9.97
   1   7 -14   33.66   10.83
  -1  -7  14   18.68   10.51
   1   7 -14   21.66   11.10
  -1  -7  13   12.32    8.80
   1   7 -13    2.30    9.66
  -1  -7  13    2.21   10.74
   1   7 -13   32.49    9.88
  -1  -7  12   40.34    9.16
   1   7 -12   52.07   10.38
  -1  -7  12   30.68   10.87
   1   7 -12   43.45   10.20
  -1  -7  11   66.37    9.48
   1   7 -11   86.54   11.05
  -1  -7  11   76.48   11.73
   1   7 -11   85.64   11.24
  -1  -7  10    3.43    7.58
   1   7 -10   -7.99    8.35
  -1  -7  10   -2.98   10.47
   1   7 -10    4.51    9.39
  -1  -7   9   12.41    7.08
   1   7  -9   24.10    8.35
  -1  -7   9   10.87   10.33
   1   7  -9    6.05    9.88
  -1  -7   8  825.73   38.62
   1   7  -8  753.53   35.69
  -1  -7   8  769.33   42.32
   1   7  -8  790.99   42.69
  -1  -7   7   53.33    7.90
   1   7  -7   50.18    7.58
  -1  -7   7   54.96   11.42
   1   7  -7   56.81   10.51
  -1  -7   6  102.83    8.35
   1   7  -6   91.46    7.99
  -1  -7   6  104.28   12.50
   1   7  -6  109.74   11.64
  -1  -7   5  254.89   13.31
   1   7  -5  257.92   13.67
  -1  -7   5  263.83   18.23
   1   7  -5  254.44   17.24
  -1  -7   4  232.33   12.18
   1   7  -4  259.72   13.18
  -1  -7   4  247.04   17.06
   1   7  -4  267.75   18.05
  -1  -7   3   98.28    6.41
   1   7  -3  106.94    6.54
  -1  -7   3  104.01   10.65
   1   7  -3  103.33   10.06
  -1  -7   2  173.90    8.21
   1   7  -2  186.08    8.93
  -1  -7   2  198.81   14.44
   1   7  -2  194.34   14.03
  -1  -7   1  826.18   43.59
   1   7  -1  810.84   42.55
  -1  -7   0  744.96   39.57
  -1  -7  -1 4361.03  216.86
  -1  -7  -2  402.85   18.14
   1   7   2  372.71   16.79
  -1  -7  -2  389.04   22.38
  -1  -7  -3  310.48   14.66
   1   7   3  288.19   13.81
  -1  -7  -4   52.66    5.46
   1   7   4   46.11    5.60
  -1  -7  -5  494.08   23.55
   1   7   5  504.01   24.05
  -1  -7  -6    9.25    5.46
   1   7   6   13.90    5.82
  -1  -7  -7  397.93   20.53
   1   7   7  381.01   19.58
  -1  -7  -7  338.96   20.53
  -1  -7  -8   -5.69    6.14
   1   7   8    2.57    6.41
  -1  -7  -8    1.71    7.94
  -1  -7  -9  319.19   18.14
   1   7   9  312.56   17.73
  -1  -7  -9  326.95   20.35
  -1  -7 -10  136.45   11.05
   1   7  10  115.56   10.83
  -1  -7 -10   77.47   10.74
  -1  -7 -11  536.05   26.67
   1   7  11  508.07   25.72
  -1  -7 -11  556.80   31.72
  -1  -7 -12   74.63    9.70
   1   7  12   76.30    9.52
  -1  -7 -12   67.77   10.69
  -1  -7 -13   16.42    8.75
   1   7  13   39.08    9.30
  -1  -7 -13   36.19   10.24
  -1  -7 -14   76.62    9.25
   1   7  14   61.50    9.79
  -1  -7 -14   69.98   11.46
  -1  -7 -15    3.65    9.11
   1   7  15    0.32    8.71
  -1  -7 -15   -0.32   10.69
  -1  -7 -16  137.85   11.96
   1   7  16  106.98   11.05
  -1  -7 -16  122.24   14.26
  -1  -8  13   -3.65    8.89
   1   8 -13    7.58   10.38
  -1  -8  13   -2.84   10.92
   1   8 -13   -1.44   10.24
  -1  -8  12   32.17    9.34
   1   8 -12   12.95    9.11
  -1  -8  12    2.21   10.60
   1   8 -12   20.62    9.48
  -1  -8  11   15.61    8.44
   1   8 -11   42.46    9.25
  -1  -8  11   26.80   10.78
   1   8 -11   15.12    9.25
  -1  -8  10   13.76    8.03
   1   8 -10    6.50    8.75
  -1  -8  10   18.36   10.33
   1   8 -10   35.29   10.78
  -1  -8   9  203.68   13.54
   1   8  -9  166.95   12.63
  -1  -8   9  170.38   14.98
   1   8  -9  183.92   14.85
  -1  -8   8   15.79    6.81
   1   8  -8   23.37    7.90
  -1  -8   8   -9.79    9.43
   1   8  -8    2.17    9.11
  -1  -8   7  563.57   26.89
   1   8  -7  535.60   26.22
  -1  -8   7  521.16   30.64
   1   8  -7  537.85   31.13
  -1  -8   6   56.76    7.31
   1   8  -6   46.84    7.04
  -1  -8   6   62.49   11.64
   1   8  -6   58.34   10.51
  -1  -8   5  269.74   13.85
   1   8  -5  264.73   13.76
  -1  -8   5  263.02   17.87
   1   8  -5  261.84   17.42
  -1  -8   4  446.66   20.62
   1   8  -4  470.17   21.75
  -1  -8   4  465.21   27.21
   1   8  -4  464.30   26.08
  -1  -8   3    0.14    2.84
   1   8  -3    1.04    3.29
  -1  -8   3    3.75    8.17
   1   8  -3    3.07    7.81
   1   8  -2   13.13    1.71
  -1  -8   2   16.24    7.67
   1   8  -2    4.96    7.45
  -1  -8   1   81.85    9.84
  -1  -8   0 5861.33  290.63
  -1  -8  -1   80.99    9.07
  -1  -8  -2 1085.63   47.11
   1   8   2 1043.22   45.30
  -1  -8  -2 1045.47   54.33
  -1  -8  -3  249.61   12.18
   1   8   3  242.30   11.91
  -1  -8  -4  108.29    7.31
   1   8   4  110.73    7.45
  -1  -8  -5   30.91    5.55
   1   8   5   15.52    5.64
  -1  -8  -6  205.62   12.36
   1   8   6  227.91   13.27
  -1  -8  -7   17.91    6.18
   1   8   7   17.10    6.18
  -1  -8  -7   18.77    8.62
  -1  -8  -8   46.07    7.63
   1   8   8   32.98    7.26
  -1  -8  -8   36.10    8.80
  -1  -8  -9 1185.35   53.65
   1   8   9 1151.96   52.52
  -1  -8  -9 1137.97   59.38
  -1  -8 -10  312.69   17.87
   1   8  10  306.38   17.87
  -1  -8 -10  228.36   16.42
  -1  -8 -11   97.60   10.29
   1   8  11   80.99    9.57
  -1  -8 -11   91.19   11.01
  -1  -8 -12   20.76    8.12
   1   8  12   17.01    7.49
  -1  -8 -12   19.76    9.79
  -1  -8 -13  382.72   20.53
   1   8  13  361.06   19.99
  -1  -8 -13  361.34   22.97
  -1  -8 -14   -2.17    7.85
   1   8  14   -2.80    7.90
  -1  -8 -14   13.63    9.93
  -1  -8 -15   -0.72    9.02
   1   8  15   -6.00    7.35
  -1  -8 -15   10.65   11.51
  -1  -8 -16    6.86    8.84
   1   8  16    0.05    9.02
  -1  -8 -16    0.54   11.55
  -1  -9  13   19.67   10.69
   1   9 -13   15.39   12.63
  -1  -9  13    4.47   11.24
   1   9 -13   -3.11    8.62
  -1  -9  12   18.50    9.11
   1   9 -12   19.27   10.96
  -1  -9  12   33.30   11.10
   1   9 -12   12.50   10.06
  -1  -9  11   14.21    9.11
   1   9 -11    3.11    8.62
  -1  -9  11    5.73   10.56
   1   9 -11   17.78    8.89
  -1  -9  10   89.34    9.97
   1   9 -10   67.19    9.66
  -1  -9  10   83.07   12.50
   1   9 -10   67.46   11.51
  -1  -9   9   51.84    8.26
   1   9  -9   64.12    9.07
  -1  -9   9   64.39   10.96
   1   9  -9   61.37   10.47
  -1  -9   8  -10.74    6.09
   1   9  -8  -14.80    7.13
  -1  -9   8    0.81    9.93
   1   9  -8    6.95    9.70
  -1  -9   7  152.06   10.92
   1   9  -7  136.85   10.51
  -1  -9   7  117.27   13.22
   1   9  -7  137.58   13.40
  -1  -9   6   -3.34    4.69
   1   9  -6   -3.65    5.87
  -1  -9   6    7.13   10.24
   1   9  -6   -1.94    7.58
  -1  -9   5   32.98    5.32
   1   9  -5   24.05    5.32
  -1  -9   5   17.73    9.75
   1   9  -5   21.61    8.62
  -1  -9   4    6.32    3.93
   1   9  -4    9.30    3.84
  -1  -9   4    3.20    8.35
   1   9  -4    2.17    7.49
   1   9  -3  133.24    6.86
  -1  -9   3  144.53   12.77
   1   9  -3  137.67   12.00
  -1  -9   2   10.33    7.81
   1   9  -2   11.10    8.53
  -1  -9   1  390.66   22.92
  -1  -9   0  615.01   33.62
  -1  -9  -1  893.41   47.06
  -1  -9  -2  496.34   28.07
  -1  -9  -3   58.39    4.42
   1   9   3   50.67    4.38
  -1  -9  -3   50.72    8.03
  -1  -9  -4   20.12    4.20
   1   9   4   27.39    4.51
  -1  -9  -5   58.84    6.14
   1   9   5   47.33    6.09
  -1  -9  -6  114.16    8.75
   1   9   6  100.17    8.71
  -1  -9  -7   -4.83    5.82
   1   9   7    0.50    6.23
  -1  -9  -8  795.95   37.05
   1   9   8  745.86   34.83
  -1  -9  -8  751.28   40.61
  -1  -9  -9  346.76   19.04
   1   9   9  332.10   18.14
  -1  -9  -9  367.97   22.06
  -1  -9 -10    7.99    7.45
   1   9  10   -1.94    7.35
  -1  -9 -10   16.83    9.43
   1   9  11  709.32   33.66
  -1  -9 -12  754.89   35.74
   1   9  12  740.45   35.20
  -1  -9 -12  800.01   43.36
  -1  -9 -13   93.00   10.96
   1   9  13   96.29   10.24
  -1  -9 -13  109.96   12.23
  -1  -9 -14   16.15    8.66
   1   9  14   12.23    7.54
  -1  -9 -14   33.66   11.42
  -1  -9 -15   27.34    9.34
   1   9  15   61.46    9.52
  -1  -9 -15   22.83   10.83
  -1 -10  12   -2.30   10.38
   1  10 -12  -19.76   11.55
  -1 -10  12    5.69    9.88
   1  10 -12  -13.40    9.39
  -1 -10  11   -0.99    9.39
   1  10 -11   -0.32    9.70
  -1 -10  11   -0.27   10.74
   1  10 -11   13.22    9.43
  -1 -10  10  135.91   11.87
   1  10 -10  135.82   12.50
  -1 -10  10  136.18   14.21
   1  10 -10  116.82   12.77
  -1 -10   9   35.38    8.03
   1  10  -9   54.24    8.93
  -1 -10   9   26.53   10.78
   1  10  -9   43.72    9.52
  -1 -10   8  268.52   15.39
   1  10  -8  293.74   16.74
  -1 -10   8  290.86   19.81
   1  10  -8  340.81   21.79
  -1 -10   7   18.59    6.32
   1  10  -7   26.98    7.26
  -1 -10   7   20.89    9.84
   1  10  -7   22.47    9.25
  -1 -10   6   63.08    6.45
   1  10  -6   76.53    7.45
  -1 -10   6   58.88   11.42
   1  10  -6   71.88   10.42
  -1 -10   5   37.95    5.32
   1  10  -5   46.48    5.37
  -1 -10   5   54.37   10.96
   1  10  -5   39.48    9.20
   1  10  -4    3.52    3.25
  -1 -10   4    3.47    8.75
   1  10  -4    0.00    9.16
  -1 -10   3    4.29    7.99
   1  10  -3   11.91    7.90
  -1 -10   2   43.32    9.02
  -1 -10   1  139.88   12.45
  -1 -10   0  340.76   20.94
  -1 -10  -1 1167.30   60.51
  -1 -10  -2   -2.08    7.49
  -1 -10  -3   12.41    2.71
   1  10   3   10.06    2.75
  -1 -10  -3   16.06    7.26
  -1 -10  -4   -1.76    3.47
   1  10   4   -5.91    3.93
  -1 -10  -4   -2.48    6.63
  -1 -10  -5   80.05    6.81
   1  10   5   62.99    6.50
  -1 -10  -6  138.57    9.57
   1  10   6  132.03    9.30
  -1 -10  -7   17.01    6.45
   1  10   7   26.22    6.68
  -1 -10  -8  120.25    9.97
   1  10   8  116.91    9.97
  -1 -10  -8  104.14   10.83
  -1 -10  -9  164.97   12.09
   1  10   9  141.10   11.19
  -1 -10  -9  140.78   12.68
  -1 -10 -10   25.13    7.90
   1  10  10   38.71    7.90
  -1 -10 -10   26.26    9.75
  -1 -10 -11  126.75   11.19
   1  10  11  105.18    9.93
  -1 -10 -11  112.40   12.05
  -1 -10 -12   65.29    9.39
   1  10  12   66.19    9.20
  -1 -10 -12   35.60   10.11
  -1 -10 -13   49.95    8.71
   1  10  13   43.54    8.57
  -1 -10 -13   46.93   10.78
  -1 -10 -14   13.63    9.30
   1  10  14    1.90    8.08
  -1 -10 -14    9.34   10.38
  -1 -10 -15    2.17    9.48
   1  10  15    3.47    7.17
  -1 -10 -15    8.89    9.97
  -1 -11  11   96.70   13.13
   1  11 -11  127.47   14.17
  -1 -11  11  146.47   13.67
   1  11 -11  118.54   13.00
  -1 -11  10   11.87    9.66
   1  11 -10    6.18    8.89
  -1 -11  10   26.85   10.60
   1  11 -10   21.75    9.43
  -1 -11   9   28.56    8.84
   1  11  -9   55.32   10.06
  -1 -11   9   22.52   11.19
   1  11  -9   35.51    9.07
  -1 -11   8  123.45    9.57
   1  11  -8  132.57   11.42
  -1 -11   8  123.86   13.72
   1  11  -8  120.70   11.91
  -1 -11   7  195.56   11.96
   1  11  -7  176.83   11.24
  -1 -11   7  202.91   16.02
   1  11  -7  189.74   13.99
   1  11  -6   -5.41    5.01
  -1 -11   6    9.93    9.66
   1  11  -6   -3.52    8.53
   1  11  -5   13.63    3.97
  -1 -11   5   28.07    9.84
   1  11  -5   -3.75    8.71
  -1 -11   4  112.94   12.54
   1  11  -4   98.09   10.65
  -1 -11   3   -6.72    7.76
   1  11  -3    7.45    7.90
  -1 -11   2  469.27   27.21
  -1 -11   1  263.29   17.33
  -1 -11   0 1813.00   92.27
  -1 -11  -1  381.87   22.70
  -1 -11  -2  772.94   41.15
  -1 -11  -3   25.58    7.26
  -1 -11  -4   57.53    4.92
   1  11   4   67.73    5.37
  -1 -11  -4   67.64    9.30
  -1 -11  -5   50.90    5.82
   1  11   5   56.94    5.91
  -1 -11  -6   35.78    5.96
   1  11   6   33.16    6.14
  -1 -11  -7  943.95   42.82
   1  11   7  941.69   42.82
  -1 -11  -8  125.94   10.33
   1  11   8  119.57    9.48
  -1 -11  -8  108.07   10.69
  -1 -11  -9  327.36   18.32
   1  11   9  326.64   17.91
  -1 -11  -9  352.40   21.57
  -1 -11 -10   -3.25    7.58
   1  11  10    6.36    7.26
  -1 -11 -10    6.50    8.53
  -1 -11 -11   73.32    9.61
   1  11  11   61.86    8.93
  -1 -11 -11   62.63   10.06
  -1 -11 -12   -0.72    8.30
   1  11  12  -10.92    7.49
  -1 -11 -12    5.37    9.30
  -1 -11 -13    6.18    7.99
   1  11  13   10.29    8.35
  -1 -11 -13  -23.73   10.60
  -1 -11 -14   11.05   10.02
   1  11  14  -14.80    8.21
  -1 -11 -14    2.62   10.11
  -1 -12  10    9.84   10.06
   1  12 -10  -16.92   11.19
  -1 -12  10   13.40   10.83
   1  12 -10  -14.89    8.57
  -1 -12   9   96.15   10.74
   1  12  -9   63.53    9.79
  -1 -12   9   90.83   12.54
   1  12  -9   80.50   10.65
   1  12  -8   40.52    8.30
  -1 -12   8   42.96   11.60
   1  12  -8   27.03    9.61
   1  12  -7  106.35    8.80
  -1 -12   7  105.31   13.09
   1  12  -7  128.55   11.78
   1  12  -6    6.27    4.33
  -1 -12   6    4.38    9.79
   1  12  -6   12.27    9.25
  -1 -12   5   17.91    9.70
   1  12  -5   23.46    8.75
  -1 -12   4    4.15    8.44
   1  12  -4   -3.75    7.85
  -1 -12   3   52.75    9.79
  -1 -12   2   -0.59    7.58
  -1 -12   1  143.04   12.81
  -1 -12   0 1169.56   60.91
  -1 -12  -1  700.29   38.04
  -1 -12  -2   33.35    7.72
  -1 -12  -3  122.01   11.28
   1  12   4   32.17    3.47
  -1 -12  -4   35.96    8.12
  -1 -12  -5    7.40    4.69
   1  12   5    6.72    4.47
  -1 -12  -5  -10.47    7.45
  -1 -12  -6  161.31    9.93
   1  12   6  176.25   10.56
  -1 -12  -7   -7.35    5.91
   1  12   7   -0.63    5.96
  -1 -12  -8  158.83   11.64
   1  12   8  164.15   11.42
  -1 -12  -8  177.69   13.27
  -1 -12  -9  215.32   14.17
   1  12   9  222.59   13.94
  -1 -12  -9  211.03   15.52
  -1 -12 -10   23.78    8.89
   1  12  10   24.05    8.12
  -1 -12 -10   21.34    9.70
  -1 -12 -11   31.18    8.71
   1  12  11   24.10    8.48
  -1 -12 -11   12.77    9.79
  -1 -12 -12   26.26    9.07
   1  12  12   15.61    8.17
  -1 -12 -12    9.20   10.15
  -1 -12 -13   48.15    9.93
   1  12  13   24.14    8.80
  -1 -12 -13   43.81   12.27
  -1 -12 -14    2.75    9.75
   1  12  14    1.76    8.44
  -1 -12 -14  -12.50   11.91
   1  13  -9    6.77    9.97
  -1 -13   9    3.38   11.37
   1  13  -9    7.08    8.35
   1  13  -8   56.31    9.43
  -1 -13   8   84.60   13.13
   1  13  -8   69.94   10.47
   1  13  -7   52.97    5.41
  -1 -13   7   61.50   11.55
   1  13  -7   68.59    9.57
  -1 -13   6  -14.66   10.20
   1  13  -6   11.19    8.03
  -1 -13   5   -1.94    9.70
   1  13  -5   29.19    8.30
  -1 -13   4    7.99    8.93
  -1 -13   3   24.46    8.98
  -1 -13   2   -1.44    8.03
  -1 -13   1 1129.85   58.88
  -1 -13   0  116.82   11.69
  -1 -13  -1 1116.77   58.25
  -1 -13  -2   98.09    9.93
  -1 -13  -3   61.82    8.30
  -1 -13  -4   99.81   10.60
  -1 -13  -5   -0.54    3.84
   1  13   5   -0.86    3.84
  -1 -13  -5   11.64    6.99
  -1 -13  -6   66.06    6.72
   1  13   6   55.32    6.45
  -1 -13  -6   51.08    9.30
  -1 -13  -7  101.03    8.98
   1  13   7  114.38    8.98
  -1 -13  -7   98.95   10.02
  -1 -13  -8  238.20   14.35
   1  13   8  236.93   14.17
  -1 -13  -9   61.28    9.02
   1  13   9   56.72    8.12
  -1 -13  -9   67.59   10.29
  -1 -13 -10   42.96    8.89
   1  13  10   33.12    8.21
  -1 -13 -10   42.73   10.29
  -1 -13 -11   17.01    8.93
   1  13  11   14.85    7.81
  -1 -13 -11   -0.36   10.20
  -1 -13 -12   90.79   12.05
   1  13  12   79.37   10.92
  -1 -13 -12   73.64   12.68
  -1 -13 -13   -2.53   10.38
   1  13  13    0.95    8.57
  -1 -13 -13  -13.63   11.60
  -1 -14   8   47.11   12.50
   1  14  -8   18.41    8.80
  -1 -14   7   11.73   11.55
   1  14  -7   11.05    8.62
  -1 -14   6   15.25   10.33
  -1 -14   5  -10.51    9.61
  -1 -14   4   20.03    9.34
  -1 -14   3   15.79    9.88
  -1 -14   2  181.43   14.21
  -1 -14   1   13.09    8.35
  -1 -14   0  733.23   39.71
  -1 -14  -1  424.42   25.09
  -1 -14  -2  121.47   11.28
  -1 -14  -3    7.72    7.85
  -1 -14  -4    6.32    6.77
  -1 -14  -5    3.65    6.77
  -1 -14  -6   -2.08    4.56
   1  14   6    1.31    4.92
  -1 -14  -6   10.33    6.90
  -1 -14  -7  263.78   14.66
   1  14   7  297.31   15.93
  -1 -14  -7  270.73   17.24
  -1 -14  -8    6.50    7.58
   1  14   8   10.06    6.86
  -1 -14  -8    7.49    8.75
  -1 -14  -9  507.17   25.27
   1  14   9  499.95   24.95
  -1 -14  -9  498.15   28.20
  -1 -14 -10    0.81    9.66
   1  14  10    6.23    8.71
  -1 -14 -10   -0.50    9.70
  -1 -14 -11  101.93   12.90
   1  14  11   80.00   11.24
  -1 -14 -11   80.18   12.54
  -1 -14 -12   42.46   12.63
   1  14  12   48.42   10.51
  -1 -14 -12   18.36   11.73
  -1 -15   7   43.86   12.68
  -1 -15   6   -0.99   11.28
  -1 -15   5    5.19   10.15
  -1 -15   4   11.05   10.42
  -1 -15   3   11.82    9.57
  -1 -15   2   93.31   12.05
  -1 -15   1  275.60   18.95
  -1 -15   0  385.52   23.55
  -1 -15  -1   13.94    8.30
  -1 -15  -2  182.97   13.99
  -1 -15  -3   -8.03    8.66
  -1 -15  -4    4.92    8.44
  -1 -15  -5    7.94    8.30
  -1 -15  -6  137.76   12.09
  -1 -15  -7  107.84    8.84
   1  15   7  106.35    8.66
  -1 -15  -7  125.66   12.54
  -1 -15  -8  282.69   16.38
   1  15   8  265.45   15.70
  -1 -15  -8  268.84   18.05
  -1 -15  -9  140.46   13.13
   1  15   9  128.91   11.96
  -1 -15  -9  156.98   14.03
  -1 -15  -9  154.95   13.36
  -1 -15 -10   36.32   12.09
   1  15  10   41.02   10.60
  -1 -15 -10   24.32   10.56
  -1 -15 -10   26.71   10.96
  -1 -15 -11  138.89   15.61
   1  15  11  149.76   13.67
  -1 -15 -11  163.61   15.66
  -1 -16   5   15.84   10.42
  -1 -16   4    7.13   10.51
  -1 -16   3   71.92   11.60
  -1 -16   2   51.71   11.05
  -1 -16   1  110.10   12.23
  -1 -16   0   65.43   11.64
  -1 -16  -1  379.52   23.69
  -1 -16  -2    9.52    9.70
  -1 -16  -3   47.51    9.52
  -1 -16  -4   42.37    8.93
  -1 -16  -5   -5.14    9.48
  -1 -16  -6   17.46    8.75
  -1 -16  -7   14.53   11.15
  -1 -16  -8   44.49    8.30
   1  16   8   35.24    8.66
  -1 -16  -8   52.39   12.86
  -1 -16  -9   -5.32   10.60
   1  16   9    0.63   10.56
  -1 -16  -9   11.01   10.78
  -1 -16  -9   -4.02    9.07
  -1 -17   3    0.59   11.33
  -1 -17   2   11.28   11.28
  -1 -17   1  103.46   12.00
  -1 -17   0  194.93   15.57
  -1 -17  -1   54.60   10.06
  -1 -17  -2    4.60    9.88
  -1 -17  -3   16.38   10.20
  -1 -17  -4    4.51   11.42
  -1 -17  -5  122.82   15.03
  -1 -17  -6   -2.08    9.93
  -1 -17  -7  100.58   13.54
  -1 -18  -2    6.72   10.74
  -1 -18  -3   46.30   12.18
   2 -17  -5    1.62   11.69
   2 -17  -4   36.41   11.05
   2 -17  -3   65.92   12.59
   2 -17  -2  232.24   17.78
   2 -17  -1   19.13   11.82
   2 -17   0   82.39   14.08
   2 -17   1   12.23   12.95
   2 -17   2   48.46   14.89
   2 -17   3    3.20   14.08
   2 -16  -8   18.00   12.45
  -2  16   7   68.72   12.23
   2 -16  -7   79.41   13.49
   2 -16  -7   73.82   12.72
  -2  16   6   -0.72    9.66
   2 -16  -6    8.57   11.05
   2 -16  -6    8.03   10.78
  -2  16   5    7.31    7.58
   2 -16  -5   -2.66   11.60
   2 -16  -4   30.10   10.33
   2 -16  -3    3.97    9.61
   2 -16  -2    9.30    9.57
   2 -16  -1   97.82   12.05
   2 -16   0   -7.90   10.56
   2 -16   1   15.61   10.74
   2 -16   2    8.44   11.42
   2 -16   3    9.88   11.51
   2 -16   4   27.52   13.27
   2 -16   5    2.75   13.27
   2 -16   6   49.99   14.48
  -2  15   9   -9.52   10.56
   2 -15  -9    8.75   10.87
   2 -15  -9    8.66   13.94
   2 -15  -9    6.90   11.46
  -2  15   8    7.67   10.29
   2 -15  -8    9.48    9.34
   2 -15  -8    2.26   11.64
   2 -15  -8    3.20   10.33
  -2  15   7   10.33    9.30
   2 -15  -7   -1.04    8.30
   2 -15  -7    0.86   10.11
   2 -15  -7   -4.96    9.30
  -2  15   6   34.11    8.84
   2 -15  -6   40.47   10.42
   2 -15  -6   42.96    9.57
  -2  15   5   13.00    7.67
   2 -15  -5   14.30    8.53
  -2  15   4   49.27    6.86
   2 -15  -4   63.80    9.70
   2 -15  -3  452.12   26.08
   2 -15  -2   66.42   10.15
   2 -15  -1  136.31   13.04
   2 -15   0    7.85    9.16
   2 -15   1  102.43   11.37
   2 -15   2   14.75    9.84
   2 -15   3   40.20   10.65
   2 -15   4   -0.99    9.97
   2 -15   5   32.26   10.87
   2 -15   6   48.91   13.58
   2 -15   7   15.25   12.50
  -2  15  -8   15.48   10.56
   2 -15   8    8.48   14.62
  -2  14  10   17.60    9.57
   2 -14 -10   14.66   10.74
   2 -14 -10   21.21   13.54
   2 -14 -10   10.11   10.42
  -2  14   9   -1.22   10.02
   2 -14  -9    9.61    8.71
   2 -14  -9   18.32   10.42
   2 -14  -9    3.47   10.92
  -2  14   8   -5.55    8.75
   2 -14  -8    2.75    8.75
   2 -14  -8    7.94    9.30
   2 -14  -8    4.02    8.71
  -2  14   7   40.02    9.30
   2 -14  -7   26.53    8.35
   2 -14  -7   61.32   10.06
   2 -14  -7   31.72    8.89
  -2  14   6  236.93   14.75
   2 -14  -6  225.07   13.67
   2 -14  -6  216.63   15.39
   2 -14  -6  220.78   15.12
  -2  14   5    4.33    7.13
   2 -14  -5   -0.09    7.13
  -2  14   4  233.01   13.22
   2 -14  -4  239.28   15.97
  -2  14   3   -0.45    4.87
   2 -14  -3    9.07    7.85
   2 -14  -2  561.77   30.95
   2 -14  -1   68.63   10.11
   2 -14   0  202.06   14.57
   2 -14   1   28.88    9.57
   2 -14   2   51.39    9.93
   2 -14   3  -21.61    8.48
   2 -14   4   -0.54    9.84
   2 -14   5   98.86   12.86
  -2  14  -6    7.76    8.71
   2 -14   6    1.85   11.87
  -2  14  -7  334.71   21.43
   2 -14   7  373.34   24.19
  -2  14  -8    8.08    6.68
  -2  14  -8   14.48    8.03
  -2  14  -8    8.48   10.42
   2 -14   8   17.10   12.05
  -2  14  -9    3.65   10.02
  -2  14  -9    5.10    9.20
  -2  14  -9    8.53    8.48
   2 -14   9   25.99   12.14
  -2  13  11   10.15   10.24
   2 -13 -11   33.12   10.56
   2 -13 -11   23.01   14.03
  -2  13  10    0.18    8.48
   2 -13 -10    7.72    8.66
   2 -13 -10   -2.21   11.01
  -2  13   9  116.50   11.15
  -2  13   8   10.11    9.07
   2 -13  -8   15.16    7.94
   2 -13  -8   26.58    9.25
   2 -13  -8   19.00    6.99
  -2  13   7   13.58    8.03
   2 -13  -7    2.57    7.54
   2 -13  -7   13.58    8.12
   2 -13  -7    3.79    7.94
  -2  13   6    3.43    7.26
   2 -13  -6    3.02    6.45
   2 -13  -6   -0.59    6.68
   2 -13  -6    0.81    7.54
  -2  13   5   94.89    8.89
   2 -13  -5  104.64    8.89
   2 -13  -5   98.37    9.52
  -2  13   4  194.66   11.51
   2 -13  -4  206.79   14.17
  -2  13   3  434.43   20.67
   2 -13  -3  466.56   26.40
  -2  13   2  497.69   22.79
   2 -13  -2  544.62   30.14
   2 -13  -1  293.83   18.50
   2 -13   0  251.28   16.74
   2 -13   1   61.86    9.75
   2 -13   2   11.91    8.62
   2 -13   3    2.98    8.57
   2 -13   4  102.07   12.41
  -2  13  -5  100.22   10.87
   2 -13   5  116.01   12.50
  -2  13  -6  735.49   32.98
  -2  13  -6  717.89   32.17
  -2  13  -6  671.86   36.41
   2 -13   6  716.08   39.48
  -2  13  -7   32.44    6.72
  -2  13  -7   46.34    7.22
  -2  13  -7   43.54    9.43
   2 -13   7   26.08   11.82
  -2  13  -8   36.14    7.54
  -2  13  -8   55.00    8.48
  -2  13  -8   36.19    9.88
   2 -13   8   40.43   11.42
  -2  13  -9   86.72   10.87
  -2  13  -9  102.11   12.36
   2 -13   9   88.17   13.49
  -2  13 -10   18.18    9.97
  -2  13 -10   34.92   10.65
   2 -13  10   19.31   11.96
  -2  12  12  234.05   15.43
   2 -12 -12  271.68   17.96
   2 -12 -12  249.07   20.94
  -2  12  11   31.54    9.66
   2 -12 -11   19.13    9.39
   2 -12 -11    8.48   11.15
  -2  12  10  246.28   16.02
   2 -12 -10  282.78   16.60
   2 -12 -10  227.59   16.88
  -2  12   9  -12.54    8.53
   2 -12  -9   -1.90    8.26
   2 -12  -9    9.20    8.12
  -2  12   8   12.50    8.03
   2 -12  -8   25.49    8.08
   2 -12  -8   26.04    8.48
  -2  12   7   -3.88    7.45
   2 -12  -7   -7.90    7.17
   2 -12  -7    4.56    7.81
  -2  12   6   45.39    8.21
   2 -12  -6   32.49    7.31
   2 -12  -6   40.20    8.39
   2 -12  -6   61.05    8.71
  -2  12   5  182.74   11.78
   2 -12  -5  160.09   10.65
   2 -12  -5  151.61   11.64
  -2  12   4   93.31    8.26
   2 -12  -4   70.66    6.86
   2 -12  -4   86.50    9.02
  -2  12   3  439.44   21.12
   2 -12  -3  445.80   24.95
  -2  12   2    5.41    4.33
   2 -12  -2    2.44    6.63
  -2  12   1  849.64   37.54
  -2  12   1  811.74   35.92
   2 -12  -1  805.42   42.55
  -2  12   0  188.34    9.30
  -2  12   0  194.43    9.57
   2 -12   0  197.45   14.26
   2 -12   1   57.08    9.02
   2 -12   2  152.15   12.86
   2 -12   3    4.24    8.17
  -2  12  -4   39.08    4.06
  -2  12  -4   41.20    4.24
  -2  12  -4   58.93   10.38
   2 -12   4   41.65    9.57
  -2  12  -5  356.01   16.88
  -2  12  -5  359.76   17.19
  -2  12  -5  324.43   21.12
   2 -12   5  342.70   21.97
  -2  12  -6   92.18    7.08
  -2  12  -6   83.25    7.31
  -2  12  -6  105.27   11.78
   2 -12   6  103.06   13.09
  -2  12  -7   48.64    7.13
  -2  12  -7   42.37    9.20
   2 -12   7   54.51   11.28
  -2  12  -8  188.97   12.72
  -2  12  -8  200.30   14.98
   2 -12   8  173.54   16.70
  -2  12  -9   89.61   10.29
  -2  12  -9   72.29   10.87
   2 -12   9   62.18   12.09
  -2  12 -10    0.59    9.20
  -2  12 -10    9.30   10.56
   2 -12  10    7.94   11.64
  -2  12 -11   -0.09   10.74
  -2  12 -11    6.09   10.87
   2 -12  11  -31.81   11.64
  -2  11  13  -10.11    8.26
   2 -11 -13   18.73   11.55
   2 -11 -13   18.86   13.67
  -2  11  12   96.06   10.47
   2 -11 -12   96.24   11.69
   2 -11 -12   76.80   12.95
  -2  11  11  233.55   15.43
   2 -11 -11  217.35   13.90
   2 -11 -11  219.70   16.92
  -2  11  10   61.82    9.30
   2 -11 -10   49.50    9.70
   2 -11 -10   36.82    9.39
  -2  11   9    9.34    7.72
   2 -11  -9    5.50    8.21
   2 -11  -9    7.35    8.53
  -2  11   8   32.31    8.08
   2 -11  -8   41.74    8.39
   2 -11  -8   25.45    8.57
  -2  11   7    2.39    7.58
   2 -11  -7    0.90    7.04
   2 -11  -7   -0.50    7.94
  -2  11   6   78.47    8.62
   2 -11  -6   75.04    8.30
   2 -11  -6   84.65    9.02
  -2  11   5   48.42    7.58
   2 -11  -5   61.59    7.49
   2 -11  -5   67.50    8.12
  -2  11   4  213.65   12.90
   2 -11  -4  193.98   11.24
   2 -11  -4  216.18   14.21
  -2  11   3   -1.76    5.60
   2 -11  -3    1.40    4.38
   2 -11  -3   -4.96    5.64
  -2  11   2  356.87   17.51
   2 -11  -2  414.85   23.37
  -2  11   1    6.00    4.24
   2 -11  -1    2.62    6.63
  -2  11   0    1.13    3.25
  -2  11   0    3.43    3.61
   2 -11   0    2.08    6.90
  -2  11  -1  289.46   13.63
  -2  11  -1  295.91   14.08
   2 -11   1  283.14   18.00
  -2  11  -2  139.79    7.45
  -2  11  -2  126.25    7.22
   2 -11   2  138.21   12.23
  -2  11  -3  183.28    9.39
  -2  11  -3  174.58    9.11
  -2  11  -3  195.11   13.90
   2 -11   3  208.37   15.39
  -2  11  -4    1.90    3.88
  -2  11  -4    0.50    4.33
  -2  11  -4   19.54    8.17
   2 -11   4    4.20    8.75
  -2  11  -5  407.22   19.40
  -2  11  -5  410.43   19.58
  -2  11  -5  418.14   24.68
   2 -11   5  421.21   25.58
  -2  11  -6   18.68    5.14
  -2  11  -6    8.62    8.75
   2 -11   6   14.03   10.38
  -2  11  -7  541.01   25.76
  -2  11  -7  576.21   32.31
   2 -11   7  573.05   32.49
  -2  11  -8    8.17    6.27
  -2  11  -8    9.61    9.30
   2 -11   8   -4.38   10.11
  -2  11  -9   13.99    7.67
  -2  11  -9    6.50   10.42
   2 -11   9   17.19   10.51
  -2  11 -10   -2.21    7.49
  -2  11 -10   13.00    9.93
   2 -11  10    2.66   11.91
  -2  11 -11    6.14    9.02
  -2  11 -11   11.46    9.84
   2 -11  11    4.11   11.69
  -2  11 -12    6.45   10.29
  -2  11 -12   16.20    9.70
   2 -11  12    0.23   11.73
  -2  10  13   68.36    9.48
   2 -10 -13   58.66   10.06
   2 -10 -13   37.18   12.45
  -2  10  12   52.21    9.25
   2 -10 -12   40.47    9.57
   2 -10 -12   51.44   10.38
  -2  10  11   95.03   10.56
   2 -10 -11   78.69   10.24
   2 -10 -11   92.00   12.50
  -2  10  10   26.53    8.57
   2 -10 -10   10.74    7.90
   2 -10 -10   16.42    9.25
  -2  10   9   38.58    8.39
   2 -10  -9   31.72    8.26
   2 -10  -9   40.34    9.39
  -2  10   8   63.76    9.02
   2 -10  -8   62.81    8.93
   2 -10  -8   52.43    9.25
  -2  10   7   17.91    7.22
   2 -10  -7   21.52    6.95
   2 -10  -7   32.13    8.08
  -2  10   6  -10.38    6.54
   2 -10  -6   -6.23    6.59
   2 -10  -6  -10.06    6.68
  -2  10   5   32.58    7.04
   2 -10  -5   19.58    6.36
  -2  10   4  275.74   15.21
   2 -10  -4  280.43   15.12
   2 -10  -4  259.90   16.06
  -2  10   3   62.27    6.99
   2 -10  -3   49.81    6.23
   2 -10  -3   54.91    7.76
  -2  10   2   97.24    7.35
   2 -10  -2   80.50    7.99
  -2  10   1  104.10    7.13
   2 -10  -1  112.58    9.84
  -2  10   0   11.82    3.84
  -2  10   0   18.59    4.20
   2 -10   0   20.03    7.35
   2 -10   1   -2.57    6.18
  -2  10  -2  105.86    6.81
  -2  10  -2  104.64    6.63
   2 -10   2  122.73   11.28
  -2  10  -3   -1.35    3.61
  -2  10  -3    2.21    3.93
  -2  10  -3   -5.28    7.94
   2 -10   3    0.41    8.26
  -2  10  -4   59.83    5.41
  -2  10  -4   72.29    6.05
  -2  10  -4   89.48   10.74
   2 -10   4   60.33    9.84
  -2  10  -5   51.57    6.23
  -2  10  -5   54.33   10.15
   2 -10   5   45.57   10.38
  -2  10  -6  840.62   37.99
  -2  10  -6  803.17   43.86
   2 -10   6  764.36   42.05
  -2  10  -7  244.97   13.63
  -2  10  -7  237.48   17.28
   2 -10   7  258.46   18.73
  -2  10  -8  144.12   10.60
  -2  10  -8  153.50   14.03
   2 -10   8  134.19   13.90
  -2  10  -9    0.68    6.86
  -2  10  -9    2.66    9.16
   2 -10   9    1.04   10.60
  -2  10 -10   -8.35    7.76
   2 -10  10  -10.51    6.63
  -2  10 -10   -9.88    9.39
   2 -10  10    0.54   10.96
  -2  10 -11   -2.57    7.22
   2 -10  11   -5.60    8.03
  -2  10 -11   14.57    9.79
   2 -10  11   22.02   11.78
  -2  10 -12    6.54    9.61
   2 -10  12   14.57    8.84
  -2  10 -12    3.25   10.56
   2 -10  12   -1.26   11.91
  -2  10 -13   14.53   11.05
   2 -10  13    3.79    8.57
  -2  10 -13   11.46   10.02
   2 -10  13   20.76   12.18
  -2   9  14  121.69   11.19
   2  -9 -14  138.93   12.18
   2  -9 -14  107.84   15.48
  -2   9  13   -5.23    8.03
   2  -9 -13    1.44    8.62
   2  -9 -13   14.53   11.78
  -2   9  12  279.35   16.74
   2  -9 -12  302.14   17.33
   2  -9 -12  273.12   19.63
  -2   9  11    9.34    8.48
   2  -9 -11   13.40    8.80
   2  -9 -11   -5.41    9.43
  -2   9  10    8.35    7.99
   2  -9 -10  -21.93    8.39
   2  -9 -10    2.98    8.17
  -2   9   9  118.94   10.83
   2  -9  -9  107.57   10.42
   2  -9  -9   89.70   10.87
  -2   9   8   12.00    7.58
   2  -9  -8   16.42    7.31
   2  -9  -8   19.04    7.94
  -2   9   7  302.59   17.42
   2  -9  -7  285.08   16.56
   2  -9  -7  281.79   17.73
  -2   9   6  304.93   17.15
   2  -9  -6  299.34   16.70
   2  -9  -6  298.80   18.27
  -2   9   5  740.45   34.52
   2  -9  -5  766.17   35.42
   2  -9  -5  796.40   41.65
  -2   9   4  104.05    8.35
   2  -9  -4  109.56    8.71
  -2   9   3 3921.99  168.98
   2  -9  -3 3903.94  167.99
   2  -9  -3 3678.33  182.97
  -2   9   2   85.73    7.04
   2  -9  -2   67.28    6.09
   2  -9  -2   73.82    7.94
  -2   9   1  321.13   15.79
   2  -9  -1  337.60   19.40
  -2   9   0  108.70    6.95
   2  -9   0  108.38    9.57
  -2   9  -1    9.02    3.56
  -2   9  -1   11.05    3.56
   2  -9   1   12.77    7.04
  -2   9  -2   -1.85    3.75
  -2   9  -2    2.39    3.52
  -2   9  -2    0.32    5.96
   2  -9   2   -3.75    7.49
  -2   9  -3   61.95    5.46
  -2   9  -3   55.18    5.10
  -2   9  -3   64.84    9.07
   2  -9   3   80.59   10.06
  -2   9  -4   92.54    6.90
  -2   9  -4   73.05    9.52
   2  -9   4   70.30    9.84
  -2   9  -5  121.65    8.35
  -2   9  -5  114.34   11.15
   2  -9   5  130.99   12.77
  -2   9  -6  513.49   24.68
  -2   9  -6  505.82   28.65
   2  -9   6  491.83   28.92
  -2   9  -7  108.38    9.11
  -2   9  -7   84.29   10.92
   2  -9   7   83.11   12.18
  -2   9  -8   46.70    7.13
   2  -9   8   46.48    7.49
  -2   9  -8   60.42   10.20
   2  -9   8   31.40   10.24
  -2   9  -9    7.85    6.86
   2  -9   9    7.81    6.68
  -2   9  -9    7.67    9.61
   2  -9   9   19.63   10.87
  -2   9 -10   11.05    7.45
   2  -9  10   17.46    7.08
  -2   9 -10   11.51   10.38
   2  -9  10    6.41   10.96
  -2   9 -11    9.39    7.63
   2  -9  11   10.20    7.72
  -2   9 -11   15.84    9.75
   2  -9  11   26.35   11.78
  -2   9 -12   28.61    8.21
   2  -9  12   28.97    8.08
  -2   9 -12   15.97   10.06
   2  -9  12   24.41   12.05
  -2   9 -13    7.45    9.93
   2  -9  13    7.63    8.89
  -2   9 -13  -10.69   11.46
   2  -9  13   -8.71   10.74
  -2   9 -14   49.68   11.15
   2  -9  14   27.70   10.47
  -2   9 -14   24.00   10.83
   2  -9  14   41.83   11.96
  -2   8  14  165.42   13.18
   2  -8 -14  146.83   12.18
   2  -8 -14  117.36   16.11
  -2   8  13   27.70    8.57
   2  -8 -13   39.03    8.30
   2  -8 -13   17.82   10.65
  -2   8  12   60.64   10.29
   2  -8 -12   65.97    9.97
   2  -8 -12   40.75   11.28
  -2   8  11  -13.27    7.67
   2  -8 -11   -4.74    8.26
   2  -8 -11    1.26    8.80
  -2   8  10  209.55   14.12
   2  -8 -10  181.75   13.49
   2  -8 -10  231.61   16.60
  -2   8   9   67.50    9.34
   2  -8  -9   82.84    9.70
   2  -8  -9   78.29    9.61
  -2   8   8  200.84   13.72
   2  -8  -8  197.00   13.54
   2  -8  -8  182.34   13.94
  -2   8   7   73.37    9.25
   2  -8  -7   60.15    9.20
   2  -8  -7   70.39    9.25
  -2   8   6  648.40   31.00
   2  -8  -6  621.33   29.92
   2  -8  -6  654.27   34.97
  -2   8   5  340.22   18.14
   2  -8  -5  346.04   18.50
   2  -8  -5  364.31   20.85
  -2   8   4  728.72   33.75
   2  -8  -4  699.39   32.26
  -2   8   3   17.15    5.60
   2  -8  -3   21.21    5.87
   2  -8  -3   18.59    4.96
  -2   8   2   85.37    7.13
   2  -8  -2   88.39    6.77
   2  -8  -2   71.79    7.40
  -2   8   1  636.22   28.92
   2  -8  -1  633.51   33.35
  -2   8   0   63.98    5.37
   2  -8   0   53.24    7.08
  -2   8  -1    2.08    3.61
  -2   8  -1   -1.85    3.52
   2  -8   1   -4.78    6.23
  -2   8  -2   -0.50    3.52
  -2   8  -2    0.59    3.52
  -2   8  -2    7.54    5.78
   2  -8   2   11.05    7.17
  -2   8  -3    7.08    3.75
  -2   8  -3    9.34    4.42
  -2   8  -3   13.54    6.50
   2  -8   3   11.96    7.99
  -2   8  -4   18.73    4.83
  -2   8  -4   23.73    7.40
   2  -8   4    5.46    8.17
  -2   8  -5 1203.40   53.29
  -2   8  -5 1178.58   60.78
   2  -8   5 1184.45   61.73
  -2   8  -6   26.17    6.09
  -2   8  -6   18.91    7.58
   2  -8   6   19.45    8.75
  -2   8  -7   21.70    5.87
   2  -8   7   29.01    6.59
  -2   8  -7   26.44    9.02
   2  -8   7   17.37   10.29
  -2   8  -8  133.43   10.33
   2  -8   8  153.32   10.74
  -2   8  -8  131.71   13.27
   2  -8   8  136.99   14.66
  -2   8  -9   61.32    8.75
   2  -8   9   38.67    6.95
  -2   8  -9   34.25   11.24
   2  -8   9   54.10   11.73
  -2   8 -10   32.35    7.94
   2  -8  10   37.41    7.35
  -2   8 -10   34.56   11.15
   2  -8  10   37.50   11.42
  -2   8 -11   -6.09    7.40
   2  -8  11    3.38    6.59
  -2   8 -11   -1.62   10.11
   2  -8  11   -4.33   11.24
  -2   8 -12   36.10    9.39
   2  -8  12   48.15    8.80
  -2   8 -12   46.11   11.91
   2  -8  12   47.02   12.63
  -2   8 -13    6.18    8.30
   2  -8  13   21.66    8.93
  -2   8 -13    7.54   10.33
   2  -8  13   17.82   11.10
  -2   8 -14   99.94   11.33
   2  -8  14   93.90   10.87
  -2   8 -14   64.70   12.41
   2  -8  14   80.00   13.40
  -2   7  15  114.52   12.50
   2  -7 -15   82.12   10.02
   2  -7 -15   84.83   14.94
  -2   7  14   79.73   11.28
   2  -7 -14   88.30    9.84
   2  -7 -14   85.82   14.53
  -2   7  13   89.79   10.74
   2  -7 -13   72.38   10.11
   2  -7 -13   78.60   12.50
  -2   7  12   -2.30    8.66
   2  -7 -12    6.05    8.84
   2  -7 -12    1.08    9.07
  -2   7  11  729.62   35.06
   2  -7 -11  740.00   35.56
   2  -7 -11  746.32   40.34
  -2   7  10   14.89    8.03
   2  -7 -10   27.80    8.26
   2  -7 -10   14.35    8.75
  -2   7   9   42.87    8.80
   2  -7  -9   31.99    8.30
   2  -7  -9   24.28    8.44
  -2   7   8   -2.21    7.54
   2  -7  -8    7.13    7.31
   2  -7  -8   -1.90    7.45
  -2   7   7  125.71   10.69
   2  -7  -7  112.08   10.06
   2  -7  -7  118.31   10.60
  -2   7   6 1107.74   50.31
   2  -7  -6 1097.36   49.86
   2  -7  -6 1101.88   56.72
  -2   7   5  821.22   37.90
   2  -7  -5  818.51   37.77
   2  -7  -5  791.44   41.42
  -2   7   4  191.14   11.78
   2  -7  -4  205.35   12.45
   2  -7  -4  178.28   12.00
  -2   7   3   49.27    6.59
   2  -7  -3   39.57    6.23
  -2   7   2  892.06   40.11
   2  -7  -2  911.91   40.97
   2  -7  -2  913.27   46.75
  -2   7   1   10.87    4.42
   2  -7  -1    9.93    4.29
   2  -7  -1    0.27    5.14
  -2   7   0   65.47    5.82
   2  -7   0   43.27    6.23
  -2   7  -1  399.10   18.59
  -2   7  -1  373.11   17.55
  -2   7  -1  373.79   20.85
   2  -7   1  361.34   20.26
  -2   7  -2  291.44   14.21
  -2   7  -2  307.28   14.94
  -2   7  -2  309.63   18.18
   2  -7   2  289.73   17.46
  -2   7  -3  309.85   15.34
  -2   7  -3  271.14   16.51
   2  -7   3  328.35   19.81
  -2   7  -4  660.58   30.10
  -2   7  -4  647.95   34.97
   2  -7   4  668.71   36.19
  -2   7  -5   -0.77    5.10
  -2   7  -5   10.15    6.59
   2  -7   5   -0.32    8.66
  -2   7  -6  819.41   37.59
   2  -7   6  823.47   37.32
  -2   7  -6  817.61   43.90
   2  -7   6  851.45   45.48
  -2   7  -7  929.51   42.41
   2  -7   7  965.16   43.36
  -2   7  -7  933.57   49.86
   2  -7   7  883.03   47.38
  -2   7  -8  514.84   25.36
   2  -7   8  493.18   24.46
  -2   7  -8  527.93   30.86
   2  -7   8  560.41   32.58
  -2   7  -9   92.09    9.57
   2  -7   9  116.23   10.74
  -2   7  -9   88.35   11.87
   2  -7   9  105.27   13.18
  -2   7 -10   40.93    8.12
   2  -7  10   32.62    8.12
  -2   7 -10   38.67    9.79
   2  -7  10   27.75   11.69
  -2   7 -11   16.42    7.90
   2  -7  11    9.70    6.72
  -2   7 -11    7.54    9.61
   2  -7  11    2.80   10.51
  -2   7 -12   -5.19    7.94
   2  -7  12   -9.02    7.85
  -2   7 -12    6.09   10.29
   2  -7  12   -6.00   11.01
  -2   7 -13  102.88   11.05
   2  -7  13  116.96   10.74
  -2   7 -13  124.40   13.54
   2  -7  13  132.25   14.66
  -2   7 -14    8.35    8.71
   2  -7  14    3.52    8.39
  -2   7 -14   22.29   10.42
   2  -7  14   -9.79    9.43
  -2   7 -15   27.84   10.15
   2  -7  15    9.79    9.79
  -2   7 -15   38.99   11.24
   2  -7  15   14.57   11.55
  -2   6  15    9.97    8.39
   2  -6 -15   -2.80    9.39
   2  -6 -15    5.82   11.60
  -2   6  14  130.40   13.00
   2  -6 -14  164.78   12.81
   2  -6 -14  140.37   14.57
  -2   6  13   19.04    8.08
   2  -6 -13   15.57    9.48
   2  -6 -13   27.70   10.60
  -2   6  12  203.41   13.99
   2  -6 -12  224.57   15.16
   2  -6 -12  203.68   16.06
  -2   6  11   89.48   10.56
   2  -6 -11  136.18   12.09
   2  -6 -11   87.13   11.60
  -2   6  10    4.15    8.26
   2  -6 -10   21.39    7.63
   2  -6 -10    9.97    8.98
  -2   6   9  132.97   12.09
   2  -6  -9  125.80   11.46
   2  -6  -9  108.25   11.37
  -2   6   8   -4.51    7.63
   2  -6  -8    5.50    7.45
   2  -6  -8    3.20    6.99
  -2   6   7  520.25   26.08
   2  -6  -7  455.28   23.33
   2  -6  -7  522.96   28.92
  -2   6   6  158.20   11.46
   2  -6  -6  160.00   11.91
   2  -6  -6  150.44   11.42
  -2   6   5  897.47   41.29
   2  -6  -5  881.68   40.43
   2  -6  -5  915.07   47.33
  -2   6   4  280.52   15.66
   2  -6  -4  271.77   15.34
   2  -6  -4  302.50   17.33
  -2   6   3 2566.53  111.45
   2  -6  -3 2617.07  113.57
  -2   6   2   26.76    5.23
   2  -6  -2   36.91    5.69
  -2   6   1  196.55   10.92
   2  -6  -1  192.81   10.74
   2  -6  -1  175.84   10.96
  -2   6   0  155.26    9.20
   2  -6   0  159.46   10.42
  -2   6  -1   80.27    6.09
  -2   6  -1   87.13    7.94
   2  -6   1   94.53    8.39
  -2   6  -2  740.00   33.16
  -2   6  -2  727.82   32.62
  -2   6  -2  731.88   38.71
   2  -6   2  723.30   37.90
  -2   6  -3  426.72   20.26
  -2   6  -3  426.99   24.23
   2  -6   3  432.27   24.50
  -2   6  -4 1557.15   68.09
  -2   6  -4 1575.20   80.05
   2  -6   4 1638.83   83.34
  -2   6  -5   67.46    6.99
   2  -6   5   72.33    6.90
  -2   6  -5   68.27    9.43
   2  -6   5   61.50    9.39
  -2   6  -6 4463.90  192.17
   2  -6   6 4481.95  193.08
  -2   6  -6 4278.00  213.38
   2  -6   6 4469.32  222.72
  -2   6  -7    5.87    6.23
   2  -6   7    1.80    6.05
  -2   6  -7   -4.74    8.12
   2  -6   7    9.84    8.48
  -2   6  -8  605.99   29.01
   2  -6   8  670.51   31.63
  -2   6  -8  609.14   33.75
   2  -6   8  599.22   33.80
  -2   6  -9   30.28    8.08
   2  -6   9   46.70    7.54
  -2   6  -9   32.44    9.43
   2  -6   9   50.90   11.64
  -2   6 -10   27.66    7.94
   2  -6  10   15.97    6.99
  -2   6 -10   16.60    9.43
   2  -6  10   15.25   11.24
  -2   6 -11  -12.45    7.13
   2  -6  11   -3.70    7.35
  -2   6 -11   13.81   10.65
   2  -6  11    7.99   11.42
  -2   6 -12  143.35   11.46
   2  -6  12   85.69    9.70
  -2   6 -12   84.42   12.50
   2  -6  12  103.10   13.36
  -2   6 -13   84.42   10.24
   2  -6  13   71.43    9.16
  -2   6 -13   57.85   11.73
   2  -6  13   60.96   11.78
  -2   6 -14   38.44    9.25
   2  -6  14   40.93    9.20
  -2   6 -14   35.51    9.88
   2  -6  14   35.69   12.54
  -2   6 -15   26.13    9.16
   2  -6  15   13.04    8.62
  -2   6 -15   49.23   10.33
   2  -6  15   46.16   11.37
  -2   5  15   16.56    8.84
   2  -5 -15   20.53    8.08
   2  -5 -15    7.54   11.96
  -2   5  14   22.25   10.11
   2  -5 -14   40.34    7.81
   2  -5 -14   39.39   11.96
  -2   5  13   32.04    9.75
   2  -5 -13   40.79    8.71
   2  -5 -13   31.99   11.19
  -2   5  12  187.12   13.31
   2  -5 -12  167.27   13.31
   2  -5 -12  148.50   14.12
  -2   5  11   12.27    8.66
   2  -5 -11   26.80    9.48
   2  -5 -11    9.39    9.02
  -2   5  10  428.16   22.97
   2  -5 -10  426.09   22.97
   2  -5 -10  458.89   26.89
  -2   5   9    1.80    8.26
   2  -5  -9    2.26    7.72
   2  -5  -9   -7.13    8.21
  -2   5   8   29.92    8.66
   2  -5  -8   28.65    7.76
   2  -5  -8   31.31    8.48
  -2   5   7    8.71    7.26
   2  -5  -7    2.66    6.86
   2  -5  -7   -3.93    6.86
  -2   5   6  427.57   22.34
   2  -5  -6  413.45   21.34
   2  -5  -6  421.44   23.69
  -2   5   5  396.44   20.53
   2  -5  -5  375.28   19.63
   2  -5  -5  373.97   21.12
  -2   5   4  609.14   28.97
   2  -5  -4  598.77   28.52
   2  -5  -4  612.30   32.35
  -2   5   3   49.81    6.68
   2  -5  -3   56.49    6.77
   2  -5  -3   50.72    6.27
  -2   5   2   12.05    5.19
   2  -5  -2   11.82    5.73
  -2   5   1  358.09   17.55
   2  -5  -1  355.29   17.28
   2  -5  -1  373.56   20.08
  -2   5   0   59.65    5.82
   2  -5   0   61.05    6.18
  -2   5  -1  523.41   23.96
  -2   5  -1  569.44   30.05
   2  -5   1  562.22   29.55
  -2   5  -2  105.09    7.13
  -2   5  -2  120.29    9.02
   2  -5   2  122.24    9.70
  -2   5  -3   86.32    7.08
  -2   5  -3  108.25    9.88
   2  -5   3  109.01   10.02
  -2   5  -4   -4.33    4.47
   2  -5   4    7.81    4.20
  -2   5  -4   -2.26    6.32
   2  -5   4   -5.28    6.68
  -2   5  -5 1811.64   79.23
   2  -5   5 1863.98   81.35
  -2   5  -5 1851.35   93.54
   2  -5   5 1863.98   94.44
  -2   5  -6  948.01   43.00
   2  -5   6 1066.23   47.47
  -2   5  -6 1073.90   55.91
   2  -5   6 1049.99   54.96
  -2   5  -7  836.11   38.53
   2  -5   7  888.90   40.97
  -2   5  -7  822.57   43.68
   2  -5   7  803.17   43.27
  -2   5  -8  136.81   10.33
   2  -5   8  131.71   10.51
  -2   5  -8  110.46   11.10
   2  -5   8  117.14   12.41
  -2   5  -9  181.71   12.63
   2  -5   9  142.13   11.64
  -2   5  -9  132.88   13.04
   2  -5   9  160.77   14.44
  -2   5 -10   -0.59    7.67
   2  -5  10    8.93    7.90
  -2   5 -10   -2.62    9.66
   2  -5  10    8.17   10.47
  -2   5 -11   10.42    7.63
   2  -5  11    2.30    7.49
  -2   5 -11   11.96   10.33
   2  -5  11    4.69   10.83
  -2   5 -12  182.16   13.00
   2  -5  12  178.86   12.54
  -2   5 -12  197.63   15.93
   2  -5  12  195.56   17.15
  -2   5 -13    2.21    7.90
   2  -5  13   -4.87    7.85
  -2   5 -13   -0.36   10.78
   2  -5  13   -4.60   11.91
  -2   5 -14  243.03   15.57
   2  -5  14  261.80   16.11
  -2   5 -14  229.08   17.42
   2  -5  14  268.25   19.09
  -2   5 -15   -4.60    7.58
   2  -5  15   -3.47    7.85
  -2   5 -15   -4.02    9.57
   2  -5  15    2.12   11.42
  -2   5 -16   42.50    9.61
   2  -5  16   27.89    8.57
  -2   5 -16   26.94    8.89
   2  -5  16   32.58   10.56
  -2   4  15   68.63    9.34
   2  -4 -15   40.07    9.57
   2  -4 -15   67.19   12.81
  -2   4  14   19.09    9.97
   2  -4 -14   16.92    8.26
   2  -4 -14   -4.02   10.42
  -2   4  13   39.84    8.53
   2  -4 -13   42.32    9.88
   2  -4 -13   50.40   11.05
  -2   4  12   52.57   10.11
   2  -4 -12   17.10    9.20
   2  -4 -12   43.05   10.69
  -2   4  11  294.01   18.14
   2  -4 -11  300.47   18.18
   2  -4 -11  249.25   17.51
  -2   4  10   19.67    9.34
   2  -4 -10   29.01    9.30
   2  -4 -10   13.99    8.71
  -2   4   9    4.74    8.71
   2  -4  -9   13.36    8.48
   2  -4  -9    9.11    8.17
  -2   4   8   -3.61    7.90
   2  -4  -8    0.90    7.81
   2  -4  -8   -3.47    7.04
  -2   4   7  225.25   14.08
   2  -4  -7  239.73   15.07
   2  -4  -7  242.53   16.06
  -2   4   6  545.52   26.80
   2  -4  -6  555.90   27.30
   2  -4  -6  523.86   28.61
  -2   4   5  125.26   10.29
   2  -4  -5  116.91    9.84
   2  -4  -5  140.64   10.42
  -2   4   4 1173.17   52.57
   2  -4  -4 1172.72   52.79
   2  -4  -4 1215.13   61.59
  -2   4   3   39.26    6.63
   2  -4  -3   38.04    6.45
   2  -4  -3   32.40    5.37
  -2   4   2  422.43   20.62
   2  -4  -2  413.09   20.08
  -2   4   1    2.30    5.05
   2  -4  -1    3.84    4.92
   2  -4  -1    2.30    3.88
  -2   4   0   40.29    5.23
   2  -4   0   44.17    5.82
   2  -4   0   42.50    5.28
  -2   4  -1   26.17    5.05
  -2   4  -1   31.68    5.55
   2  -4   1   27.57    5.64
  -2   4  -2   31.72    4.87
  -2   4  -2   31.36    6.63
   2  -4   2   27.93    6.00
  -2   4  -3   58.43    6.09
  -2   4  -3   57.44    7.17
   2  -4   3   72.60    8.12
  -2   4  -4  195.56   11.15
   2  -4   4  195.74   11.15
  -2   4  -4  216.63   14.48
   2  -4   4  198.04   13.85
  -2   4  -5 1249.42   55.36
   2  -4   5 1312.14   58.48
  -2   4  -5 1327.03   67.82
   2  -4   5 1312.59   67.37
  -2   4  -6 1848.64   81.22
   2  -4   6 1865.79   81.90
  -2   4  -6 1824.28   92.59
   2  -4   6 1809.39   92.05
  -2   4  -7  445.17   22.38
   2  -4   7  407.63   20.58
  -2   4  -7  385.61   22.88
   2  -4   7  435.65   25.99
  -2   4  -8   60.51    7.99
   2  -4   8   45.48    7.04
  -2   4  -8   51.57    9.25
   2  -4   8   41.15    9.93
  -2   4  -9    1.53    7.13
   2  -4   9    0.59    6.05
  -2   4  -9    4.11    8.57
   2  -4   9   -0.27    9.52
  -2   4 -10   20.30    8.12
   2  -4  10   31.18    8.12
  -2   4 -10   20.53    9.84
   2  -4  10   27.57   11.37
  -2   4 -11   73.01    9.57
   2  -4  11   67.68    9.88
  -2   4 -11   61.50   11.10
   2  -4  11   77.56   11.82
  -2   4 -12   -6.54    7.45
   2  -4  12    0.90    8.48
  -2   4 -12    4.96    9.75
   2  -4  12    5.28   12.18
  -2   4 -13  110.95   10.65
   2  -4  13   84.60   10.47
  -2   4 -13   93.04   12.45
   2  -4  13   65.02   13.76
  -2   4 -14   35.60    9.39
   2  -4  14   35.01    8.12
  -2   4 -14   37.45   10.02
   2  -4  14   44.90   11.33
  -2   4 -15   45.75    9.20
   2  -4  15   60.15    9.48
  -2   4 -15   52.88   10.92
   2  -4  15   52.61   11.73
  -2   4 -16   11.87    8.12
   2  -4  16   13.76    8.44
  -2   4 -16   24.64    8.98
   2  -4  16   15.93   10.38
  -2   3  15   -2.26    9.34
   2  -3 -15   -4.78    8.21
   2  -3 -15  -14.71   10.47
  -2   3  14   65.11    9.07
   2  -3 -14   86.27   10.15
   2  -3 -14   86.14   11.87
  -2   3  13    5.23    8.75
   2  -3 -13   25.54    9.66
  -2   3  13    6.54   10.51
   2  -3 -13   19.31   10.96
  -2   3  12   46.39    9.57
   2  -3 -12   47.60   10.15
  -2   3  12   40.84   10.51
   2  -3 -12   44.26   10.92
  -2   3  11  313.91   17.78
   2  -3 -11  323.07   19.31
  -2   3  11  320.68   21.16
   2  -3 -11  328.67   21.34
  -2   3  10   36.19    8.66
   2  -3 -10   33.39    9.02
  -2   3  10   39.08    9.97
   2  -3 -10   47.06    9.93
  -2   3   9  298.35   17.51
   2  -3  -9  265.05   17.10
  -2   3   9  285.80   18.91
   2  -3  -9  285.62   18.86
  -2   3   8  342.20   18.73
   2  -3  -8  344.19   19.18
  -2   3   8  307.42   19.76
   2  -3  -8  308.63   19.36
  -2   3   7  478.74   24.32
   2  -3  -7  449.10   23.37
  -2   3   7  519.35   29.60
   2  -3  -7  471.07   26.58
  -2   3   6   24.59    7.76
   2  -3  -6   32.89    7.76
  -2   3   6   26.26    7.67
   2  -3  -6   15.70    6.72
  -2   3   5 2944.20  128.06
   2  -3  -5 2955.03  128.42
  -2   3   5 2937.43  146.38
   2  -3  -5 2977.59  148.45
  -2   3   4  296.18   16.60
   2  -3  -4  304.26   16.47
  -2   3   4  294.87   16.92
   2  -3  -4  289.50   16.92
  -2   3   3 1424.95   63.08
   2  -3  -3 1401.94   62.04
   2  -3  -3 1464.20   73.41
  -2   3   2  175.07   11.24
   2  -3  -2  174.94   10.96
   2  -3  -2  191.41   11.28
  -2   3   1  217.44   12.63
   2  -3  -1  230.12   12.77
  -2   3   0   72.51    7.31
   2  -3   0   82.48    7.31
   2  -3   0   84.92    5.91
  -2   3  -1   98.50    7.31
  -2   3  -1  106.04    7.85
   2  -3   1  121.42    8.53
  -2   3  -2  347.53   17.10
  -2   3  -2  317.03   18.00
   2  -3   2  358.45   20.08
  -2   3  -3    2.39    5.55
   2  -3   3   -3.43    5.01
  -2   3  -3   -5.19    7.04
   2  -3   3   -4.65    6.36
  -2   3  -4  286.70   14.94
   2  -3   4  285.71   14.85
  -2   3  -4  293.25   17.69
   2  -3   4  286.66   17.55
  -2   3  -5  539.66   25.63
   2  -3   5  545.07   25.81
  -2   3  -5  571.69   31.36
   2  -3   5  602.38   32.98
  -2   3  -6 1830.59   80.36
   2  -3   6 1694.78   74.59
  -2   3  -6 1796.75   91.24
   2  -3   6 1765.62   89.79
  -2   3  -7    6.05    6.63
   2  -3   7   -0.77    6.63
  -2   3  -7   -0.72    7.94
   2  -3   7   -0.90    8.75
  -2   3  -8   63.49    8.17
   2  -3   8   62.76    8.30
  -2   3  -8   64.16   10.56
   2  -3   8   79.78   11.15
  -2   3  -9   -6.72    7.04
   2  -3   9    3.20    7.08
  -2   3  -9    0.81    8.75
   2  -3   9  -11.19    9.48
  -2   3 -10  298.93   17.19
   2  -3  10  298.03   17.33
  -2   3 -10  288.06   19.04
   2  -3  10  296.90   20.98
  -2   3 -11  117.54   11.24
   2  -3  11  137.49   11.60
  -2   3 -11  129.95   13.45
   2  -3  11  121.78   15.30
  -2   3 -12  119.26   11.28
   2  -3  12  106.71    9.97
  -2   3 -12   92.95   12.59
   2  -3  12  117.09   14.57
  -2   3 -13   77.20    9.34
   2  -3  13   66.01    8.44
  -2   3 -13   62.27   10.92
   2  -3  13   68.36   12.77
  -2   3 -14   33.66    7.85
   2  -3  14   22.52    6.95
  -2   3 -14   12.32   10.06
   2  -3  14   30.86   11.24
  -2   3 -15   53.47    9.16
   2  -3  15   52.57    8.44
  -2   3 -15   58.48   11.01
   2  -3  15   39.03   10.60
  -2   3 -16   -1.35    8.66
   2  -3  16   -1.80    7.45
  -2   3 -16    3.97    9.16
   2  -3  16    1.04   10.56
  -2   2  15   26.67    8.57
   2  -2 -15   48.46   11.05
  -2   2  15   11.69   10.65
   2  -2 -15   52.84   12.05
  -2   2  14   43.72    8.80
   2  -2 -14   34.61   10.15
  -2   2  14   46.61   11.01
   2  -2 -14   49.27   10.33
  -2   2  13   46.79    9.02
   2  -2 -13   57.76   10.11
  -2   2  13   35.47   11.05
   2  -2 -13   28.52   10.33
  -2   2  12  247.63   16.06
   2  -2 -12  227.10   16.29
  -2   2  12  250.97   17.78
   2  -2 -12  243.97   17.91
  -2   2  11   44.13    9.84
   2  -2 -11   37.90   10.11
  -2   2  11   37.32   10.69
   2  -2 -11   15.57    9.84
  -2   2  10  173.94   13.27
   2  -2 -10  157.38   13.13
  -2   2  10  179.49   15.70
   2  -2 -10  164.02   14.39
  -2   2   9   18.95    8.84
   2  -2  -9    6.36    7.45
  -2   2   9    2.80    9.70
   2  -2  -9   17.15    8.84
  -2   2   8   18.77    8.12
   2  -2  -8   12.32    7.54
  -2   2   8    9.07    8.03
   2  -2  -8   12.90    7.90
  -2   2   7 1252.13   56.81
   2  -2  -7 1288.23   57.94
  -2   2   7 1324.78   68.27
   2  -2  -7 1283.72   65.97
  -2   2   6  916.88   42.37
   2  -2  -6  878.97   40.70
  -2   2   6  897.47   47.24
   2  -2  -6  811.74   42.60
  -2   2   5  718.34   34.11
   2  -2  -5  752.18   35.20
  -2   2   5  739.55   39.12
   2  -2  -5  733.23   38.49
  -2   2   4    7.99    7.17
   2  -2  -4   -1.85    6.54
  -2   2   4    9.43    6.36
   2  -2  -4   -1.40    6.05
  -2   2   3 1327.94   58.93
   2  -2  -3 1315.75   58.43
  -2   2   3 1339.22   67.32
   2  -2  -3 1410.96   70.89
  -2   2   2  227.37   13.40
   2  -2  -2  208.69   12.63
  -2   2   2  218.07   12.36
   2  -2  -2  215.10   12.27
  -2   2   1  100.44    8.89
   2  -2  -1   98.09    8.21
   2  -2  -1  100.40    6.23
  -2   2   0 1003.96   44.54
   2  -2   0  984.56   43.68
   2  -2   0  920.03   46.02
  -2   2  -1  749.02   37.77
   2  -2   1  822.57   41.38
  -2   2  -2  644.34   29.42
  -2   2  -2  647.50   33.39
   2  -2   2  663.29   34.34
  -2   2  -3  181.16   11.05
   2  -2   3  185.68   11.24
  -2   2  -3  178.46   12.59
   2  -2   3  196.96   13.27
  -2   2  -4  240.91   13.54
   2  -2   4  261.75   14.35
  -2   2  -4  240.63   15.25
   2  -2   4  256.02   16.33
  -2   2  -5   67.05    7.67
   2  -2   5   62.27    7.76
  -2   2  -5   76.21    9.48
   2  -2   5   60.01    8.98
  -2   2  -6 2019.20   88.35
   2  -2   6 1852.25   81.35
  -2   2  -6 1912.26   96.47
   2  -2   6 2003.86  101.30
  -2   2  -7  142.95   10.87
   2  -2   7  150.39   10.83
  -2   2  -7  146.96   12.54
   2  -2   7  134.73   12.32
  -2   2  -8   54.01    8.12
   2  -2   8   42.82    7.58
  -2   2  -8   48.05    9.30
   2  -2   8   43.54    9.39
  -2   2  -9   -0.77    7.31
   2  -2   9    4.51    7.08
  -2   2  -9    6.05    8.98
   2  -2   9    7.45    9.11
  -2   2 -10    8.44    7.54
   2  -2  10   -1.13    6.54
  -2   2 -10    2.08    9.30
   2  -2  10    9.43   10.83
  -2   2 -11   -7.13    7.17
   2  -2  11    6.09    8.39
  -2   2 -11    2.08    9.84
   2  -2  11   17.87   11.60
  -2   2 -12  409.66   21.79
   2  -2  12  408.26   22.25
  -2   2 -12  403.98   25.18
   2  -2  12  391.84   25.31
  -2   2 -13   58.75    8.35
   2  -2  13   49.00    8.93
  -2   2 -13   30.82   10.33
   2  -2  13   81.67   13.09
  -2   2 -14  209.18   14.53
   2  -2  14  151.29   12.00
  -2   2 -14  180.26   15.25
   2  -2  14  140.10   14.26
  -2   2 -15   41.15    8.84
   2  -2  15   43.00    8.84
  -2   2 -15   46.39   10.24
   2  -2  15   52.25   10.74
  -2   2 -16    8.75    7.72
   2  -2  16   13.45    7.17
  -2   2 -16    2.17    9.70
   2  -2  16   -7.13   10.15
  -2   2 -17    7.40   10.02
   2  -2  17    8.89    8.62
  -2   2 -17   -7.26   10.06
   2  -2  17    0.09   10.69
  -2   1  15   14.66    8.75
   2  -1 -15   35.29    9.97
  -2   1  15   29.83   11.28
   2  -1 -15   17.37   10.96
  -2   1  14  -13.94    9.07
   2  -1 -14    8.53    9.07
  -2   1  14  -10.15    9.70
   2  -1 -14   13.09    9.93
  -2   1  13  550.94   27.16
   2  -1 -13  514.39   26.04
  -2   1  13  577.11   33.25
   2  -1 -13  534.69   30.77
  -2   1  12   -9.84    8.03
   2  -1 -12   11.46    8.53
  -2   1  12   -7.49    9.93
   2  -1 -12  -13.54    9.39
  -2   1  11   94.03   11.19
   2  -1 -11  143.71   12.86
  -2   1  11  134.19   14.08
   2  -1 -11  136.36   13.22
  -2   1  10   81.31   10.60
   2  -1 -10   90.92   10.47
  -2   1  10   93.85   12.23
   2  -1 -10   82.62   11.55
  -2   1   9    9.48    8.35
   2  -1  -9    9.93    7.26
  -2   1   9    8.93    8.93
   2  -1  -9   12.00    8.08
  -2   1   8  385.52   20.94
   2  -1  -8  418.82   22.15
  -2   1   8  361.43   22.83
   2  -1  -8  434.21   25.49
   2  -1  -7  425.95   22.20
   2  -1  -7  431.59   24.73
  -2   1   6 3449.56  149.49
   2  -1  -6 3362.48  145.70
  -2   1   6 3491.98  174.40
   2  -1  -6 3277.65  163.48
  -2   1   5   63.13    8.57
   2  -1  -5   66.74    7.81
  -2   1   5   57.21    7.99
   2  -1  -5   81.35    8.48
  -2   1   4  247.00   15.03
   2  -1  -4  191.27   12.27
  -2   1   4  210.36   14.21
   2  -1  -4  218.75   13.85
  -2   1   3    1.90    6.90
   2  -1  -3   14.08    7.17
  -2   1   3    5.55    6.36
   2  -1  -3   -2.17    6.18
  -2   1   2  423.38   21.07
   2  -1  -2  453.93   22.52
  -2   1   2  411.24   22.15
   2  -1  -2  367.65   19.90
  -2   1   1  432.85   21.21
   2  -1  -1  453.02   21.66
  -2   1   1  446.57   22.97
   2  -1  -1  437.23   22.47
  -2   1   0  781.96   35.06
   2  -1   0  771.13   34.65
  -2   1   0  716.08   35.74
  -2   1  -1   65.47    5.41
   2  -1   1   67.41    5.46
  -2   1  -2  134.69    9.07
  -2   1  -2  146.56   10.20
   2  -1   2  142.63    9.97
  -2   1  -3  590.64   27.66
  -2   1  -3  579.36   30.82
  -2   1  -4 1056.75   47.38
   2  -1   4 1106.39   49.54
  -2   1  -4 1045.92   53.83
   2  -1   4 1107.74   56.94
  -2   1  -5 2658.58  115.47
   2  -1   5 2642.33  114.61
  -2   1  -5 2564.73  128.46
   2  -1   5 3066.48  153.10
  -2   1  -6 1644.24   72.51
   2  -1   6 1611.30   71.20
  -2   1  -6 1470.97   74.99
   2  -1   6 1382.98   71.07
  -2   1  -7  387.06   20.08
   2  -1   7  348.88   19.04
  -2   1  -7  369.14   22.52
   2  -1   7  379.16   23.06
  -2   1  -8   19.09    6.59
   2  -1   8   19.99    6.77
  -2   1  -8   26.98    8.66
   2  -1   8   22.47    9.57
  -2   1  -9   -2.98    6.95
   2  -1   9   11.01    7.17
  -2   1  -9  -10.60    8.62
   2  -1   9   -3.02    9.52
  -2   1 -10   22.43    7.85
   2  -1  10   37.95    7.90
  -2   1 -10   27.61   10.33
   2  -1  10   27.07   10.29
  -2   1 -11  215.32   14.57
   2  -1  11  210.27   13.99
  -2   1 -11  188.65   15.93
   2  -1  11  205.53   16.88
  -2   1 -12   44.85    9.11
   2  -1  12   52.30    8.80
  -2   1 -12   47.33   10.20
   2  -1  12   60.73   11.42
  -2   1 -13  251.92   15.39
   2  -1  13  229.17   14.48
  -2   1 -13  238.24   17.42
   2  -1  13  226.24   18.09
  -2   1 -14  291.71   17.42
   2  -1  14  271.63   16.06
  -2   1 -14  304.53   19.76
   2  -1  14  281.52   20.35
  -2   1 -15  135.28   11.42
   2  -1  15  124.27   10.60
  -2   1 -15  107.93   12.59
   2  -1  15  108.29   12.90
  -2   1 -16   -3.25    8.53
   2  -1  16    5.14    7.54
  -2   1 -16   -6.23    9.43
   2  -1  16   -2.39   10.15
  -2   1 -17   13.00    9.48
   2  -1  17    4.65    7.17
  -2   1 -17   10.65   10.74
   2  -1  17   11.64   10.33
  -2   0  15   52.43    9.79
   2   0 -15   61.68   10.74
  -2   0  15   43.18   11.37
   2   0 -15   46.20   11.55
  -2   0  14   59.24    9.57
   2   0 -14   35.24    9.52
  -2   0  14   61.19   12.50
   2   0 -14   63.71   11.46
  -2   0  13   15.03    7.81
   2   0 -13   19.04    9.20
  -2   0  13   29.42   11.28
   2   0 -13   11.82   10.06
  -2   0  12   10.15    8.26
   2   0 -12    3.34    9.61
  -2   0  12   10.87   10.15
   2   0 -12  -11.82    9.16
  -2   0  11  126.43   11.33
   2   0 -11  127.42   12.45
  -2   0  11  116.64   13.99
   2   0 -11  117.09   12.59
  -2   0  10    8.66    6.81
   2   0 -10   -4.56    8.44
  -2   0  10    7.49   10.83
   2   0 -10   -7.63    9.30
  -2   0   9  329.43   18.86
   2   0  -9  296.90   17.96
  -2   0   9  343.02   21.88
   2   0  -9  303.35   19.67
  -2   0   8   21.34    6.95
   2   0  -8    7.40    7.22
  -2   0   8   13.18    8.35
   2   0  -8   15.48    8.21
  -2   0   7 1600.47   71.56
   2   0  -7 1478.19   66.19
  -2   0   7 1535.50   78.87
   2   0  -7 1333.80   68.54
  -2   0   6  508.07   25.45
   2   0  -6  472.43   23.78
  -2   0   6  486.41   27.84
   2   0  -6  482.80   27.07
  -2   0   5 1825.63   80.27
   2   0  -5 1752.98   77.34
  -2   0   5 1755.24   89.03
   2   0  -5 1614.91   81.76
  -2   0   4  138.66    9.97
   2   0  -4  135.91   10.38
  -2   0   4  163.16   12.00
   2   0  -4  159.23   11.60
  -2   0   3  870.40   39.75
   2   0  -3  857.77   39.08
  -2   0   3  845.13   43.77
   2   0  -3  895.67   46.25
  -2   0   2 1325.23   58.97
   2   0  -2 1249.88   55.68
  -2   0   2 1258.90   63.67
   2   0  -2 1417.73   71.38
  -2   0   1   73.14    7.81
   2   0  -1   70.71    7.45
  -2   0   1   73.37    7.35
   2   0  -1   80.54    7.26
   2   0   0 7377.42  315.09
  -2   0  -2 1932.57   83.66
   2   0   2 2004.31   86.77
  -2   0  -2 1966.86   98.14
  -2   0  -3 4074.95  175.16
   2   0   3 4046.08  173.85
  -2   0  -3 4074.95  202.10
   2   0   3 4301.01  213.16
  -2   0  -5    1.49    5.87
   2   0   5    8.53    6.90
  -2   0  -5    8.53    7.45
   2   0   5    3.47    7.85
  -2   0  -6 7661.69  328.35
   2   0   6 7530.84  322.94
  -2   0  -6 7395.47  366.16
   2   0   6 7630.10  377.67
  -2   0  -7  728.27   34.02
   2   0   7  799.11   37.14
  -2   0  -7  747.22   40.47
   2   0   7  746.77   40.38
  -2   0  -8  495.44   24.64
   2   0   8  482.35   24.00
  -2   0  -8  493.63   28.25
   2   0   8  457.99   26.71
  -2   0  -9   38.44    8.57
   2   0   9   24.95    7.99
  -2   0  -9   24.00    9.39
   2   0   9   27.93    9.34
  -2   0 -10   22.11    8.17
   2   0  10   40.16    8.57
  -2   0 -10   32.13    9.52
   2   0  10   32.08   10.11
  -2   0 -11  146.51   12.14
   2   0  11  150.44   12.18
  -2   0 -11  132.88   13.40
   2   0  11  144.39   14.75
  -2   0 -12   13.81    8.71
   2   0  12   26.94    8.66
  -2   0 -12   20.03    9.61
   2   0  12   33.03   11.73
  -2   0 -13  533.79   27.03
   2   0  13  513.04   26.17
  -2   0 -13  552.29   31.86
   2   0  13  510.78   30.37
  -2   0 -14   16.38    7.94
   2   0  14   26.62    8.12
  -2   0 -14   18.36    9.48
   2   0  14   25.00   11.37
  -2   0 -15  121.02   11.37
   2   0  15  140.74   11.10
  -2   0 -15  174.49   14.85
   2   0  15  189.42   15.39
  -2   0 -16    8.39    7.99
   2   0  16   -1.44    7.58
  -2   0 -16    7.17    9.25
   2   0  16   -2.08   10.56
  -2   0 -17   37.99   10.33
   2   0  17   40.65    9.52
  -2   0 -17   46.48   11.78
   2   0  17   57.80   11.33
  -2  -1  15   54.15    9.16
   2   1 -15   56.49   10.74
  -2  -1  15   71.97   11.69
   2   1 -15   73.28   11.24
  -2  -1  14   39.30    9.66
   2   1 -14   49.77    9.11
  -2  -1  14   55.18   12.54
   2   1 -14   32.85   10.87
  -2  -1  13   22.11    8.35
   2   1 -13   21.52    9.52
  -2  -1  13   20.53   10.51
   2   1 -13  -11.01    9.79
  -2  -1  12   32.49    8.98
   2   1 -12   29.55    9.70
  -2  -1  12   24.14   11.05
   2   1 -12   29.51   10.20
  -2  -1  11    5.46    8.35
   2   1 -11    0.81    8.66
  -2  -1  11   10.96   12.05
   2   1 -11    2.30    9.57
   2   1 -10  478.74   24.95
   2   1 -10  499.05   29.24
  -2  -1   9   62.18    9.07
   2   1  -9   80.00    9.93
  -2  -1   9   45.80   10.06
   2   1  -9   63.98   10.15
  -2  -1   8  361.20   19.40
   2   1  -8  431.82   22.56
  -2  -1   8  404.07   24.91
   2   1  -8  344.10   21.70
  -2  -1   7  725.11   34.25
   2   1  -7  812.64   37.99
  -2  -1   7  714.28   38.90
   2   1  -7  748.12   40.29
  -2  -1   6  410.70   21.07
   2   1  -6  411.01   21.21
  -2  -1   6  403.71   23.82
   2   1  -6  408.89   23.87
  -2  -1   5  604.63   28.97
   2   1  -5  618.62   29.33
  -2  -1   5  615.01   33.62
   2   1  -5  604.18   32.62
  -2  -1   4   39.30    7.63
   2   1  -4   22.02    6.95
  -2  -1   4   33.48    7.94
   2   1  -4   29.96    7.54
  -2  -1   3  188.43   11.60
   2   1  -3  182.79   11.73
  -2  -1   3  180.44   13.04
   2   1  -3  192.35   13.18
  -2  -1   2  629.90   29.46
   2   1  -2  651.11   30.14
  -2  -1   2  650.21   34.38
   2   1  -2  686.30   36.01
  -2  -1   1  106.62    8.44
   2   1  -1  104.73    8.21
  -2  -1   1  118.44    9.34
   2   1  -1  122.60    9.52
  -2  -1   0   93.00    7.40
   2   1   0   99.99    7.08
  -2  -1   0   96.38    7.99
   2   1   0   96.92    7.94
  -2  -1  -2 1190.31   52.21
   2   1   2 1132.11   49.81
  -2  -1  -3  597.86   27.98
   2   1   3  624.49   29.06
  -2  -1  -3  662.39   35.20
  -2  -1  -4  915.07   41.51
   2   1   4  929.51   42.10
  -2  -1  -4  888.45   46.25
   2   1   4  984.11   50.81
  -2  -1  -5 2944.20  127.65
   2   1   5 2853.51  123.72
  -2  -1  -5 2923.90  146.24
   2   1   5 2890.96  144.57
  -2  -1  -6 3260.96  141.14
   2   1   6 3254.19  141.14
  -2  -1  -6 3168.00  158.29
   2   1   6 3436.48  171.60
  -2  -1  -7  183.06   12.72
   2   1   7  194.88   13.54
  -2  -1  -7  205.85   14.89
   2   1   7  184.50   14.35
  -2  -1  -8  400.82   21.03
   2   1   8  396.40   20.71
  -2  -1  -8  398.97   23.60
   2   1   8  383.08   23.42
  -2  -1  -9    4.42    7.76
   2   1   9    9.84    7.49
  -2  -1  -9    7.04    7.90
   2   1   9    8.03    8.93
  -2  -1 -10    9.34    8.03
   2   1  10    5.37    7.22
  -2  -1 -10    5.50    8.53
   2   1  10  -10.60    9.39
  -2  -1 -11   13.36    8.57
   2   1  11   11.33    8.12
  -2  -1 -11    8.48    8.98
   2   1  11    5.82   11.42
  -2  -1 -12  318.74   18.59
   2   1  12  335.07   19.13
  -2  -1 -12  337.24   22.06
   2   1  12  329.57   22.56
  -2  -1 -13  120.66   11.24
   2   1  13  123.14   11.01
  -2  -1 -13  121.02   12.50
   2   1  13  146.60   14.62
  -2  -1 -14  341.98   19.36
   2   1  14  333.72   18.41
  -2  -1 -14  320.50   21.16
   2   1  14  313.73   21.43
  -2  -1 -15   81.31    9.75
   2   1  15   53.47    9.43
  -2  -1 -15   51.53   10.33
   2   1  15   39.30   11.28
  -2  -1 -16   -4.15    8.66
   2   1  16  -11.19    6.32
  -2  -1 -16    6.77    9.84
   2   1  16   -9.61    9.25
  -2  -1 -17    6.95    8.98
   2   1  17    0.23    7.99
  -2  -1 -17   -1.67    9.75
  -2  -2  15   82.48   10.51
   2   2 -15   69.67   10.65
  -2  -2  15   54.51   12.45
   2   2 -15   72.06   10.78
  -2  -2  14    5.64    8.30
   2   2 -14  -16.47    8.89
  -2  -2  14    9.61   11.51
   2   2 -14   -1.76    9.30
  -2  -2  13   37.68    8.08
   2   2 -13   30.59    9.39
  -2  -2  13   23.33   11.46
   2   2 -13   27.16   10.83
   2   2 -12  110.64   11.91
   2   2 -12   97.28   12.59
  -2  -2  11  105.18   10.92
   2   2 -11   94.58   10.56
  -2  -2  11  114.93   13.58
   2   2 -11  103.69   12.18
  -2  -2  10  308.23   18.82
  -2  -2  10  279.71   19.63
  -2  -2   9   50.04    9.25
   2   2  -9   43.00    8.80
  -2  -2   9   59.29   11.82
   2   2  -9   51.71   10.83
  -2  -2   8   46.48    8.08
   2   2  -8   52.25    8.62
  -2  -2   8   42.82    9.84
   2   2  -8   76.03   10.47
  -2  -2   7    7.40    7.04
   2   2  -7    5.10    6.45
  -2  -2   7   22.38    8.71
   2   2  -7   19.31    8.08
  -2  -2   6 2404.09  105.49
   2   2  -6 2326.93  101.61
  -2  -2   6 2380.63  120.11
   2   2  -6 1985.36  100.35
  -2  -2   5   15.34    6.27
   2   2  -5   22.52    6.68
  -2  -2   5   28.43    7.94
   2   2  -5   23.55    7.90
  -2  -2   4  194.84   11.91
   2   2  -4  198.54   12.00
  -2  -2   4  189.87   13.90
   2   2  -4  196.19   14.26
  -2  -2   3  219.25   12.68
   2   2  -3  252.73   13.90
  -2  -2   3  221.05   14.80
   2   2  -3  231.20   15.16
  -2  -2   2  623.58   29.01
   2   2  -2  556.35   25.99
  -2  -2   2  619.07   33.21
   2   2  -2  573.50   30.95
  -2  -2   1   16.06    5.46
   2   2  -1   15.34    5.01
  -2  -2   1   18.32    7.26
   2   2  -1   15.43    7.13
  -2  -2   0 3181.99  136.40
   2   2   0 3135.52  134.46
  -2  -2   0 3468.52  172.23
   2   2   0 3159.43  157.02
  -2  -2  -2  167.76    9.79
   2   2   2  169.79   10.02
  -2  -2  -3 1359.07   59.74
   2   2   3 1350.50   59.38
  -2  -2  -4   77.20    8.26
   2   2   4   90.42    8.39
  -2  -2  -4   96.24   10.15
  -2  -2  -5  319.73   16.92
   2   2   5  395.72   20.30
  -2  -2  -5  389.85   22.79
  -2  -2  -6   39.48    7.72
   2   2   6   45.03    7.22
  -2  -2  -6   42.19    8.84
  -2  -2  -7  588.84   28.79
   2   2   7  612.30   29.37
  -2  -2  -7  595.61   32.85
   2   2   7  621.33   34.34
  -2  -2  -8    1.40    6.09
   2   2   8   -2.84    6.14
  -2  -2  -8    9.07    7.90
   2   2   8   -6.27    8.08
  -2  -2  -9   70.30    8.89
   2   2   9   45.39    7.90
  -2  -2  -9   70.03   10.42
   2   2   9   59.74   10.51
  -2  -2 -10   28.61    7.49
   2   2  10   29.01    8.57
  -2  -2 -10   38.67    9.88
   2   2  10   41.78   10.11
  -2  -2 -11  201.60   14.30
   2   2  11  171.82   13.85
  -2  -2 -11  189.06   15.07
   2   2  11  155.63   15.12
  -2  -2 -12  187.08   13.31
   2   2  12  196.96   14.48
  -2  -2 -12  175.79   14.44
   2   2  12  178.28   16.06
  -2  -2 -13  466.11   24.23
   2   2  13  424.69   23.10
  -2  -2 -13  403.52   24.77
   2   2  13  445.26   27.30
  -2  -2 -14  315.22   18.14
   2   2  14  324.61   18.32
  -2  -2 -14  310.08   20.62
  -2  -2 -15  136.85   12.18
   2   2  15  162.30   11.82
  -2  -2 -15  168.62   15.25
  -2  -2 -16    5.73    8.66
   2   2  16   -0.81    6.68
  -2  -2 -16   -2.26    9.07
  -2  -2 -17   -3.88    8.12
   2   2  17    6.32    8.03
  -2  -2 -17    1.67   10.47
  -2  -3  15    9.57    8.93
   2   3 -15   20.12   10.69
  -2  -3  15   10.92   10.74
   2   3 -15    6.81    9.75
  -2  -3  14   -3.34    7.94
   2   3 -14    3.43    9.30
  -2  -3  14  -17.46   10.42
   2   3 -14   -2.44    9.25
  -2  -3  13  161.67   13.40
   2   3 -13  140.92   12.81
  -2  -3  13  113.84   14.17
   2   3 -13  130.40   14.35
  -2  -3  12  -10.60    9.07
   2   3 -12    1.49    8.48
  -2  -3  12    4.92   10.56
   2   3 -12   -1.44   10.60
  -2  -3  11   19.49    8.93
   2   3 -11   26.94    9.57
  -2  -3  11    6.59   10.65
   2   3 -11   20.76    9.93
  -2  -3  10  110.10   11.73
   2   3 -10   85.01   10.96
  -2  -3  10   89.07   12.95
   2   3 -10   95.21   12.32
  -2  -3   9   -1.08    7.31
   2   3  -9    5.10    8.21
  -2  -3   9   -4.24   10.24
   2   3  -9    1.90    8.98
  -2  -3   8  264.55   15.39
   2   3  -8  271.86   16.24
  -2  -3   8  247.36   17.60
   2   3  -8  268.02   18.14
  -2  -3   7  952.52   43.72
   2   3  -7 1024.72   46.79
  -2  -3   7  994.03   52.75
   2   3  -7  991.78   52.39
  -2  -3   6   17.91    6.72
   2   3  -6   26.31    6.72
  -2  -3   6   31.00    8.75
   2   3  -6   29.78    8.35
  -2  -3   5   60.33    7.67
   2   3  -5   73.86    7.72
  -2  -3   5   68.09    9.61
   2   3  -5   76.53    9.66
  -2  -3   4   -1.40    6.27
   2   3  -4   -5.60    5.55
  -2  -3   4    0.86    7.81
   2   3  -4   -0.41    7.04
  -2  -3   3   31.45    6.00
   2   3  -3   37.63    5.82
  -2  -3   3   36.59    8.48
   2   3  -3   36.82    8.08
  -2  -3   2  717.44   32.44
   2   3  -2  787.38   35.38
  -2  -3   2  776.55   41.11
   2   3  -2  757.60   39.89
  -2  -3   1  116.28    7.49
   2   3  -1  112.40    7.22
  -2  -3   1  120.43   10.92
   2   3  -1   99.00    9.66
  -2  -3   0 1969.12   84.83
   2   3   0 1940.24   83.57
  -2  -3   0 1911.81   96.29
  -2  -3  -1  214.51   10.47
  -2  -3  -2   25.36    4.69
   2   3   2   19.45    4.60
  -2  -3  -3  206.07   11.64
   2   3   3  195.47   11.01
  -2  -3  -4  304.75   15.79
   2   3   4  306.51   15.97
  -2  -3  -5  405.24   20.17
   2   3   5  367.38   18.82
  -2  -3  -5  404.11   23.55
  -2  -3  -6 1288.23   57.62
   2   3   6 1292.74   57.62
  -2  -3  -6 1280.11   65.70
  -2  -3  -7   46.48    7.35
   2   3   7   52.84    7.99
  -2  -3  -7   70.12    9.97
  -2  -3  -8  137.98   11.01
   2   3   8  162.62   11.24
  -2  -3  -8  138.12   12.32
  -2  -3  -9    8.48    7.35
   2   3   9   10.87    7.76
  -2  -3  -9   16.15    8.80
  -2  -3 -10   -1.22    7.81
   2   3  10   10.15    7.81
  -2  -3 -10    3.47    8.62
  -2  -3 -11  666.45   32.31
   2   3  11  666.45   32.44
  -2  -3 -11  668.25   36.82
  -2  -3 -12    2.44    8.53
   2   3  12    8.62    7.04
  -2  -3 -12    1.90    9.07
  -2  -3 -13  709.32   34.20
   2   3  13  764.36   36.37
  -2  -3 -13  705.25   39.03
  -2  -3 -14   16.60    8.48
   2   3  14   20.08    8.71
  -2  -3 -14    9.30    9.66
  -2  -3 -15  155.40   12.41
   2   3  15  148.14   11.42
  -2  -3 -15  146.96   13.90
  -2  -3 -16   24.91    8.75
   2   3  16   25.27    9.07
  -2  -3 -16   35.96    9.39
  -2  -3 -17   40.84    8.44
   2   3  17   19.99    7.13
  -2  -3 -17   46.52   11.24
  -2  -4  15    3.25   10.74
  -2  -4  14  121.38   12.05
   2   4 -14   73.01   11.10
  -2  -4  14   87.54   11.78
   2   4 -14   93.00   12.05
  -2  -4  13   -8.44    9.25
   2   4 -13    9.02    8.62
  -2  -4  13   -6.59    9.79
   2   4 -13   -6.95    9.34
  -2  -4  12    7.99    8.30
   2   4 -12   20.94    9.07
  -2  -4  12    1.67   10.38
   2   4 -12   -7.94    9.93
  -2  -4  11   29.60    8.84
   2   4 -11    7.54    9.11
  -2  -4  11   15.70   11.24
   2   4 -11   17.87   10.33
  -2  -4  10  314.41   18.41
   2   4 -10  341.08   19.40
  -2  -4  10  312.78   21.25
   2   4 -10  313.55   20.49
  -2  -4   9  576.21   29.46
   2   4  -9  530.63   26.98
  -2  -4   9  584.78   33.98
   2   4  -9  541.46   31.22
  -2  -4   8  821.67   38.85
   2   4  -8  759.40   36.01
  -2  -4   8  766.17   42.19
   2   4  -8  735.03   40.43
  -2  -4   7  486.41   24.32
   2   4  -7  523.41   25.72
  -2  -4   7  462.05   27.39
   2   4  -7  504.01   28.92
  -2  -4   6   27.75    6.86
   2   4  -6   25.49    7.17
  -2  -4   6   43.27    9.30
   2   4  -6   36.37    8.26
  -2  -4   5  637.12   29.46
   2   4  -5  656.07   30.59
  -2  -4   5  715.18   38.80
   2   4  -5  676.38   36.37
  -2  -4   4   97.10    8.35
   2   4  -4   74.18    6.90
  -2  -4   4   85.05   10.51
   2   4  -4   90.92    9.70
  -2  -4   3   43.50    6.18
   2   4  -3   38.08    5.82
  -2  -4   3   39.89    8.48
   2   4  -3   31.59    7.58
  -2  -4   2    8.35    5.01
   2   4  -2   -2.89    4.29
  -2  -4   2   -2.08    7.67
   2   4  -2    6.18    6.99
  -2  -4   1  403.66   18.50
   2   4  -1  419.18   19.18
  -2  -4   1  431.95   24.64
   2   4  -1  419.72   24.32
  -2  -4   0 2315.20   99.36
  -2  -4   0 2312.49  116.05
  -2  -4  -1  255.43   11.91
  -2  -4  -1  257.96   11.96
  -2  -4  -1  244.47   15.70
  -2  -4  -2   16.92    3.75
   2   4   2   20.40    3.70
  -2  -4  -3    8.03    4.60
   2   4   3   15.93    4.78
  -2  -4  -4    2.35    5.55
   2   4   4    6.09    4.96
  -2  -4  -5  103.83    8.53
   2   4   5  113.93    8.98
  -2  -4  -6  562.67   27.25
   2   4   6  557.71   26.58
  -2  -4  -6  558.16   30.82
  -2  -4  -7   40.61    7.31
   2   4   7   51.21    7.58
  -2  -4  -7   47.29    8.39
  -2  -4  -8    3.11    7.40
   2   4   8    6.54    7.22
  -2  -4  -8    6.54    8.03
  -2  -4  -9    5.23    7.31
   2   4   9    2.84    7.22
  -2  -4  -9    2.98    8.39
  -2  -4 -10   16.88    8.30
   2   4  10   28.70    8.26
  -2  -4 -10   21.07    9.66
  -2  -4 -11   25.45    8.71
   2   4  11   29.01    9.02
  -2  -4 -11   35.10    9.52
  -2  -4 -12  137.85   11.28
   2   4  12  167.72   13.36
  -2  -4 -12  115.06   12.77
  -2  -4 -13  215.55   14.08
   2   4  13  233.87   15.48
  -2  -4 -13  233.37   16.79
  -2  -4 -14  335.89   18.91
   2   4  14  343.20   18.59
  -2  -4 -14  380.60   23.64
  -2  -4 -15  100.13   11.42
   2   4  15   69.80    9.70
  -2  -4 -15   52.30   11.19
  -2  -4 -16   -5.28    8.26
   2   4  16   -9.16    7.67
  -2  -4 -16    0.63    9.57
  -2  -4 -17   -0.32    8.48
   2   4  17   12.14    8.93
  -2  -4 -17   -3.56   10.65
  -2  -5  14  -19.36    9.61
   2   5 -14    2.89    9.48
  -2  -5  14    5.28   11.10
   2   5 -14    0.68   10.51
  -2  -5  13    8.57    9.61
   2   5 -13   -8.71    8.57
  -2  -5  13   -9.30   10.02
   2   5 -13   -6.09    9.20
  -2  -5  12   17.42    8.30
   2   5 -12   19.67    9.75
  -2  -5  12   32.67   11.28
   2   5 -12   18.95   10.15
  -2  -5  11   54.60    9.61
   2   5 -11   49.50    9.75
  -2  -5  11   46.25   11.87
   2   5 -11   42.91   10.51
  -2  -5  10   75.67    9.16
   2   5 -10   72.29    9.93
  -2  -5  10   64.43   11.51
   2   5 -10   61.00   11.28
  -2  -5   9    0.50    7.90
   2   5  -9   13.36    7.67
  -2  -5   9   14.39   10.78
   2   5  -9  -20.80    9.70
  -2  -5   8  769.33   36.19
   2   5  -8  786.47   37.32
  -2  -5   8  754.44   41.78
   2   5  -8  702.55   38.85
  -2  -5   7   89.75    9.52
   2   5  -7  104.68    9.61
  -2  -5   7   94.80   12.09
   2   5  -7  105.27   11.28
  -2  -5   6 1237.24   55.95
   2   5  -6 1355.91   60.33
  -2  -5   6 1248.97   65.16
   2   5  -6 1195.28   62.13
  -2  -5   5   55.00    6.77
   2   5  -5   75.08    7.49
  -2  -5   5   56.31   10.20
   2   5  -5   58.57    9.20
  -2  -5   4   21.12    5.50
   2   5  -4   15.84    5.32
  -2  -5   4   16.97    8.17
   2   5  -4   13.99    7.54
  -2  -5   3  185.00   10.15
   2   5  -3  196.87   10.96
  -2  -5   3  177.83   13.67
   2   5  -3  191.99   13.94
  -2  -5   2  370.59   17.55
   2   5  -2  347.84   16.42
  -2  -5   2  359.89   21.61
   2   5  -2  372.89   21.97
  -2  -5   1    5.69    3.25
   2   5  -1   22.61    3.43
  -2  -5   1    6.68    7.26
   2   5  -1    8.57    7.90
  -2  -5   0  430.28   19.00
  -2  -5   0  441.79   24.91
  -2  -5  -1  100.35    5.10
  -2  -5  -1   93.45    4.96
  -2  -5  -1  106.08   10.38
  -2  -5  -2    4.24    2.89
   2   5   2    1.08    2.98
  -2  -5  -3   12.45    4.02
   2   5   3    1.13    4.33
  -2  -5  -4   64.61    6.36
   2   5   4   61.59    5.87
  -2  -5  -5 1057.20   47.51
   2   5   5  993.13   44.49
  -2  -5  -6  132.75    9.84
   2   5   6  136.45    9.93
  -2  -5  -6  116.01    9.88
  -2  -5  -7  301.14   16.60
   2   5   7  333.27   17.91
  -2  -5  -7  273.35   17.42
  -2  -5  -8   -4.24    7.17
   2   5   8    1.76    6.99
  -2  -5  -8    6.59    8.08
  -2  -5  -9  127.02   11.28
   2   5   9  140.55   11.05
  -2  -5  -9  119.21   12.14
  -2  -5 -10    0.90    7.67
   2   5  10    6.32    7.72
  -2  -5 -10   -0.68    8.35
  -2  -5 -11   80.32    9.97
   2   5  11   94.49   10.69
  -2  -5 -11   90.74   10.92
  -2  -5 -12  414.04   22.43
   2   5  12  400.68   22.06
  -2  -5 -12  379.97   23.42
  -2  -5 -13   68.00    9.66
   2   5  13   82.98   10.51
  -2  -5 -13   70.34   10.56
  -2  -5 -14  300.65   17.64
   2   5  14  314.00   17.91
  -2  -5 -14  311.79   20.40
  -2  -5 -15   16.42    8.80
   2   5  15    4.33    7.31
  -2  -5 -15   -3.07    9.43
  -2  -5 -16   18.91    8.30
   2   5  16   29.42    8.17
  -2  -5 -16   13.31   11.42
  -2  -5 -17    5.55    7.58
   2   5  17   12.09    8.35
  -2  -5 -17  -12.23   10.92
  -2  -6  14    3.38    9.79
   2   6 -14  -11.73   10.24
  -2  -6  14    7.45   11.28
   2   6 -14    4.38   10.56
  -2  -6  13   19.09    9.70
   2   6 -13   26.49   10.24
  -2  -6  13   10.74   10.69
   2   6 -13   16.56    9.39
  -2  -6  12    1.99    8.66
   2   6 -12   19.27    9.52
  -2  -6  12   10.02    9.43
   2   6 -12   13.18    9.93
  -2  -6  11   -0.99    8.44
   2   6 -11    4.33    8.98
  -2  -6  11   15.21   10.33
   2   6 -11   14.57    8.93
  -2  -6  10   -6.23    7.45
   2   6 -10   -3.07    8.66
  -2  -6  10   20.40   10.60
   2   6 -10   -1.17    9.66
  -2  -6   9  236.17   15.48
   2   6  -9  157.84   12.90
  -2  -6   9  176.29   15.79
   2   6  -9  180.31   14.98
  -2  -6   8  272.90   16.11
   2   6  -8  278.81   16.38
  -2  -6   8  266.40   19.76
   2   6  -8  256.16   18.18
  -2  -6   7  352.40   18.68
   2   6  -7  349.24   19.00
  -2  -6   7  386.47   24.46
   2   6  -7  360.12   23.19
  -2  -6   6  805.88   36.82
   2   6  -6  847.84   38.99
  -2  -6   6  799.11   43.81
   2   6  -6  803.62   43.45
  -2  -6   5  227.01   12.77
   2   6  -5  231.93   13.04
  -2  -6   5  223.31   16.47
   2   6  -5  205.71   15.30
  -2  -6   4  379.93   19.18
   2   6  -4  349.74   17.28
  -2  -6   4  357.59   21.97
   2   6  -4  343.74   20.85
  -2  -6   3   -6.32    3.88
   2   6  -3   -2.84    4.11
  -2  -6   3   11.33    7.94
   2   6  -3   -8.44    7.04
  -2  -6   2  162.66    8.53
   2   6  -2  153.91    8.30
  -2  -6   2  168.21   13.18
   2   6  -2  156.84   12.59
  -2  -6   1   62.40    3.93
   2   6  -1   52.97    3.61
  -2  -6   1   72.15    9.30
   2   6  -1   51.17    8.03
  -2  -6   0 4791.94  238.15
  -2  -6  -1   11.78    7.35
  -2  -6  -2 2312.49   99.36
  -2  -6  -3 2593.60  111.54
   2   6   3 2577.81  111.00
  -2  -6  -4 3420.24  147.14
   2   6   4 3219.44  138.57
  -2  -6  -5  993.58   44.40
   2   6   5  999.00   44.67
  -2  -6  -6  864.08   39.53
   2   6   6  881.68   40.16
  -2  -6  -7  709.77   33.35
   2   6   7  708.86   33.30
  -2  -6  -7  757.60   40.70
  -2  -6  -8   48.15    7.94
   2   6   8   46.34    8.17
  -2  -6  -8   49.50    9.20
  -2  -6  -9  406.10   21.25
   2   6   9  430.60   22.43
  -2  -6  -9  404.79   24.46
  -2  -6 -10   50.99    8.53
   2   6  10   69.98    9.48
  -2  -6 -10   53.56    9.39
  -2  -6 -11  261.66   16.11
   2   6  11  288.96   17.28
  -2  -6 -11  279.35   18.91
  -2  -6 -12   62.63    9.61
   2   6  12   90.15   10.51
  -2  -6 -12   69.22   11.19
  -2  -6 -13  533.34   27.03
   2   6  13  545.52   27.34
  -2  -6 -13  558.61   31.63
  -2  -6 -14   14.57    9.11
   2   6  14   13.18    8.48
  -2  -6 -14    6.45    9.16
  -2  -6 -15   13.13    9.25
   2   6  15   27.30    8.35
  -2  -6 -15   19.76    9.84
  -2  -6 -16    7.40    8.89
   2   6  16   -0.50    7.67
  -2  -6 -16   22.88   10.60
  -2  -6 -17    7.45    9.02
   2   6  17   17.19    8.62
  -2  -6 -17    3.29   11.46
  -2  -7  13   13.85   10.42
   2   7 -13   17.10   10.65
  -2  -7  13   37.23   10.74
   2   7 -13   30.91   10.92
  -2  -7  12    6.63    9.02
   2   7 -12   21.25    9.43
  -2  -7  12   16.47   10.11
   2   7 -12   26.94    9.34
  -2  -7  11  -11.69    7.99
   2   7 -11   -2.48    9.30
  -2  -7  11    2.98   10.20
   2   7 -11    1.76    9.34
  -2  -7  10   13.85    7.94
   2   7 -10    4.15    8.71
  -2  -7  10    2.44   10.51
   2   7 -10    3.34    9.25
  -2  -7   9  166.91   11.96
   2   7  -9  163.88   12.90
  -2  -7   9  168.62   15.21
   2   7  -9  165.87   14.21
  -2  -7   8   38.40    7.54
   2   7  -8   45.39    8.93
  -2  -7   8   59.15   11.28
   2   7  -8   49.27   10.87
  -2  -7   7 1114.51   51.03
   2   7  -7 1071.64   48.64
  -2  -7   7  990.42   53.15
   2   7  -7 1020.66   54.06
  -2  -7   6   -0.36    6.50
   2   7  -6  -11.01    5.91
  -2  -7   6    9.52    9.84
   2   7  -6   12.81    8.26
  -2  -7   5  293.70   15.03
   2   7  -5  234.90   13.22
  -2  -7   5  242.98   17.28
   2   7  -5  253.95   16.97
  -2  -7   4    1.67    4.42
   2   7  -4   -1.22    4.51
  -2  -7   4   -1.04    8.17
   2   7  -4    9.25    7.85
  -2  -7   3  421.39   19.72
   2   7  -3  406.59   18.91
  -2  -7   3  424.78   24.95
   2   7  -3  433.03   25.49
  -2  -7   2    0.41    2.84
   2   7  -2    0.45    2.66
  -2  -7   2    3.29    8.26
   2   7  -2   -5.01    6.86
  -2  -7   1  245.19   16.29
   2   7  -1  269.11   17.42
  -2  -7   0 2483.96  124.81
  -2  -7  -1  106.76   10.38
  -2  -7  -2  288.69   13.00
  -2  -7  -2  319.24   19.40
  -2  -7  -3  975.53   42.64
   2   7   3  993.13   43.45
  -2  -7  -4  365.22   17.42
   2   7   4  342.66   16.51
  -2  -7  -5   32.49    6.09
   2   7   5   25.49    5.60
  -2  -7  -6 1982.65   86.68
   2   7   6 1930.31   84.56
  -2  -7  -7   69.49    7.94
   2   7   7   59.83    7.40
  -2  -7  -8   56.22    7.81
   2   7   8   62.94    8.12
  -2  -7  -8   64.98   10.15
  -2  -7  -9   14.44    7.22
   2   7   9   -4.15    6.05
  -2  -7  -9   18.91    8.98
  -2  -7 -10  126.16   10.92
   2   7  10   98.77   10.24
  -2  -7 -10  109.69   11.55
  -2  -7 -11  390.30   21.21
   2   7  11  380.06   20.35
  -2  -7 -11  448.20   26.44
  -2  -7 -12  218.25   14.21
   2   7  12  207.56   13.72
  -2  -7 -12  212.03   16.60
  -2  -7 -13  185.86   13.36
   2   7  13  201.06   13.36
  -2  -7 -13  185.77   15.70
  -2  -7 -14   26.40    9.16
   2   7  14   21.93    8.26
  -2  -7 -14   37.41   10.33
  -2  -7 -15  229.44   14.30
   2   7  15  225.93   14.66
  -2  -7 -15  240.05   17.69
  -2  -7 -16   20.30    8.53
   2   7  16   10.15    8.71
  -2  -7 -16   22.43   11.19
  -2  -8  13   16.83   11.46
   2   8 -13   13.31   10.60
  -2  -8  13   21.97   10.74
   2   8 -13   19.27   10.02
  -2  -8  12    2.66    9.70
   2   8 -12   13.99    9.61
  -2  -8  12   27.66   11.01
   2   8 -12   13.81    9.52
  -2  -8  11   13.54    9.02
   2   8 -11    2.66    9.25
  -2  -8  11    5.60   10.15
   2   8 -11   19.18    8.57
  -2  -8  10   76.53    9.79
   2   8 -10   82.53   10.11
  -2  -8  10   65.74   11.64
   2   8 -10   62.94   10.11
  -2  -8   9    2.75    6.77
   2   8  -9   16.79    8.93
  -2  -8   9   10.42   10.02
   2   8  -9   -1.71    9.70
  -2  -8   8  229.49   14.44
   2   8  -8  243.61   14.80
  -2  -8   8  268.70   18.86
   2   8  -8  261.66   18.55
  -2  -8   7   30.50    7.08
   2   8  -7   39.21    8.44
  -2  -8   7   14.89   10.29
   2   8  -7   17.96    9.25
  -2  -8   6  721.05   33.25
   2   8  -6  745.86   34.61
  -2  -8   6  664.64   37.54
   2   8  -6  721.05   39.21
  -2  -8   5  114.56    8.89
   2   8  -5  120.75    8.98
  -2  -8   5  104.86   12.68
   2   8  -5  116.91   12.59
  -2  -8   4  290.99   14.53
   2   8  -4  306.06   15.30
  -2  -8   4  301.14   19.72
   2   8  -4  263.38   17.87
  -2  -8   3    6.27    3.16
   2   8  -3    8.26    3.47
  -2  -8   3   15.97    8.53
   2   8  -3    4.33    7.72
  -2  -8   2  126.52    6.41
   2   8  -2  127.33    6.36
  -2  -8   2  139.88   12.50
   2   8  -2  151.52   12.09
  -2  -8   1  124.18   11.96
  -2  -8   0   -6.09    6.81
  -2  -8  -1  979.60   51.35
  -2  -8  -2  179.18   13.18
  -2  -8  -3  208.73   10.15
   2   8   3  198.13    9.75
  -2  -8  -4  267.35   13.22
   2   8   4  289.28   14.17
  -2  -8  -5 1202.05   52.84
   2   8   5 1221.00   53.97
  -2  -8  -6   11.05    6.00
   2   8   6    4.92    5.41
  -2  -8  -7    3.84    5.41
   2   8   7   -1.71    5.91
  -2  -8  -8   24.91    7.26
   2   8   8   20.44    6.27
  -2  -8  -8   21.03    8.93
  -2  -8  -9  155.08   11.60
   2   8   9  144.57   11.19
  -2  -8  -9  149.89   12.54
  -2  -8 -10   16.06    7.67
   2   8  10    2.66    7.04
  -2  -8 -10   -0.45    7.99
  -2  -8 -11   26.89    8.17
   2   8  11   45.39    8.12
  -2  -8 -11   40.43    9.61
  -2  -8 -12  405.60   21.75
   2   8  12  358.76   19.58
  -2  -8 -12  386.87   24.00
  -2  -8 -13   29.92    8.21
   2   8  13   38.26    8.35
  -2  -8 -13   -6.18   10.42
  -2  -8 -14  995.84   45.84
   2   8  14  987.27   45.39
  -2  -8 -14  990.42   52.57
  -2  -8 -15   70.03    9.16
   2   8  15   53.20    9.07
  -2  -8 -15   94.12   12.63
  -2  -8 -16   -0.72    8.17
   2   8  16    2.98    8.44
  -2  -8 -16   17.06   10.51
  -2  -9  12    4.47   10.42
   2   9 -12    7.13   10.83
  -2  -9  12   25.90   10.92
   2   9 -12   11.46    9.39
  -2  -9  11   22.06    8.80
   2   9 -11    9.20    9.11
  -2  -9  11    2.03   10.96
   2   9 -11    7.45    8.62
  -2  -9  10   32.71    8.57
   2   9 -10   42.46    9.30
  -2  -9  10   46.84   10.65
   2   9 -10   33.57    9.11
  -2  -9   9   13.72    7.22
   2   9  -9    7.99    8.21
  -2  -9   9    7.49    9.34
   2   9  -9   -3.34    9.43
  -2  -9   8  101.48    9.43
   2   9  -8  114.70   10.60
  -2  -9   8  121.60   13.27
   2   9  -8  113.48   11.82
  -2  -9   7   12.72    6.77
   2   9  -7   15.43    6.81
  -2  -9   7   -6.09   10.15
   2   9  -7    6.99    9.11
  -2  -9   6    3.56    5.73
   2   9  -6   18.41    6.50
  -2  -9   6   20.94   10.02
   2   9  -6   -6.32    8.62
  -2  -9   5   20.71    5.14
   2   9  -5   26.94    5.73
  -2  -9   5   13.85    9.66
   2   9  -5   37.45    9.43
  -2  -9   4   30.59    4.74
   2   9  -4   22.25    4.47
  -2  -9   4   36.05    9.84
   2   9  -4   37.90    9.75
  -2  -9   3  162.89    8.21
   2   9  -3  158.02    8.03
  -2  -9   3  148.59   13.63
   2   9  -3  177.28   13.18
  -2  -9   2  131.67   12.05
   2   9  -2  131.26   11.15
  -2  -9   1   18.14    7.72
  -2  -9   0 1285.52   66.28
  -2  -9  -1  306.11   19.40
  -2  -9  -2    3.43    7.40
  -2  -9  -3  476.49   21.07
  -2  -9  -3  521.61   29.19
  -2  -9  -4  513.04   23.19
   2   9   4  517.55   23.46
  -2  -9  -5   38.13    5.69
   2   9   5   49.18    5.69
  -2  -9  -6   22.83    5.41
   2   9   6   11.37    5.41
  -2  -9  -7   53.79    7.13
   2   9   7   58.25    6.95
  -2  -9  -8   16.60    6.54
   2   9   8    3.02    6.63
  -2  -9  -8    3.16    7.49
  -2  -9  -9  615.01   29.92
   2   9   9  585.23   28.56
  -2  -9  -9  586.13   32.49
  -2  -9 -10   45.89    8.30
   2   9  10   21.66    7.49
  -2  -9 -10    9.07    8.35
  -2  -9 -11  877.17   40.65
   2   9  11  952.97   44.17
  -2  -9 -11  941.24   50.13
  -2  -9 -12  272.94   16.20
   2   9  12  254.31   15.52
  -2  -9 -12  268.20   18.86
  -2  -9 -13  457.54   23.82
   2   9  13  478.74   24.14
  -2  -9 -13  477.39   28.20
  -2  -9 -14  113.30   11.10
   2   9  14  130.81   11.28
  -2  -9 -14  111.90   13.00
  -2  -9 -15   34.70    9.52
   2   9  15   32.62    8.39
  -2  -9 -15   32.40   10.87
  -2  -9 -16    2.89    9.11
   2   9  16   11.42    8.30
  -2  -9 -16    4.65   10.65
  -2 -10  12    6.00   11.28
   2  10 -12   -9.30    8.75
  -2 -10  11   24.19   10.33
   2  10 -11   15.07   10.65
  -2 -10  11   21.21   10.74
   2  10 -11   21.30   10.74
  -2 -10  10   54.28   10.24
   2  10 -10   36.64    9.61
  -2 -10  10   43.05   10.92
   2  10 -10   53.11   10.29
  -2 -10   9   29.24    8.35
   2  10  -9   29.42    9.20
  -2 -10   9   29.10   10.96
   2  10  -9   17.33   10.33
  -2 -10   8   30.10    7.85
   2  10  -8   49.81    8.62
  -2 -10   8   27.21    9.93
   2  10  -8   48.73    9.39
  -2 -10   7  582.52   27.89
   2  10  -7  586.58   27.98
  -2 -10   7  592.90   33.71
   2  10  -7  519.35   29.65
  -2 -10   6    9.52    5.69
   2  10  -6   10.87    5.50
  -2 -10   6   21.93   10.06
   2  10  -6   24.00    9.97
  -2 -10   5  103.19    8.08
   2  10  -5  106.40    7.63
  -2 -10   5  101.39   12.32
   2  10  -5  115.02   11.73
  -2 -10   4    4.11    3.34
   2  10  -4    1.40    3.34
  -2 -10   4    6.36    9.16
   2  10  -4    9.30    7.54
  -2 -10   3  175.03   14.26
   2  10  -3  189.02   14.26
  -2 -10   2   -9.57    7.90
  -2 -10   1   -6.00    7.76
  -2 -10   0  435.79   25.54
  -2 -10  -1   51.57    8.57
  -2 -10  -2  177.92   13.63
  -2 -10  -3   14.80    7.58
  -2 -10  -4   26.22    3.97
   2  10   4   25.13    3.84
  -2 -10  -4   28.34    7.72
  -2 -10  -5    1.76    4.20
   2  10   5   11.73    4.51
  -2 -10  -6  115.24    8.48
   2  10   6  141.82    9.43
  -2 -10  -7  114.65    9.02
   2  10   7  107.30    8.57
  -2 -10  -8    8.03    6.45
   2  10   8    7.13    6.63
  -2 -10  -9  145.88   11.24
   2  10   9  134.96   10.87
  -2 -10  -9  117.86   12.00
  -2 -10 -10    7.85    7.13
   2  10  10   -0.45    6.99
  -2 -10 -10   10.33    8.30
  -2 -10 -11   25.72    8.12
   2  10  11   22.06    7.90
  -2 -10 -11   21.48    9.16
  -2 -10 -12   15.88    7.63
   2  10  12   45.08    7.90
  -2 -10 -12   31.81    9.48
  -2 -10 -13  149.44   12.09
   2  10  13  147.50   11.51
  -2 -10 -13  165.96   14.26
  -2 -10 -14   76.53   10.11
   2  10  14   81.22    9.93
  -2 -10 -14   87.18   11.73
  -2 -10 -15   33.57   10.87
   2  10  15   39.26    8.35
  -2 -10 -15   12.50   10.56
  -2 -11  11   -3.07   13.13
   2  11 -11   -3.65   12.77
  -2 -11  11    9.39   10.15
   2  11 -11    8.03    9.52
  -2 -11  10  -10.65    9.70
   2  11 -10   12.41   10.24
  -2 -11  10  -14.21    9.52
   2  11 -10    3.34    9.84
  -2 -11   9   59.43    9.75
   2  11  -9   57.17   10.24
  -2 -11   9   79.50   12.00
   2  11  -9   80.68   10.65
  -2 -11   8   94.35    9.48
   2  11  -8   88.03   10.65
  -2 -11   8   84.74   12.41
   2  11  -8  120.20   11.69
  -2 -11   7  236.89   13.72
   2  11  -7  248.58   14.03
  -2 -11   7  236.21   17.19
   2  11  -7  259.41   17.33
  -2 -11   6  128.42    8.89
   2  11  -6  143.58    9.11
  -2 -11   6  124.54   12.95
   2  11  -6  160.72   13.04
   2  11  -5  111.14    7.22
  -2 -11   5  118.99   13.00
   2  11  -5  114.70   11.42
  -2 -11   4   19.67    9.57
   2  11  -4   31.45    9.16
  -2 -11   3   48.78    9.39
  -2 -11   2   40.07    9.30
  -2 -11   1  111.00   11.19
  -2 -11   0  197.63   14.44
  -2 -11  -1  660.58   36.14
  -2 -11  -2   33.98    7.54
  -2 -11  -3  592.45   32.89
  -2 -11  -4  135.23    7.04
  -2 -11  -4  129.95   11.37
  -2 -11  -5   47.24    5.05
   2  11   5   42.60    4.96
  -2 -11  -6  143.04    9.70
   2  11   6  132.75    8.71
  -2 -11  -7   -1.71    5.73
   2  11   7    7.45    5.69
  -2 -11  -8    1.62    6.41
   2  11   8    7.49    6.18
  -2 -11  -9   26.76    8.08
   2  11   9   16.70    6.63
  -2 -11  -9    5.41    7.85
  -2 -11 -10    3.97    7.22
   2  11  10    5.78    7.54
  -2 -11 -10    9.48    8.71
  -2 -11 -11  223.26   14.35
   2  11  11  217.58   14.26
  -2 -11 -11  232.47   16.88
  -2 -11 -12  236.71   15.12
   2  11  12  237.97   14.53
  -2 -11 -12  211.71   16.02
  -2 -11 -13    0.00    8.62
   2  11  13    3.47    7.67
  -2 -11 -13    6.95    9.11
  -2 -11 -14   72.83   10.56
   2  11  14   81.94    9.93
  -2 -11 -14   84.47   13.58
  -2 -11 -15   -1.49   11.55
   2  11  15   -2.39    7.81
  -2 -11 -15    7.22   10.74
  -2 -12  10  -10.15    9.57
   2  12 -10   -9.34   11.46
  -2 -12  10    8.21    9.88
   2  12 -10    5.28    8.57
  -2 -12   9    9.16    9.48
   2  12  -9   -2.30    8.93
  -2 -12   9    2.57   10.33
   2  12  -9   11.78    9.11
  -2 -12   8  261.35   15.43
   2  12  -8  285.17   16.79
  -2 -12   8  276.10   19.22
   2  12  -8  278.27   18.09
  -2 -12   7   25.31    6.99
   2  12  -7    0.45    6.54
  -2 -12   7   22.11    9.84
   2  12  -7   29.28    9.20
   2  12  -6  127.15    8.35
  -2 -12   6  134.78   13.13
   2  12  -6  114.74   10.74
  -2 -12   5   12.63    9.93
   2  12  -5    6.05    8.35
  -2 -12   4   98.37   11.82
   2  12  -4   80.59    9.84
  -2 -12   3   17.73    8.98
  -2 -12   2   32.44    8.75
  -2 -12   1   12.05    7.58
  -2 -12   0  367.07   22.38
  -2 -12  -1  320.82   19.76
  -2 -12  -2  343.20   20.89
  -2 -12  -3   34.11    7.85
  -2 -12  -4   39.08    7.90
  -2 -12  -5  109.42    6.77
   2  12   5  109.65    6.68
  -2 -12  -5  113.62   10.60
  -2 -12  -6    0.95    4.78
   2  12   6    0.00    4.65
  -2 -12  -7    7.17    5.91
   2  12   7    0.41    5.50
  -2 -12  -8   -2.21    7.13
   2  12   8   12.05    6.18
  -2 -12  -9  267.66   15.84
   2  12   9  268.16   15.25
  -2 -12  -9  268.57   17.82
  -2 -12 -10   -8.57    7.13
   2  12  10   -3.02    6.63
  -2 -12 -10  -19.49    8.12
  -2 -12 -11  151.47   12.41
   2  12  11  147.68   11.33
  -2 -12 -11  131.53   13.04
  -2 -12 -12   90.65    9.70
   2  12  12  105.22   10.38
  -2 -12 -12   89.34   11.37
  -2 -12 -13   68.99   10.51
   2  12  13   62.45    9.57
  -2 -12 -13   60.69   10.92
  -2 -12 -14  103.06   12.00
   2  12  14   80.41   10.02
  -2 -12 -14  103.60   13.49
   2  13  -9   41.60   12.32
  -2 -13   9   57.80   12.45
   2  13  -9   67.95    9.20
   2  13  -8   -0.23    9.34
  -2 -13   8   -2.53   10.29
   2  13  -8   -0.23    8.26
   2  13  -7  162.71    9.70
  -2 -13   7  198.08   15.97
   2  13  -7  205.89   14.80
  -2 -13   6    5.01   10.33
   2  13  -6   10.96    8.03
  -2 -13   5  159.37   13.99
  -2 -13   4    1.35    8.98
  -2 -13   3   20.40    9.30
  -2 -13   2   -7.94    8.75
  -2 -13   1   35.29    8.71
  -2 -13   0 1046.83   54.82
  -2 -13  -1  331.42   20.67
  -2 -13  -2  740.45   39.84
  -2 -13  -3    6.99    7.76
  -2 -13  -4  582.97   32.22
  -2 -13  -5    8.71    8.17
  -2 -13  -6    0.09    4.83
   2  13   6    3.20    4.60
  -2 -13  -6   11.15    7.45
  -2 -13  -7   68.22    7.58
   2  13   7   64.75    7.08
   2  13   8    4.92    6.18
  -2 -13  -9  719.69   33.98
   2  13   9  678.63   31.90
  -2 -13  -9  689.46   37.59
  -2 -13 -10   69.13   10.11
   2  13  10   67.50    8.93
  -2 -13 -10   72.38    9.97
  -2 -13 -11   58.07    9.39
   2  13  11   35.96    8.71
  -2 -13 -11   50.67   10.96
  -2 -13 -12    3.52    9.52
   2  13  12   17.64    8.98
  -2 -13 -12    5.64   10.42
  -2 -13 -13  219.34   15.79
   2  13  13  223.17   15.21
  -2 -13 -13  211.03   16.70
  -2 -14   8   20.53   12.27
   2  14  -8   20.80    7.40
  -2 -14   7   66.74   12.59
   2  14  -7   50.67    8.84
  -2 -14   6   55.27   11.33
  -2 -14   5  -12.77    9.84
  -2 -14   4  -10.42    8.98
  -2 -14   3   31.99   10.06
  -2 -14   2    9.20    8.53
  -2 -14   1    8.89    8.53
  -2 -14   0   51.62    9.93
  -2 -14  -1  519.80   29.15
  -2 -14  -2   63.80    9.16
  -2 -14  -3  305.38   19.31
  -2 -14  -4   56.18    8.39
  -2 -14  -5    1.13    6.81
  -2 -14  -6  155.94    8.08
  -2 -14  -6  204.31   14.26
  -2 -14  -7   24.28    6.68
   2  14   7   19.63    5.96
  -2 -14  -7   28.25    8.48
  -2 -14  -8  157.38   11.78
   2  14   8  158.15   11.01
  -2 -14  -8  212.30   14.98
  -2 -14  -9   17.10    8.35
   2  14   9   10.47    6.99
  -2 -14  -9   13.31    9.02
  -2 -14 -10   27.57    9.07
   2  14  10    8.93    8.26
  -2 -14 -10   39.75   10.15
  -2 -14 -11   34.34   10.74
   2  14  11   48.15    9.52
  -2 -14 -11   16.97   10.47
  -2 -14 -12  312.83   19.99
   2  14  12  266.99   17.10
  -2 -14 -12  283.09   19.63
  -2 -15   6  -13.58   11.37
  -2 -15   5   19.22   10.87
  -2 -15   4   19.45   10.56
  -2 -15   3    8.89   10.29
  -2 -15   2   13.49    9.52
  -2 -15   1   -3.43    9.66
  -2 -15   0   83.88   11.24
  -2 -15  -1  352.67   21.79
  -2 -15  -2  107.75   11.73
  -2 -15  -3   70.98   10.42
  -2 -15  -4   11.96    8.84
  -2 -15  -5   59.79    9.02
  -2 -15  -6   13.85    7.94
  -2 -15  -7    7.90    4.24
  -2 -15  -7    1.71    9.11
  -2 -15  -8    1.49    7.49
   2  15   8    6.27    6.86
  -2 -15  -8   17.73    9.39
  -2 -15  -9  151.38   12.90
   2  15   9  157.57   12.50
  -2 -15  -9  163.03   13.67
  -2 -15  -9  154.63   13.99
  -2 -15 -10   44.94   11.60
   2  15  10   41.29    9.75
  -2 -15 -10   49.14   10.60
  -2 -15 -11   54.69   14.26
   2  15  11   52.12   10.83
  -2 -15 -11   61.41   11.05
  -2 -16   5   46.57   12.09
  -2 -16   4   32.85   10.96
  -2 -16   3   16.88    9.84
  -2 -16   2   -1.94   10.11
  -2 -16   1   16.70    9.34
  -2 -16   0  256.97   17.96
  -2 -16  -1    6.14    8.75
  -2 -16  -2  184.01   14.80
  -2 -16  -3    6.54    9.30
  -2 -16  -4   27.98    8.80
  -2 -16  -5   53.97   10.60
  -2 -16  -6   22.25    8.57
  -2 -16  -7   -0.86    9.93
  -2 -16  -8   20.03   10.60
  -2 -16  -9   52.57   10.42
   2  16   9   48.51    9.79
  -2 -16  -9   60.73   11.01
  -2 -16  -9   64.34   10.83
  -2 -16 -10   11.01   14.26
   2  16  10   18.41   11.46
  -2 -16 -10   14.66    8.98
  -2 -16 -10   14.57   10.42
  -2 -17   2   19.94   10.69
  -2 -17   1    4.60    9.34
  -2 -17   0   51.71   10.96
  -2 -17  -1  325.78   20.80
  -2 -17  -2   58.43   10.51
  -2 -17  -3    8.80    9.79
  -2 -17  -4  167.36   15.39
  -2 -17  -5   31.77    9.61
  -2 -17  -6   33.39   10.87
  -2 -17  -7   55.91   11.24
  -2 -17  -8   14.53   11.64
  -2 -18  -2    7.17   10.87
  -2 -18  -3   17.96   10.78
   3 -17  -4   18.32   11.10
   3 -17  -3   14.44   11.10
   3 -17  -2   27.07   12.59
   3 -17  -1   92.59   14.12
   3 -17   0    8.62   12.14
   3 -17   1  260.62   20.17
   3 -17   2  -23.55   13.09
   3 -17   3   11.19   15.07
  -3  16   7    5.82   11.91
   3 -16  -7    8.39   13.45
   3 -16  -7   19.22   12.90
  -3  16   6  157.38   14.71
   3 -16  -6  173.18   15.43
   3 -16  -6  200.97   16.83
  -3  16   5   28.25   10.74
   3 -16  -5   31.04   11.51
   3 -16  -5   63.80   12.14
  -3  16   4   11.60    8.53
   3 -16  -4   -2.89    9.34
   3 -16  -3   22.61   10.42
   3 -16  -2   36.01   10.24
   3 -16  -1   31.86   10.92
   3 -16   0  212.16   16.92
   3 -16   1   21.07   10.83
   3 -16   2   -8.44   11.15
   3 -16   3   61.23   15.07
   3 -16   4   58.66   16.70
   3 -16   5   -5.60   15.21
   3 -16   6   18.86   14.26
  -3  15   8   11.15   10.74
   3 -15  -8    0.41    9.61
   3 -15  -8    7.26    9.93
   3 -15  -8    1.71   11.64
  -3  15   7  167.13   13.81
   3 -15  -7  188.43   13.85
   3 -15  -7  166.14   15.25
   3 -15  -7  153.23   14.39
  -3  15   6   15.48    9.61
   3 -15  -6    6.50    9.34
   3 -15  -6   -8.53    9.61
  -3  15   5    8.62    7.94
   3 -15  -5   22.15    9.25
   3 -15  -5    0.68    9.16
  -3  15   4    5.73    7.99
   3 -15  -4    9.48    8.53
  -3  15   3   26.31    7.26
   3 -15  -3   41.56    9.57
  -3  15   2  412.55   19.40
  -3  15   2  420.85   19.81
   3 -15  -2  457.08   26.58
   3 -15  -1   83.20   11.05
   3 -15   0  250.25   17.28
   3 -15   1    6.68    9.20
   3 -15   2  216.49   16.70
   3 -15   3   29.15   10.42
   3 -15   4   15.52   11.55
   3 -15   5   32.17   13.00
   3 -15   6   15.61   13.58
   3 -15   7   18.45   13.63
  -3  15  -8   13.22   10.51
   3 -15   8    0.41   14.75
  -3  14  10   52.25   11.01
   3 -14 -10   25.45   11.37
   3 -14 -10   22.97   12.32
   3 -14 -10   49.14   14.48
  -3  14   9   14.08    9.75
   3 -14  -9   27.84    9.34
   3 -14  -9   27.57   10.51
   3 -14  -9   25.36   12.14
  -3  14   8  104.46   11.37
   3 -14  -8  116.59   11.73
   3 -14  -8  106.26   12.36
   3 -14  -8   97.46   11.78
  -3  14   7   53.56   10.47
   3 -14  -7   52.57    9.30
   3 -14  -7   44.31    8.80
   3 -14  -7   55.59   10.42
  -3  14   6   11.01    7.54
   3 -14  -6    4.78    6.95
   3 -14  -6  -13.13    7.99
   3 -14  -6   -2.44    8.80
  -3  14   5    7.13    7.54
   3 -14  -5    7.94    7.08
   3 -14  -5   -3.52    7.45
  -3  14   4    5.82    6.86
   3 -14  -4   -7.85    7.72
  -3  14   3  384.98   19.18
   3 -14  -3  391.12   22.88
  -3  14   2   -0.18    5.64
  -3  14   2    6.59    4.92
   3 -14  -2    0.00    7.63
  -3  14   1  471.07   21.70
  -3  14   1  443.91   20.67
   3 -14  -1  450.86   25.76
   3 -14   0  102.25   11.15
   3 -14   1  643.89   35.06
   3 -14   2    0.72    8.12
   3 -14   3    8.30    9.25
   3 -14   4    2.44    9.61
   3 -14   5   16.74   11.96
  -3  14  -6   43.50    9.79
   3 -14   6   42.82   12.81
  -3  14  -7   55.45    8.03
  -3  14  -7   46.79    7.45
  -3  14  -7   55.95   10.29
   3 -14   7   48.87   12.68
  -3  14  -8    6.86    8.08
  -3  14  -8    8.84    8.44
  -3  14  -8   10.42   10.15
   3 -14   8   20.12   11.82
  -3  14  -9   36.37   10.11
  -3  14  -9   41.65   10.51
  -3  14  -9   27.52    9.97
   3 -14   9   19.13   13.45
  -3  13  11   15.12   10.06
   3 -13 -11    7.35   10.11
   3 -13 -11   20.12   14.30
  -3  13  10   74.27   10.74
   3 -13 -10   85.69   11.10
   3 -13 -10  100.62   14.48
  -3  13   9   62.18    9.93
   3 -13  -9   70.84   10.69
   3 -13  -9   76.44   11.96
   3 -13  -9   50.81   10.74
  -3  13   8   11.91    8.17
   3 -13  -8   11.69    7.72
   3 -13  -8   19.67    9.84
   3 -13  -8    2.26    8.80
  -3  13   7    2.93    7.90
   3 -13  -7    0.77    7.67
   3 -13  -7   -7.13    8.57
   3 -13  -7   11.55    7.35
  -3  13   6   41.38    8.48
   3 -13  -6   14.57    7.45
   3 -13  -6   28.70    8.26
   3 -13  -6   25.09    7.58
  -3  13   5    8.08    7.35
   3 -13  -5    6.32    6.68
   3 -13  -5   17.96    8.03
   3 -13  -5    8.84    6.59
  -3  13   4   42.50    7.67
   3 -13  -4   46.02    7.67
  -3  13   3   20.58    6.18
   3 -13  -3   -6.45    7.08
  -3  13   2  356.24   17.69
   3 -13  -2  369.37   21.43
  -3  13   1  367.61   17.69
  -3  13   1  396.98   19.00
   3 -13  -1  349.56   20.71
  -3  13   0  233.51   11.91
  -3  13   0  218.39   11.33
   3 -13   0  279.85   17.91
  -3  13  -1  214.51   10.74
  -3  13  -1  206.84   10.51
   3 -13   1  225.56   16.02
  -3  13  -2  107.34    6.41
  -3  13  -2  106.08    6.50
   3 -13   2  126.84   12.14
  -3  13  -3   15.70    3.70
  -3  13  -3    9.84    3.84
   3 -13   3    6.36    9.57
  -3  13  -4   19.63    4.69
  -3  13  -4   19.72    4.24
   3 -13   4   13.36    9.75
  -3  13  -5   10.38    4.69
  -3  13  -5   10.06    4.92
  -3  13  -5   10.92    8.17
   3 -13   5   -2.57   10.29
  -3  13  -6   18.00    5.82
  -3  13  -6   13.58    6.27
  -3  13  -6   19.00    9.39
   3 -13   6   27.93   10.78
  -3  13  -7  166.32   11.15
  -3  13  -7  147.77   10.29
  -3  13  -7  147.01   13.04
   3 -13   7  155.22   15.88
  -3  13  -8   88.12    9.57
  -3  13  -8  104.46   10.51
  -3  13  -8   92.50   12.27
   3 -13   8   65.88   13.00
  -3  13  -9  186.13   13.54
  -3  13  -9  148.90   13.94
   3 -13   9  149.85   16.02
  -3  13 -10   97.51   12.45
  -3  13 -10   86.45   12.77
   3 -13  10  111.99   14.44
  -3  12  11  117.63   10.96
   3 -12 -11  102.38   12.00
   3 -12 -11  123.05   16.33
  -3  12  10    6.77    8.48
   3 -12 -10    4.33    8.26
   3 -12 -10   10.65   10.87
  -3  12   9  298.39   17.46
   3 -12  -9  264.55   15.97
   3 -12  -9  291.89   19.40
  -3  12   8   26.67    8.08
   3 -12  -8   51.94    9.07
   3 -12  -8   35.87    8.89
  -3  12   7   57.85    8.98
   3 -12  -7   38.76    8.89
   3 -12  -7   60.10    8.44
   3 -12  -7   53.65    9.16
  -3  12   6  102.34    9.39
   3 -12  -6  125.44   10.47
   3 -12  -6  131.53   11.51
   3 -12  -6  137.53   10.78
  -3  12   5   15.52    7.54
   3 -12  -5   23.51    6.77
   3 -12  -5   23.91    7.31
   3 -12  -5   15.61    6.68
  -3  12   4   61.09    8.12
   3 -12  -4   36.82    7.04
   3 -12  -4   29.51    6.86
  -3  12   3   82.12    7.67
   3 -12  -3   69.22    8.62
  -3  12   2  283.50   14.75
   3 -12  -2  280.79   17.42
  -3  12   1    3.70    4.69
   3 -12  -1    4.83    6.77
  -3  12   0  461.60   21.66
  -3  12   0  470.17   22.02
   3 -12   0  420.26   23.91
  -3  12  -1   10.74    4.69
  -3  12  -1   19.40    4.33
   3 -12   1    3.75    7.58
  -3  12  -2  349.74   16.60
  -3  12  -2  386.78   18.32
   3 -12   2  347.57   21.43
  -3  12  -3   51.57    5.14
  -3  12  -3   56.94    5.73
   3 -12   3   57.76    9.93
  -3  12  -4   85.60    6.54
  -3  12  -4   82.17    6.68
  -3  12  -4   92.86    9.93
   3 -12   4   77.97   11.42
  -3  12  -5   -3.38    4.74
  -3  12  -5   -2.62    5.32
  -3  12  -5    7.54    7.49
   3 -12   5  -15.39   10.38
  -3  12  -6  162.89   10.02
  -3  12  -6  160.23   10.33
  -3  12  -6  142.36   12.23
   3 -12   6  145.88   14.39
  -3  12  -7   32.26    6.81
  -3  12  -7   17.55    6.72
  -3  12  -7   25.45    8.93
   3 -12   7   20.76   10.42
  -3  12  -8   42.78    7.90
  -3  12  -8   27.48    9.66
   3 -12   8   52.61   12.23
  -3  12  -9  331.33   18.05
  -3  12  -9  339.77   21.48
   3 -12   9  318.33   22.56
  -3  12 -10   73.59   10.42
  -3  12 -10   58.66   11.96
   3 -12  10   84.33   14.30
  -3  12 -11   24.59    9.88
  -3  12 -11   27.66   10.38
   3 -12  11   33.12   12.05
  -3  11  12  210.27   13.49
   3 -11 -12   40.38   11.96
   3 -11 -12   73.41   17.15
  -3  11  11   52.39    9.61
   3 -11 -11   53.56   10.15
   3 -11 -11   30.59   12.14
  -3  11  10  195.38   13.67
   3 -11 -10  201.88   13.36
   3 -11 -10  151.29   14.39
  -3  11   9   69.40    9.84
   3 -11  -9   75.49    9.66
   3 -11  -9   57.94   10.20
  -3  11   8    0.77    8.26
   3 -11  -8   -1.04    7.45
   3 -11  -8   -3.38    8.08
  -3  11   7  686.75   33.12
   3 -11  -7  721.95   33.93
   3 -11  -7  670.51   36.50
  -3  11   6   11.01    7.22
   3 -11  -6    4.92    6.77
   3 -11  -6   31.18    7.99
   3 -11  -6   10.74    6.32
  -3  11   5  115.56    9.79
   3 -11  -5  103.10    8.71
   3 -11  -5  137.53   10.87
   3 -11  -5  122.24    9.93
  -3  11   4   14.44    7.04
   3 -11  -4   18.36    5.73
   3 -11  -4   14.89    6.32
  -3  11   3  171.10   11.24
   3 -11  -3  187.44   11.15
   3 -11  -3  169.75   11.82
  -3  11   2  164.60   10.74
   3 -11  -2  174.26   11.96
  -3  11   1  554.55   25.81
   3 -11  -1  554.10   29.96
  -3  11   0  445.13   21.12
  -3  11   0  484.61   22.83
   3 -11   0  498.15   27.52
  -3  11  -1  935.83   41.56
  -3  11  -1  883.94   39.39
   3 -11   1  823.47   43.27
  -3  11  -2   18.14    4.56
  -3  11  -2   12.68    4.74
   3 -11   2    6.77    7.90
  -3  11  -3    9.93    4.38
  -3  11  -3    3.61    4.47
   3 -11   3    4.47    8.26
  -3  11  -4   18.95    5.10
  -3  11  -4   17.42    5.10
  -3  11  -4   16.47    7.90
   3 -11   4    8.53    8.66
  -3  11  -5   12.23    5.14
  -3  11  -5    8.71    5.37
  -3  11  -5   23.33    9.52
   3 -11   5   23.82    9.30
  -3  11  -6  139.92    9.25
  -3  11  -6  155.31   10.38
  -3  11  -6  129.23   12.14
   3 -11   6  113.98   13.58
  -3  11  -7   18.05    5.96
  -3  11  -7   21.16    9.70
   3 -11   7   -0.05    9.84
  -3  11  -8  255.21   14.62
  -3  11  -8  248.31   18.05
   3 -11   8  242.53   17.91
  -3  11  -9   12.05    7.31
  -3  11  -9   19.40    8.98
   3 -11   9   14.48   11.24
  -3  11 -10  112.44   10.38
  -3  11 -10   87.36   11.69
   3 -11  10  137.04   15.84
  -3  11 -11   17.28    8.35
  -3  11 -11    4.47   10.11
   3 -11  11   29.06   12.54
  -3  11 -12   -7.40    8.80
  -3  11 -12   -4.42   10.92
   3 -11  12  -16.60   12.14
  -3  10  13    6.18    8.48
   3 -10 -13  -14.26    9.79
   3 -10 -13    7.45   15.52
  -3  10  12  122.33   11.37
   3 -10 -12  134.28   12.68
   3 -10 -12  124.09   15.39
  -3  10  11   39.93    9.20
   3 -10 -11   47.24    8.98
   3 -10 -11   45.66   11.15
  -3  10  10  123.77   11.19
   3 -10 -10  135.14   12.23
   3 -10 -10  125.80   12.95
  -3  10   9   12.68    7.35
   3 -10  -9    3.02    7.45
   3 -10  -9   -5.01    8.75
  -3  10   8  110.55   10.92
   3 -10  -8  103.37   10.11
   3 -10  -8  103.15   10.60
  -3  10   7    7.31    8.21
   3 -10  -7    8.30    7.13
   3 -10  -7   -6.45    7.49
  -3  10   6   95.97    9.84
   3 -10  -6   86.32    8.93
   3 -10  -6   87.76    9.43
  -3  10   5   10.20    6.54
   3 -10  -5    6.32    6.72
   3 -10  -5   15.93    6.05
   3 -10  -5    6.68    5.19
  -3  10   4  295.01   15.97
   3 -10  -4  275.33   15.61
   3 -10  -4  278.27   16.51
  -3  10   3    1.40    5.91
   3 -10  -3    7.90    5.23
   3 -10  -3   16.15    5.50
  -3  10   2  171.55   10.87
   3 -10  -2  199.17   11.73
   3 -10  -2  167.27   11.37
  -3  10   1   30.32    5.64
   3 -10  -1   34.70    6.23
  -3  10   0  284.31   14.80
   3 -10   0  272.49   16.56
  -3  10  -1  146.24    8.89
  -3  10  -1  159.10    9.66
   3 -10   1  149.76   11.60
  -3  10  -2   81.90    6.36
  -3  10  -2   65.02    6.05
   3 -10   2   68.77    8.66
  -3  10  -3   17.19    5.19
  -3  10  -3    8.57    4.96
  -3  10  -3    1.53    7.63
   3 -10   3   12.32    7.94
  -3  10  -4   28.56    5.41
  -3  10  -4   23.24    5.50
  -3  10  -4   35.15    8.12
   3 -10   4   28.79    9.79
  -3  10  -5   32.04    6.00
  -3  10  -5   38.67    5.50
  -3  10  -5   24.59    8.75
   3 -10   5   24.95   10.33
  -3  10  -6   51.66    7.31
  -3  10  -6   59.70   10.11
   3 -10   6   71.83   11.15
  -3  10  -7  316.85   16.83
  -3  10  -7  337.69   20.76
   3 -10   7  304.93   20.58
  -3  10  -8   31.63    6.77
  -3  10  -8   24.55    9.66
   3 -10   8   22.88   10.69
  -3  10  -9   51.75    8.08
  -3  10  -9   59.02   11.28
   3 -10   9   40.16   11.05
  -3  10 -10  136.58   10.60
  -3  10 -10  137.13   14.39
   3 -10  10  141.73   15.16
  -3  10 -11   14.26    7.85
  -3  10 -11    8.39   10.83
   3 -10  11   14.12   11.51
  -3  10 -12    3.61    9.16
  -3  10 -12    6.77   10.51
   3 -10  12   -0.72   11.82
  -3  10 -13    1.40   10.69
   3 -10  13  -11.55    8.66
  -3  10 -13   -7.76   10.47
   3 -10  13   -2.98   11.82
  -3   9  13   38.62    8.80
   3  -9 -13   59.15   10.33
   3  -9 -13   41.11   13.45
  -3   9  12   -6.77    8.66
   3  -9 -12    4.02    8.39
   3  -9 -12  -11.24   11.10
  -3   9  11  114.25   10.69
   3  -9 -11  118.63   11.51
   3  -9 -11  127.56   13.90
  -3   9  10    4.60    8.48
   3  -9 -10   21.07    7.99
   3  -9 -10   26.58    9.52
  -3   9   9  322.76   18.59
   3  -9  -9  328.53   18.68
   3  -9  -9  320.77   19.72
  -3   9   8    2.57    7.76
   3  -9  -8    3.34    7.58
   3  -9  -8    4.65    7.85
  -3   9   7   13.63    7.49
   3  -9  -7    5.87    7.13
   3  -9  -7    1.35    6.99
  -3   9   6   12.41    7.72
   3  -9  -6    9.93    7.31
   3  -9  -6    1.53    5.91
  -3   9   5   21.84    7.35
   3  -9  -5    2.89    6.18
   3  -9  -5   13.85    6.36
  -3   9   4  973.73   44.31
   3  -9  -4  988.62   44.81
   3  -9  -4 1005.77   51.53
   3  -9  -4  946.66   48.64
  -3   9   3  267.75   14.71
   3  -9  -3  247.18   13.85
   3  -9  -3  276.64   16.20
  -3   9   2  879.42   39.98
   3  -9  -2  835.21   37.90
   3  -9  -2  885.74   45.48
  -3   9   1   18.00    5.55
   3  -9  -1   23.10    5.91
  -3   9   0  868.60   38.99
   3  -9   0  872.66   45.12
  -3   9  -1   99.22    7.22
  -3   9  -1   84.60    6.54
   3  -9   1  102.16    9.25
  -3   9  -2  262.07   13.67
  -3   9  -2  279.44   14.26
  -3   9  -2  252.55   15.57
   3  -9   2  266.72   16.56
  -3   9  -3  121.74    8.08
  -3   9  -3  128.37    8.44
  -3   9  -3  128.10   10.24
   3  -9   3  109.65   10.87
  -3   9  -4   38.26    5.32
  -3   9  -4   49.32    6.05
  -3   9  -4   47.06    7.81
   3  -9   4   44.94    9.16
  -3   9  -5  173.13   10.51
  -3   9  -5  180.26   14.30
   3  -9   5  166.00   13.94
  -3   9  -6  249.57   14.17
  -3   9  -6  253.31   17.69
   3  -9   6  263.60   18.68
  -3   9  -7  139.92   10.42
  -3   9  -7  118.90   13.13
   3  -9   7  154.18   14.98
  -3   9  -8    9.88    6.23
  -3   9  -8   10.60   10.11
   3  -9   8   12.86    9.25
  -3   9  -9  330.38   18.00
  -3   9  -9  326.91   22.02
   3  -9   9  357.82   22.92
  -3   9 -10   16.38    7.58
   3  -9  10    1.80    6.45
  -3   9 -10    4.60    9.34
   3  -9  10   -9.25   10.74
  -3   9 -11   33.39    8.26
   3  -9  11   37.00    8.17
  -3   9 -11   30.41   10.60
   3  -9  11   32.40   11.91
  -3   9 -12   11.78    7.72
   3  -9  12   17.91    8.30
  -3   9 -12   14.66    9.97
   3  -9  12   -2.08   11.91
  -3   9 -13    7.63    8.62
   3  -9  13   -6.14    8.35
  -3   9 -13  -10.29   11.01
   3  -9  13   -9.02   11.64
  -3   9 -14   -1.76    9.57
   3  -9  14    4.60    9.93
  -3   9 -14    5.05   10.60
   3  -9  14   29.42   12.68
  -3   8  14   70.16   10.78
   3  -8 -14   79.59   11.05
   3  -8 -14   86.81   15.48
  -3   8  13   32.13    9.30
   3  -8 -13   21.75    9.30
   3  -8 -13   14.44   12.05
  -3   8  12   91.06   10.74
   3  -8 -12   96.34   10.56
   3  -8 -12  125.53   13.40
  -3   8  11  115.56   10.65
   3  -8 -11   93.90   10.69
   3  -8 -11  121.65   12.68
  -3   8  10  196.55   13.63
   3  -8 -10  194.75   13.76
   3  -8 -10  169.66   13.72
  -3   8   9   59.20    9.30
   3  -8  -9   70.21    9.30
   3  -8  -9   76.30   10.15
  -3   8   8   38.35    8.89
   3  -8  -8   14.12    7.31
   3  -8  -8   17.73    8.17
  -3   8   7   13.40    7.81
   3  -8  -7   11.01    7.31
   3  -8  -7   12.23    6.23
  -3   8   6  -10.56    7.04
   3  -8  -6   -0.63    6.59
   3  -8  -6   -2.17    6.18
  -3   8   5    0.23    6.50
   3  -8  -5    0.99    6.09
   3  -8  -5    2.66    5.91
  -3   8   4   36.95    6.99
   3  -8  -4   28.34    6.45
   3  -8  -4   32.08    6.36
  -3   8   3 1006.22   45.48
   3  -8  -3 1059.01   47.47
   3  -8  -3 1043.67   53.06
  -3   8   2  818.96   37.36
   3  -8  -2  858.67   39.08
   3  -8  -2  898.38   45.89
  -3   8   1 1107.74   49.50
   3  -8  -1 1215.58   53.92
   3  -8  -1 1126.24   57.03
  -3   8   0  355.83   17.69
   3  -8   0  365.40   20.40
  -3   8  -1  253.72   13.22
   3  -8   1  283.14   16.74
  -3   8  -2  953.42   42.46
  -3   8  -2  961.10   42.64
  -3   8  -2  976.89   50.40
   3  -8   2 1038.25   53.47
  -3   8  -3   16.15    5.01
  -3   8  -3   18.32    4.60
  -3   8  -3    8.75    6.36
   3  -8   3   18.91    7.85
  -3   8  -4    2.93    5.10
  -3   8  -4   12.59    7.63
   3  -8   4  -12.14    7.67
  -3   8  -5    9.07    5.32
  -3   8  -5   -9.02    7.13
   3  -8   5   -7.17    8.35
  -3   8  -6  621.33   29.15
  -3   8  -6  611.85   33.89
   3  -8   6  684.50   37.59
  -3   8  -7   17.28    6.68
  -3   8  -7   35.78   10.11
   3  -8   7   11.64   10.15
  -3   8  -8  259.90   15.34
   3  -8   8  238.42   14.26
  -3   8  -8  277.23   18.36
   3  -8   8  276.10   19.36
  -3   8  -9   73.46    8.39
   3  -8   9   52.84    7.13
  -3   8  -9   72.56   11.01
   3  -8   9   73.10   11.60
  -3   8 -10  111.18   10.24
   3  -8  10  112.89    9.48
  -3   8 -10  105.59   12.81
   3  -8  10  102.74   13.09
  -3   8 -11   -2.98    7.40
   3  -8  11   -0.05    6.68
  -3   8 -11   -2.57   10.60
   3  -8  11   -4.38   10.65
  -3   8 -12  121.29   11.01
   3  -8  12  120.52   10.47
  -3   8 -12   82.66   12.36
   3  -8  12   79.23   13.18
  -3   8 -13    4.20    8.39
   3  -8  13    2.44    7.85
  -3   8 -13   -4.87   10.33
   3  -8  13  -12.68   10.92
  -3   8 -14   11.19    9.16
   3  -8  14   24.91    9.02
  -3   8 -14   11.87   11.05
   3  -8  14   14.53   12.90
  -3   7  14   93.49   11.15
   3  -7 -14  106.76   11.51
   3  -7 -14  108.20   15.07
  -3   7  13   41.83    8.75
   3  -7 -13   27.39    9.79
   3  -7 -13   20.53   11.01
  -3   7  12  350.42   19.76
   3  -7 -12  345.27   20.03
   3  -7 -12  372.12   24.00
  -3   7  11   60.60   10.15
   3  -7 -11   69.94    9.97
   3  -7 -11   74.81   10.38
  -3   7  10  352.04   20.21
   3  -7 -10  364.72   20.17
   3  -7 -10  394.50   23.91
  -3   7   9    8.75    8.08
   3  -7  -9   19.58    8.66
   3  -7  -9    2.08    8.17
  -3   7   8   26.58    8.57
   3  -7  -8   40.34    8.66
   3  -7  -8   33.30    8.21
  -3   7   7  119.44   11.24
   3  -7  -7  126.52   10.56
   3  -7  -7  136.90   10.69
  -3   7   6   46.88    8.12
   3  -7  -6   40.97    7.76
   3  -7  -6   45.21    7.45
  -3   7   5  298.66   16.83
   3  -7  -5  325.37   17.82
   3  -7  -5  273.80   16.60
  -3   7   4   64.03    7.90
   3  -7  -4   46.11    6.90
   3  -7  -4   46.34    6.50
  -3   7   3  978.69   44.26
   3  -7  -3 1048.63   47.56
   3  -7  -3 1040.51   52.88
  -3   7   2  303.85   16.02
   3  -7  -2  311.12   16.02
   3  -7  -2  331.47   18.14
  -3   7   1 2094.56   91.24
   3  -7  -1 2014.69   87.94
   3  -7  -1 2315.20  115.20
  -3   7   0  267.75   13.99
   3  -7   0  243.61   14.17
  -3   7  -1  172.14   10.11
   3  -7   1  186.08   12.14
  -3   7  -2    9.20    4.42
  -3   7  -2   10.74    4.47
  -3   7  -2    3.25    5.73
   3  -7   2    7.85    6.27
  -3   7  -3   -0.36    4.15
  -3   7  -3    6.27    4.24
  -3   7  -3    0.41    5.78
   3  -7   3    6.09    6.95
  -3   7  -4   51.35    6.36
  -3   7  -4   30.68    6.86
   3  -7   4   52.34    8.12
  -3   7  -5  464.30   22.34
  -3   7  -5  467.91   26.13
   3  -7   5  481.90   27.61
  -3   7  -6   33.03    6.00
  -3   7  -6   31.45    7.58
   3  -7   6   32.17    8.80
  -3   7  -7  462.95   22.83
   3  -7   7  424.19   20.80
  -3   7  -7  398.34   23.15
   3  -7   7  400.55   24.05
  -3   7  -8  155.04   11.05
   3  -7   8  135.14   10.29
  -3   7  -8  160.90   13.54
   3  -7   8  125.80   14.21
  -3   7  -9   70.57    8.48
   3  -7   9   82.84    8.93
  -3   7  -9   66.55   11.19
   3  -7   9   90.02   12.36
  -3   7 -10   29.87    7.90
   3  -7  10   17.46    7.45
  -3   7 -10   20.89   10.60
   3  -7  10   14.35   11.19
  -3   7 -11   18.95    8.12
   3  -7  11   23.06    7.08
  -3   7 -11   -3.16   10.51
   3  -7  11   25.85   11.24
  -3   7 -12    3.61    8.17
   3  -7  12  -18.23    7.90
  -3   7 -12  -18.14    9.70
   3  -7  12   15.79   10.69
  -3   7 -13   12.09    8.08
   3  -7  13   13.31    7.58
  -3   7 -13   22.02   10.78
   3  -7  13    6.50   11.37
  -3   7 -14  101.66   10.60
   3  -7  14   87.27   10.11
  -3   7 -14   97.15   12.59
   3  -7  14   85.46   13.81
  -3   7 -15   20.35    9.16
   3  -7  15   20.67    9.52
  -3   7 -15   -1.04   10.33
   3  -7  15    3.02   11.96
  -3   6  14   -2.26    8.62
   3  -6 -14    9.39    9.48
   3  -6 -14    0.32   11.33
  -3   6  13   -4.33    9.20
   3  -6 -13    8.98    8.30
   3  -6 -13    0.27   10.96
  -3   6  12   27.93    9.16
   3  -6 -12   32.49    9.75
   3  -6 -12   21.52    9.66
  -3   6  11  183.87   13.09
   3  -6 -11  212.52   14.48
   3  -6 -11  257.42   18.32
  -3   6  10   83.16   10.33
   3  -6 -10   75.49   10.06
   3  -6 -10   52.16   10.02
  -3   6   9   36.37    9.34
   3  -6  -9   32.31    8.71
   3  -6  -9   36.77    9.16
  -3   6   8  128.73   11.91
   3  -6  -8  149.94   12.00
   3  -6  -8  148.50   12.50
  -3   6   7   39.08    8.48
   3  -6  -7   55.45    8.53
   3  -6  -7   46.93    7.76
  -3   6   6   67.28    8.80
   3  -6  -6   75.40    8.71
   3  -6  -6   66.06    7.94
  -3   6   5   39.75    7.58
   3  -6  -5   46.75    7.63
   3  -6  -5   30.28    6.41
  -3   6   4   31.22    7.26
   3  -6  -4   23.78    6.32
   3  -6  -4   34.61    6.05
  -3   6   3   15.43    6.63
   3  -6  -3   13.09    6.05
   3  -6  -3   16.56    4.92
  -3   6   2 1512.48   66.74
   3  -6  -2 1513.84   66.78
   3  -6  -2 1490.37   74.54
  -3   6   1   24.32    5.55
   3  -6  -1   25.76    5.41
   3  -6  -1   27.12    4.56
  -3   6   0  325.42   16.47
   3  -6   0  331.24   18.09
  -3   6  -1  457.99   21.66
  -3   6  -1  460.24   24.28
   3  -6   1  443.50   23.73
  -3   6  -2  573.95   26.53
  -3   6  -2  637.12   29.24
  -3   6  -2  609.14   31.90
   3  -6   2  587.49   31.18
  -3   6  -3   13.81    4.96
  -3   6  -3   23.33    6.36
   3  -6   3   21.70    6.27
  -3   6  -4  161.22   10.11
  -3   6  -4  160.54   11.51
   3  -6   4  163.84   12.14
  -3   6  -5 1500.75   66.10
  -3   6  -5 1548.13   78.69
   3  -6   5 1522.41   77.65
  -3   6  -6  287.52   15.43
   3  -6   6  287.11   15.97
  -3   6  -6  267.75   16.65
   3  -6   6  261.66   17.73
  -3   6  -7 1734.48   76.48
   3  -6   7 1771.93   78.29
  -3   6  -7 1784.57   90.83
   3  -6   7 1787.73   91.10
  -3   6  -8    2.48    6.77
   3  -6   8   12.68    7.04
  -3   6  -8   19.13    9.16
   3  -6   8   -2.21    8.93
  -3   6  -9  792.34   37.14
   3  -6   9  723.30   33.84
  -3   6  -9  818.51   44.99
   3  -6   9  815.35   44.67
  -3   6 -10   31.00    7.49
   3  -6  10   42.55    7.99
  -3   6 -10   55.59   11.37
   3  -6  10   43.09   11.91
  -3   6 -11   69.40    9.34
   3  -6  11   98.59    9.79
  -3   6 -11   93.81   11.96
   3  -6  11   85.33   13.76
  -3   6 -12   -8.03    7.22
   3  -6  12   11.33    7.67
  -3   6 -12  -11.46    9.57
   3  -6  12    6.18   11.33
  -3   6 -13  -13.67    8.03
   3  -6  13    1.17    7.08
  -3   6 -13    9.02   10.96
   3  -6  13   13.22   11.01
  -3   6 -14    3.61    8.53
   3  -6  14    0.63    8.21
  -3   6 -14    2.39   10.96
   3  -6  14   11.01   11.46
  -3   6 -15   17.06    8.93
   3  -6  15   20.30    7.85
  -3   6 -15   16.11   10.69
   3  -6  15   25.54   11.69
  -3   5  15    0.59    8.17
   3  -5 -15   11.19    9.61
   3  -5 -15   22.43   13.09
  -3   5  14   22.11    8.75
   3  -5 -14   18.59    8.44
   3  -5 -14   23.78   11.96
  -3   5  13   20.62    9.39
   3  -5 -13   33.35    9.11
   3  -5 -13   31.95   10.60
  -3   5  12  190.23   14.44
   3  -5 -12  226.20   15.34
   3  -5 -12  235.76   17.60
  -3   5  11   40.65    9.30
   3  -5 -11   33.07    9.52
   3  -5 -11   40.02   10.11
  -3   5  10   -0.63    8.35
   3  -5 -10   -0.45    8.71
   3  -5 -10   11.64    8.66
  -3   5   9  816.71   38.94
   3  -5  -9  823.02   39.08
   3  -5  -9  899.73   47.65
  -3   5   8    1.08    7.26
   3  -5  -8   -3.02    8.12
   3  -5  -8   -1.04    8.30
  -3   5   7    8.62    7.63
   3  -5  -7    5.41    7.40
   3  -5  -7   14.75    7.08
  -3   5   6  180.08   12.59
   3  -5  -6  185.72   13.00
   3  -5  -6  161.67   11.78
  -3   5   5   40.34    7.99
   3  -5  -5   45.75    7.81
   3  -5  -5   44.04    6.90
  -3   5   4    3.16    6.72
   3  -5  -4   13.18    6.59
   3  -5  -4    0.14    5.01
  -3   5   3 1389.30   61.73
   3  -5  -3 1377.57   61.28
   3  -5  -3 1511.13   75.67
  -3   5   2   80.00    7.76
   3  -5  -2   71.92    7.49
   3  -5  -2   77.47    6.00
  -3   5   1  110.50    8.71
   3  -5  -1  112.35    8.62
   3  -5  -1  109.87    6.99
  -3   5   0 1817.06   79.19
   3  -5   0 1853.15   80.95
   3  -5   0 1901.89   94.58
  -3   5  -1  308.59   15.61
  -3   5  -1  270.37   15.43
   3  -5   1  262.74   14.89
  -3   5  -2  673.67   30.95
  -3   5  -2  676.38   30.86
  -3   5  -2  603.73   31.77
   3  -5   2  585.68   30.73
  -3   5  -3   46.02    6.23
  -3   5  -3   42.01    7.08
   3  -5   3   42.05    6.90
  -3   5  -4   10.11    5.01
  -3   5  -4    5.82    6.86
   3  -5   4   -3.25    6.95
  -3   5  -5   26.53    5.91
   3  -5   5   31.22    5.50
  -3   5  -5   36.68    7.67
   3  -5   5   35.38    8.48
  -3   5  -6 2920.74  126.61
   3  -5   6 3143.19  135.77
  -3   5  -6 3247.87  162.62
   3  -5   6 3339.47  167.04
  -3   5  -7    5.32    6.09
   3  -5   7    9.61    6.50
  -3   5  -7   11.60    8.66
   3  -5   7   15.52    8.57
  -3   5  -8  848.74   39.21
   3  -5   8  902.89   41.87
  -3   5  -8  900.18   48.10
   3  -5   8  855.06   46.11
  -3   5  -9  284.00   16.15
   3  -5   9  285.58   16.70
  -3   5  -9  278.72   18.82
   3  -5   9  286.84   20.03
  -3   5 -10  166.05   12.36
   3  -5  10  187.35   13.40
  -3   5 -10  163.79   14.08
   3  -5  10  207.33   17.10
  -3   5 -11   36.59    8.44
   3  -5  11   56.22    9.16
  -3   5 -11   34.88   10.20
   3  -5  11   60.51   12.23
  -3   5 -12   94.67    9.84
   3  -5  12   60.33    8.75
  -3   5 -12   43.86   10.65
   3  -5  12   45.62   13.09
  -3   5 -13   11.10    7.72
   3  -5  13    5.69    7.26
  -3   5 -13    4.87    9.34
   3  -5  13    7.85   11.73
  -3   5 -14    1.26    8.12
   3  -5  14   -3.25    7.40
  -3   5 -14    6.14   11.05
   3  -5  14   10.11   11.73
  -3   5 -15   17.82    8.98
   3  -5  15   37.18    8.80
  -3   5 -15   47.33   11.01
   3  -5  15   33.44   11.51
  -3   5 -16    6.54    8.39
   3  -5  16    8.39    8.03
  -3   5 -16  -10.60    9.48
   3  -5  16    7.85   10.20
  -3   4  15    5.41    9.70
   3  -4 -15   10.78    9.20
   3  -4 -15    3.52   10.24
  -3   4  14  209.37   14.35
   3  -4 -14  244.83   15.12
   3  -4 -14  244.43   18.14
  -3   4  13   50.13   10.11
   3  -4 -13   50.04    9.20
   3  -4 -13   45.44   10.47
  -3   4  12   72.60   11.10
   3  -4 -12   41.96    9.70
   3  -4 -12   49.27   10.65
  -3   4  11   56.27   10.24
   3  -4 -11   41.15    9.52
   3  -4 -11   37.45   11.24
  -3   4  10  700.74   34.38
   3  -4 -10  697.58   34.34
   3  -4 -10  822.57   44.22
  -3   4   9   12.63    9.34
   3  -4  -9   19.45    8.93
  -3   4   9    5.64    8.30
   3  -4  -9   26.35    8.53
  -3   4   8   34.20    8.75
   3  -4  -8   21.25    8.44
  -3   4   8    4.65    7.67
   3  -4  -8   21.79    8.66
  -3   4   7   45.39    8.62
   3  -4  -7   46.48    8.66
   3  -4  -7   41.96    7.58
  -3   4   6   72.74    9.16
   3  -4  -6   79.87    8.84
   3  -4  -6   78.47    8.30
  -3   4   5  146.56   11.24
   3  -4  -5  161.18   11.69
   3  -4  -5  154.63   11.01
  -3   4   4  230.48   14.12
   3  -4  -4  224.89   13.63
   3  -4  -4  223.31   13.49
  -3   4   3  678.63   31.72
   3  -4  -3  741.80   34.65
   3  -4  -3  680.44   34.92
  -3   4   2   34.38    7.04
   3  -4  -2   29.46    6.59
   3  -4  -2   34.79    4.24
  -3   4   1  301.46   15.93
   3  -4  -1  278.31   14.94
   3  -4  -1  314.68   16.24
   3  -4  -1  294.10   15.30
  -3   4   0  372.21   18.41
   3  -4   0  377.71   18.59
   3  -4   0  396.98   20.35
  -3   4  -1   11.78    5.19
  -3   4  -1   18.55    4.02
   3  -4   1   16.33    4.24
  -3   4  -2  160.77   10.60
   3  -4   2  191.41   12.00
  -3   4  -3   92.00    7.76
  -3   4  -3   83.20    8.26
   3  -4   3   84.06    8.39
  -3   4  -4   81.35    7.49
  -3   4  -4   90.24    9.20
   3  -4   4   81.40    8.71
  -3   4  -5  279.53   15.12
   3  -4   5  306.69   16.47
  -3   4  -5  296.59   18.09
   3  -4   5  272.81   17.46
  -3   4  -6  351.63   18.14
   3  -4   6  373.34   19.13
  -3   4  -6  379.20   22.43
   3  -4   6  371.76   22.52
  -3   4  -7    8.62    6.41
   3  -4   7    9.43    6.23
  -3   4  -7   14.53    7.94
   3  -4   7   15.34    8.66
  -3   4  -8  618.17   29.83
   3  -4   8  634.86   29.87
  -3   4  -8  641.63   35.15
   3  -4   8  610.50   34.25
  -3   4  -9    7.31    7.17
   3  -4   9    9.20    6.23
  -3   4  -9   -5.50    7.90
   3  -4   9    3.11    9.70
  -3   4 -10   85.64    9.25
   3  -4  10  121.74   10.56
  -3   4 -10   91.24   11.42
   3  -4  10   97.01   13.00
  -3   4 -11    2.80    7.63
   3  -4  11    0.14    7.54
  -3   4 -11   -1.08   10.42
   3  -4  11    3.34   11.96
  -3   4 -12    6.36    7.58
   3  -4  12   15.07    8.53
  -3   4 -12   17.46   10.74
   3  -4  12   26.17   12.41
  -3   4 -13   -6.00    7.94
   3  -4  13    0.18    7.54
  -3   4 -13   -9.93    9.25
   3  -4  13    3.02   11.87
  -3   4 -14    6.81    8.30
   3  -4  14  -17.24    7.72
  -3   4 -14   18.50   10.96
   3  -4  14   30.32   10.92
  -3   4 -15   71.97   10.15
   3  -4  15   81.81    9.02
  -3   4 -15   54.73   10.96
   3  -4  15   72.29   11.78
  -3   4 -16    7.67    8.66
   3  -4  16   16.88    7.90
  -3   4 -16  -14.08    9.57
   3  -4  16   -7.67   10.02
  -3   3  15   15.66   10.33
   3  -3 -15   11.24    9.57
   3  -3 -15   18.14   11.28
  -3   3  14   21.75    8.93
   3  -3 -14   10.33    8.75
   3  -3 -14   19.13   10.74
  -3   3  13   33.66    8.93
   3  -3 -13   18.77    8.71
  -3   3  13   36.86   11.24
   3  -3 -13   55.27   11.69
  -3   3  12   46.66    9.34
   3  -3 -12   37.95    9.70
  -3   3  12   25.67   10.11
   3  -3 -12   26.22   10.20
  -3   3  11  146.69   12.05
   3  -3 -11  148.50   13.18
  -3   3  11  163.66   14.89
   3  -3 -11  153.87   14.48
  -3   3  10  236.75   15.34
   3  -3 -10  270.10   17.06
  -3   3  10  239.46   17.51
   3  -3 -10  252.19   17.82
  -3   3   9  155.67   13.27
   3  -3  -9  131.62   11.55
  -3   3   9  159.46   14.71
   3  -3  -9  138.16   13.27
  -3   3   8    8.84    7.08
   3  -3  -8   13.54    8.98
  -3   3   8   -3.61    9.25
   3  -3  -8    1.40    8.44
  -3   3   7   27.61    7.90
   3  -3  -7   11.96    6.72
  -3   3   7   27.52    7.72
   3  -3  -7   25.58    7.85
  -3   3   6  259.00   15.21
   3  -3  -6  276.69   16.24
  -3   3   6  246.73   15.84
   3  -3  -6  213.74   13.94
  -3   3   5  109.78   10.20
   3  -3  -5   88.30    8.93
  -3   3   5  112.13    9.88
   3  -3  -5  119.71    9.57
  -3   3   4  756.24   35.42
   3  -3  -4  867.24   40.07
  -3   3   4  804.07   41.51
   3  -3  -4  683.60   35.56
  -3   3   3   22.65    7.31
   3  -3  -3   18.91    6.95
  -3   3   3   27.84    5.28
   3  -3  -3   21.57    5.01
  -3   3   2  980.05   44.49
   3  -3  -2 1012.08   45.57
   3  -3  -2  946.21   47.47
  -3   3   1  780.16   35.65
   3  -3  -1  793.69   36.14
   3  -3  -1  698.03   35.10
  -3   3   0 1211.52   53.69
   3  -3   0 1268.83   56.18
   3  -3   0 1195.28   61.41
  -3   3  -1  163.70   10.33
  -3   3  -1  175.98    9.97
   3  -3   1  175.34   10.02
  -3   3  -2  202.37   11.96
   3  -3   2  209.50   12.50
  -3   3  -3   77.43    7.72
  -3   3  -3   75.94    7.40
   3  -3   3   71.11    7.85
  -3   3  -4  192.99   11.82
   3  -3   4  207.43   11.82
  -3   3  -4  182.97   12.18
   3  -3   4  196.05   13.40
  -3   3  -5  622.68   29.15
   3  -3   5  629.00   29.46
  -3   3  -5  582.07   31.50
   3  -3   5  638.47   34.52
  -3   3  -6   26.04    6.59
   3  -3   6   13.94    5.73
  -3   3  -6   26.53    7.49
   3  -3   6   21.97    8.62
  -3   3  -7  514.84   25.18
   3  -3   7  493.63   24.82
  -3   3  -7  499.05   28.25
   3  -3   7  514.39   29.37
  -3   3  -8  255.93   15.39
   3  -3   8  343.51   18.59
  -3   3  -8  352.22   21.30
   3  -3   8  360.61   22.61
  -3   3  -9  179.49   12.54
   3  -3   9  201.42   13.76
  -3   3  -9  211.98   15.70
   3  -3   9  233.23   17.15
  -3   3 -10   13.13    7.49
   3  -3  10    3.97    7.22
  -3   3 -10    9.93    9.88
   3  -3  10   -3.29   10.92
  -3   3 -11   85.82    9.30
   3  -3  11   70.12    8.89
  -3   3 -11   93.67   12.59
   3  -3  11   79.73   13.00
  -3   3 -12   20.44    8.30
   3  -3  12    3.84    6.95
  -3   3 -12   15.93    9.25
   3  -3  12   12.95   11.33
  -3   3 -13    6.05    7.54
   3  -3  13   15.75    6.95
  -3   3 -13    0.72    9.75
   3  -3  13   12.18   10.92
  -3   3 -14   73.55    8.89
   3  -3  14   90.92    8.80
  -3   3 -14   62.81   11.10
   3  -3  14   89.25   12.54
  -3   3 -15   39.80    8.12
   3  -3  15   39.30    8.35
  -3   3 -15   34.38   10.38
   3  -3  15   46.20   11.01
  -3   3 -16   14.89    8.62
   3  -3  16   20.85    7.85
  -3   3 -16    1.76    9.75
   3  -3  16   12.18   10.11
  -3   3 -17   -3.07    9.34
   3  -3  17   12.63    7.90
  -3   3 -17    9.66   10.47
   3  -3  17   -0.86   11.05
  -3   2  15   50.49   10.65
   3  -2 -15   30.28    9.88
  -3   2  15   46.48   11.37
   3  -2 -15   42.60   11.69
  -3   2  14   60.19    9.84
   3  -2 -14   58.07   10.56
  -3   2  14   59.74   11.51
   3  -2 -14   34.88   11.60
  -3   2  13   43.77   10.24
   3  -2 -13   57.12   10.20
  -3   2  13   45.44   10.69
   3  -2 -13   63.31   10.83
  -3   2  12    9.43    9.52
   3  -2 -12    2.66    8.98
  -3   2  12   24.73   10.83
   3  -2 -12    7.90   10.06
  -3   2  11  578.46   28.79
   3  -2 -11  619.52   30.95
  -3   2  11  604.63   34.38
   3  -2 -11  623.13   34.88
  -3   2  10    8.35    8.57
   3  -2 -10    3.70    8.71
  -3   2  10   -1.04    8.89
   3  -2 -10   13.45    9.20
  -3   2   9    3.16    7.81
   3  -2  -9   11.64    7.40
  -3   2   9    4.78    8.66
   3  -2  -9   15.70    8.98
  -3   2   8    6.05    7.85
   3  -2  -8    5.14    7.72
  -3   2   8    4.20    7.67
   3  -2  -8    1.04    7.17
  -3   2   7   97.15   10.11
   3  -2  -7  116.82   10.69
  -3   2   7  133.43   12.27
   3  -2  -7  145.52   12.14
  -3   2   6   67.14    9.52
   3  -2  -6   59.70    8.89
  -3   2   6   59.47    9.02
   3  -2  -6   48.64    8.12
  -3   2   5  446.84   23.46
   3  -2  -5  472.88   23.87
  -3   2   5  441.16   24.73
   3  -2  -5  486.86   26.53
  -3   2   4   -7.72    6.86
   3  -2  -4    9.57    6.95
  -3   2   4    7.90    5.82
   3  -2  -4   -0.63    5.50
  -3   2   3  288.28   16.38
   3  -2  -3  283.68   15.88
  -3   2   3  268.11   15.43
   3  -2  -3  292.62   16.42
  -3   2   2 1026.07   46.52
   3  -2  -2 1043.67   46.93
  -3   2   2 1059.46   53.20
   3  -2  -2 1024.72   51.48
  -3   2   1 1120.83   50.22
   3  -2  -1 1131.20   50.45
  -3   2   1 1055.85   52.66
   3  -2  -1 1077.51   53.69
  -3   2   0 1771.48   77.52
   3  -2   0 1717.34   75.22
  -3   2  -1  101.75    8.39
  -3   2  -1  111.27    6.86
   3  -2   1  101.34    6.54
  -3   2  -2 2584.13  128.28
   3  -2   2 2626.99  130.40
  -3   2  -3   13.90    6.14
  -3   2  -3    6.00    6.36
   3  -2   3   17.60    6.68
  -3   2  -4   24.68    6.68
   3  -2   4   24.50    6.23
  -3   2  -4   31.45    7.63
   3  -2   4   37.81    7.67
  -3   2  -5  173.72   11.28
   3  -2   5  172.37   11.19
  -3   2  -5  179.54   13.40
   3  -2   5  175.57   13.31
  -3   2  -6 1600.02   70.66
   3  -2   6 1487.67   65.92
  -3   2  -6 1516.55   77.29
   3  -2   6 1729.07   87.90
  -3   2  -7 1408.70   62.63
   3  -2   7 1345.53   60.15
  -3   2  -7 1350.95   69.58
   3  -2   7 1313.05   67.91
  -3   2  -8 1379.83   62.09
   3  -2   8 1667.70   73.59
  -3   2  -8 1756.14   89.57
   3  -2   8 1822.92   93.04
  -3   2  -9   20.62    6.99
   3  -2   9   28.74    7.58
  -3   2  -9   19.49    8.89
   3  -2   9    9.39    9.61
  -3   2 -10  107.98   10.42
   3  -2  10  103.83    9.75
  -3   2 -10   75.22   11.78
   3  -2  10  109.15   12.59
  -3   2 -11   15.66    8.21
   3  -2  11   28.38    8.17
  -3   2 -11   27.25    9.52
   3  -2  11   14.03   11.42
  -3   2 -12    8.71    8.30
   3  -2  12    3.34    6.77
  -3   2 -12   -0.72    9.30
   3  -2  12   -8.80   10.06
  -3   2 -13  191.95   13.81
   3  -2  13  164.74   12.68
  -3   2 -13  179.99   15.61
   3  -2  13  159.87   15.43
  -3   2 -14    2.08    8.35
   3  -2  14   -3.93    7.40
  -3   2 -14   -0.59    9.34
   3  -2  14   11.60   11.33
  -3   2 -15   13.04    8.26
   3  -2  15   16.33    7.22
  -3   2 -15   19.85   10.47
   3  -2  15   24.28   10.96
  -3   2 -16   35.74    9.20
   3  -2  16   30.28    7.76
  -3   2 -16   27.66   10.47
   3  -2  16   42.19   11.24
  -3   2 -17   62.85   10.02
   3  -2  17   50.45    9.02
  -3   2 -17   56.40   11.87
   3  -2  17   41.83   10.78
  -3   1  15   -7.17    9.48
   3  -1 -15   -7.85    9.75
  -3   1  15    3.38   10.65
   3  -1 -15    1.85    9.88
  -3   1  14  278.90   15.93
   3  -1 -14  278.76   17.15
  -3   1  14  251.33   18.50
   3  -1 -14  262.47   19.40
  -3   1  13   28.52    9.57
   3  -1 -13   27.16    8.62
  -3   1  13   19.63   10.56
   3  -1 -13   19.67   11.01
  -3   1  12  320.32   18.77
   3  -1 -12  395.40   21.48
  -3   1  12  408.31   25.40
   3  -1 -12  438.40   26.35
  -3   1  11    8.93    9.20
   3  -1 -11   -0.90    8.71
  -3   1  11   10.92   10.33
   3  -1 -11    7.40    9.75
  -3   1  10  445.67   24.23
   3  -1 -10  440.34   24.23
  -3   1  10  493.63   29.19
   3  -1 -10  497.69   28.88
  -3   1   9  163.88   13.04
   3  -1  -9  160.77   12.90
  -3   1   9  193.66   16.60
   3  -1  -9  186.67   14.57
  -3   1   8   17.42    8.44
   3  -1  -8   14.12    7.99
  -3   1   8   21.07    8.44
   3  -1  -8   21.84    7.85
  -3   1   7  175.84   12.54
   3  -1  -7  132.57   11.28
  -3   1   7  161.08   13.13
   3  -1  -7  157.38   12.45
  -3   1   6  199.98   13.36
   3  -1  -6  184.59   12.77
  -3   1   6  198.63   14.39
   3  -1  -6  202.69   13.94
  -3   1   5  385.25   20.53
   3  -1  -5  340.67   18.05
  -3   1   5  380.24   22.02
   3  -1  -5  361.61   20.71
  -3   1   4   33.89    7.49
   3  -1  -4   27.57    7.40
  -3   1   4   24.86    7.13
   3  -1  -4   37.27    6.77
  -3   1   3 5252.18  226.11
   3  -1  -3 5189.01  223.08
  -3   1   3 5134.87  253.95
   3  -1  -3 5175.48  256.11
  -3   1   2   82.17    8.93
   3  -1  -2   79.37    8.39
  -3   1   2   76.30    6.81
   3  -1  -2   90.24    7.22
  -3   1   1  665.55   31.18
   3  -1  -1  694.43   32.17
  -3   1   1  687.21   34.74
   3  -1  -1  730.07   36.91
  -3   1   0   20.62    7.04
   3  -1   0    4.83    6.09
  -3   1   0   19.31    3.20
  -3   1  -1   37.14    6.77
  -3   1  -1   44.49    5.05
  -3   1  -2  208.64   12.50
  -3   1  -3   -9.34    6.45
  -3   1  -3    7.22    6.86
   3  -1   3    4.24    7.08
  -3   1  -4  880.33   40.11
   3  -1   4  907.40   40.88
  -3   1  -4  891.16   46.25
   3  -1   4  908.30   46.97
  -3   1  -5   58.93    7.90
   3  -1   5   54.46    7.45
  -3   1  -5   36.37    8.30
   3  -1   5   35.10    8.03
   3  -1   6 5130.35  220.56
   3  -1   6 5152.91  255.80
  -3   1  -7 3329.09  144.30
   3  -1   7 3480.25  150.93
  -3   1  -7 3482.96  174.03
   3  -1   7 3582.22  178.91
  -3   1  -8  582.07   28.29
   3  -1   8  563.57   27.61
  -3   1  -8  534.69   30.19
   3  -1   8  541.46   30.77
  -3   1  -9   35.06    8.21
   3  -1   9   50.81    8.57
  -3   1  -9   54.24    9.61
   3  -1   9   35.65    9.79
  -3   1 -10   29.37    8.44
   3  -1  10   22.47    6.95
  -3   1 -10   11.96    8.62
   3  -1  10   17.87    9.57
  -3   1 -11  102.79   10.06
   3  -1  11   94.98    9.66
  -3   1 -11   96.34   11.96
   3  -1  11   89.48   12.81
  -3   1 -12  353.89   20.17
   3  -1  12  376.00   20.17
  -3   1 -12  382.81   24.37
   3  -1  12  381.23   24.73
  -3   1 -13   10.06    8.30
   3  -1  13    7.04    6.86
  -3   1 -13    1.26   10.06
   3  -1  13   -0.41   10.29
  -3   1 -14   44.13    9.16
   3  -1  14   59.29    8.35
  -3   1 -14   40.84   10.51
   3  -1  14   39.62   11.87
  -3   1 -15  170.79   13.00
   3  -1  15  153.28   11.87
  -3   1 -15  192.67   15.25
   3  -1  15  162.48   14.75
  -3   1 -16    5.73    8.57
   3  -1  16    1.53    7.17
  -3   1 -16   -0.45    9.84
   3  -1  16   -1.58    9.39
  -3   1 -17   52.03    8.84
   3  -1  17   76.93   10.06
  -3   1 -17   40.34   11.64
   3  -1  17   33.93   11.28
  -3   0  15    6.36    8.98
   3   0 -15    6.81    9.07
  -3   0  15   23.10   10.69
   3   0 -15    4.24   10.02
  -3   0  14   33.16    9.11
   3   0 -14   38.62    9.57
  -3   0  14   51.39   12.14
   3   0 -14   38.17   10.06
  -3   0  13    4.74    9.43
   3   0 -13   -6.95    9.02
  -3   0  13   -3.34   10.06
   3   0 -13  -18.32   10.65
  -3   0  12   27.16    9.25
   3   0 -12   47.29   10.38
  -3   0  12   25.00   12.09
   3   0 -12   34.61   10.96
  -3   0  11   17.55    8.66
   3   0 -11    1.49    9.48
  -3   0  11   -6.72   11.33
   3   0 -11   23.24   10.83
  -3   0  10  621.33   30.73
   3   0 -10  555.45   28.07
  -3   0  10  625.39   35.74
   3   0 -10  595.61   33.44
  -3   0   9   55.14    9.52
   3   0  -9   54.87    9.97
  -3   0   9   55.41   10.56
   3   0  -9   44.45    9.84
  -3   0   8    9.20    6.95
   3   0  -8   14.21    8.03
  -3   0   8   25.99    9.66
   3   0  -8   22.15    8.48
  -3   0   7   24.37    7.31
   3   0  -7   32.13    8.12
  -3   0   7   31.13    9.61
   3   0  -7   29.51    8.48
  -3   0   6   63.40    8.21
   3   0  -6   56.13    8.53
  -3   0   6   47.83    8.35
   3   0  -6   81.22    9.30
  -3   0   5  373.61   20.26
   3   0  -5  374.47   19.49
  -3   0   5  374.20   22.06
   3   0  -5  404.79   22.92
  -3   0   4  421.48   21.12
   3   0  -4  477.39   23.91
  -3   0   4  455.73   25.54
   3   0  -4  457.08   25.13
  -3   0   3  497.69   24.19
   3   0  -3  476.49   23.64
  -3   0   3  531.99   28.65
   3   0  -3  519.80   27.89
  -3   0   2  471.97   23.06
   3   0  -2  467.91   22.74
  -3   0   2  469.72   25.31
   3   0  -2  428.75   23.28
  -3   0   1 1214.23   54.37
   3   0  -1 1168.20   52.16
  -3   0   1 1184.90   59.79
   3   0  -1 1141.13   57.49
  -3   0   0 1529.18   67.32
   3   0   0 1511.13   66.46
  -3   0   0 1593.25   79.50
  -3   0  -1   87.13    8.39
  -3   0  -3 1946.10   84.96
   3   0   3 1947.91   85.10
  -3   0  -3 1997.09   99.90
  -3   0  -4 2036.35   88.89
   3   0   4 2076.51   90.56
  -3   0  -4 2074.70  104.10
   3   0   4 1615.81   81.67
  -3   0  -5 8036.20  344.10
   3   0   5 7666.20  328.58
  -3   0  -5 7598.52  375.73
   3   0   5 7747.42  383.13
  -3   0  -6  115.15    9.79
   3   0   6  117.86   10.02
  -3   0  -6  114.16   10.78
   3   0   6  120.70   11.60
  -3   0  -7 1811.19   79.82
   3   0   7 1904.14   83.75
  -3   0  -7 1802.17   91.37
   3   0   7 1834.20   93.18
  -3   0  -8 3214.93  139.79
   3   0   8 3284.42  142.31
  -3   0  -8 3001.96  150.26
   3   0   8 3171.61  159.10
  -3   0  -9  636.67   30.86
   3   0   9  642.99   31.22
  -3   0  -9  595.61   33.39
   3   0   9  605.99   34.16
  -3   0 -10   -8.53    6.36
   3   0  10    4.65    7.63
  -3   0 -10    3.34    9.20
   3   0  10   -4.47    8.98
  -3   0 -11    3.38    7.63
   3   0  11    4.69    7.99
  -3   0 -11    0.27    9.11
   3   0  11   14.80   11.05
  -3   0 -12   13.13    7.22
   3   0  12  -11.05    8.03
  -3   0 -12    4.42    9.84
   3   0  12   -6.05   10.83
  -3   0 -13   -3.02    7.99
   3   0  13    9.97    8.08
  -3   0 -13   -8.53    9.43
   3   0  13    7.22   10.51
  -3   0 -14  187.21   12.90
   3   0  14  207.88   13.67
  -3   0 -14  195.33   16.38
   3   0  14  214.87   17.28
  -3   0 -15    2.62    7.85
   3   0  15   -1.71    6.45
  -3   0 -15    1.35    8.62
   3   0  15   -0.45    9.61
  -3   0 -16   20.71    8.93
   3   0  16   13.27    7.67
  -3   0 -16    3.25    9.48
   3   0  16   -6.95    9.66
  -3   0 -17   -5.91    8.71
   3   0  17    2.80    8.26
  -3   0 -17    4.42   10.33
   3   0  17   -9.52    7.72
  -3  -1  15   -6.23    8.44
   3   1 -15   -9.43    9.20
  -3  -1  15    4.51   10.33
   3   1 -15  -20.62    9.97
  -3  -1  14   17.73    9.52
   3   1 -14   39.26    9.61
  -3  -1  14   29.42   12.14
   3   1 -14   35.42   10.15
  -3  -1  13   66.19   10.15
   3   1 -13   75.44   10.96
  -3  -1  13   63.26   12.72
   3   1 -13   66.69   11.51
  -3  -1  12   21.30    9.30
   3   1 -12   10.11    9.34
  -3  -1  12    6.81   11.33
   3   1 -12   14.98    9.75
  -3  -1  11  440.43   23.55
   3   1 -11  372.57   21.43
  -3  -1  11  432.58   26.49
   3   1 -11  451.17   27.12
  -3  -1  10   33.44    8.93
   3   1 -10   33.57    9.48
  -3  -1  10   19.99   10.02
   3   1 -10   45.35   10.47
  -3  -1   9   -2.44    8.57
   3   1  -9   18.95    8.44
  -3  -1   9   18.18   10.33
   3   1  -9    6.14    9.39
  -3  -1   8   28.56    8.21
   3   1  -8   28.56    8.35
  -3  -1   8   34.70    9.30
   3   1  -8   27.16    9.57
  -3  -1   7   13.22    6.99
   3   1  -7   21.66    7.13
  -3  -1   7   17.42    8.71
   3   1  -7   11.78    7.72
  -3  -1   6  179.99   12.09
   3   1  -6  187.39   12.36
  -3  -1   6  184.01   14.26
   3   1  -6  201.74   14.53
  -3  -1   5  257.15   15.16
   3   1  -5  282.10   15.97
  -3  -1   5  261.71   17.19
   3   1  -5  241.04   15.70
  -3  -1   4   69.26    8.21
   3   1  -4   66.37    7.81
  -3  -1   4   58.21    8.17
   3   1  -4   73.82    8.93
  -3  -1   3  222.54   13.31
   3   1  -3  201.11   12.32
  -3  -1   3  220.01   14.26
   3   1  -3  219.43   14.12
  -3  -1   2 1158.73   51.44
   3   1  -2 1269.73   56.31
  -3  -1   2 1265.67   64.30
   3   1  -2 1157.38   58.97
  -3  -1   1  121.78    9.34
   3   1  -1  101.70    8.66
  -3  -1   1  103.37    8.75
   3   1  -1  112.58    9.61
  -3  -1   0   50.63    7.17
   3   1   0   65.38    7.35
  -3  -1   0   34.25    6.77
  -3  -1  -1  353.98   17.82
  -3  -1  -3 1334.25   59.02
   3   1   3 1517.00   66.64
  -3  -1  -4    8.62    6.54
   3   1   4   19.76    6.41
  -3  -1  -4    6.23    7.40
  -3  -1  -5 1149.70   51.62
   3   1   5 1176.33   52.70
  -3  -1  -5 1062.62   54.87
  -3  -1  -6 5396.57  231.93
   3   1   6 5662.79  243.43
  -3  -1  -6 5689.86  282.10
   3   1   6 5622.18  279.03
  -3  -1  -7 1425.40   63.62
   3   1   7 1506.62   67.37
  -3  -1  -7 1496.69   76.66
   3   1   7 1477.29   75.76
  -3  -1  -8 1279.66   57.76
   3   1   8 1288.68   57.94
  -3  -1  -8 1240.40   64.16
   3   1   8 1254.39   65.11
  -3  -1  -9  371.67   19.94
   3   1   9  390.98   21.03
  -3  -1  -9  412.37   24.86
   3   1   9  344.78   21.75
  -3  -1 -10  -11.69    7.54
   3   1  10   -7.40    6.32
  -3  -1 -10   -4.60    8.71
   3   1  10    9.48    9.34
  -3  -1 -11  291.31   17.51
   3   1  11  295.50   16.88
  -3  -1 -11  310.08   20.67
   3   1  11  284.90   20.12
  -3  -1 -12    5.50    8.30
   3   1  12   12.72    7.76
  -3  -1 -12  -10.92    9.11
   3   1  12    4.78   10.47
  -3  -1 -13   41.74    9.16
  -3  -1 -13   47.74   11.05
  -3  -1 -14   52.21    9.39
   3   1  14   71.11    7.63
  -3  -1 -14   63.80   11.01
   3   1  14   64.57   11.96
  -3  -1 -15   53.02    9.20
   3   1  15   48.05    7.72
  -3  -1 -15   66.69   11.24
   3   1  15   49.72   10.42
  -3  -1 -16   11.24    7.76
   3   1  16    4.24    6.77
  -3  -1 -16    8.39    9.79
  -3  -1 -17   76.53   10.69
   3   1  17   73.91    9.25
  -3  -1 -17   80.41   11.28
  -3  -2  14  116.50   11.10
   3   2 -14   97.78   11.46
  -3  -2  14  103.87   14.08
   3   2 -14  113.80   12.45
  -3  -2  13    5.01    8.93
   3   2 -13  -18.64    8.71
  -3  -2  13   23.60   12.36
   3   2 -13   13.90   10.87
  -3  -2  12  163.61   12.59
   3   2 -12  163.43   13.54
  -3  -2  12  221.10   17.19
   3   2 -12  172.18   14.48
  -3  -2  11   59.88    9.57
   3   2 -11   48.05   10.24
  -3  -2  11   72.87   12.27
   3   2 -11   68.04   11.42
  -3  -2  10  236.35   15.03
   3   2 -10  276.91   17.10
  -3  -2  10  277.77   19.72
   3   2 -10  244.74   17.60
  -3  -2   9   86.14   10.15
   3   2  -9   92.77   10.65
  -3  -2   9   92.09   12.36
   3   2  -9   90.92   11.82
  -3  -2   8    8.89    7.90
   3   2  -8   -8.48    7.45
  -3  -2   8   -6.45    8.75
   3   2  -8    1.67    9.02
  -3  -2   7   19.36    7.94
   3   2  -7   12.32    6.86
  -3  -2   7    8.44    8.35
   3   2  -7   11.69    7.94
  -3  -2   6   32.08    7.72
   3   2  -6   13.04    6.99
  -3  -2   6   15.66    8.26
   3   2  -6   41.02    8.48
  -3  -2   5 1358.62   61.09
   3   2  -5 1324.78   59.15
  -3  -2   5 1395.62   71.56
   3   2  -5 1311.69   67.37
  -3  -2   4  263.83   14.66
   3   2  -4  239.64   13.85
  -3  -2   4  265.90   17.46
   3   2  -4  274.34   17.15
  -3  -2   3  784.22   35.83
   3   2  -3  792.34   36.32
  -3  -2   3  703.45   37.59
   3   2  -3  814.00   42.73
  -3  -2   2   75.08    7.63
   3   2  -2   58.25    6.72
  -3  -2   2   59.92    8.80
   3   2  -2   44.72    7.76
  -3  -2   1 2571.95  111.45
   3   2  -1 2435.68  105.45
  -3  -2   1 2453.27  122.73
   3   2  -1 2617.52  130.63
  -3  -2   0  804.97   36.32
   3   2   0  764.36   34.47
  -3  -2   0  632.16   33.66
  -3  -2  -1  902.44   40.16
  -3  -2  -2   29.78    5.82
  -3  -2  -3  997.19   44.63
   3   2   3  956.13   42.78
  -3  -2  -4   21.25    6.36
   3   2   4   14.89    6.27
  -3  -2  -5  160.00   10.56
   3   2   5  144.71   10.92
  -3  -2  -5  184.23   13.76
  -3  -2  -6 7016.45  300.83
   3   2   6 7526.32  322.80
  -3  -2  -6 6727.67  333.22
  -3  -2  -7  244.56   14.66
   3   2   7  251.60   15.12
  -3  -2  -7  244.43   17.06
  -3  -2  -8  292.84   16.83
   3   2   8  273.12   15.25
  -3  -2  -8  278.49   18.18
  -3  -2  -9   10.87    7.40
   3   2   9    0.50    6.14
  -3  -2  -9   12.95    8.66
  -3  -2 -10   16.11    8.08
   3   2  10   37.50    7.45
  -3  -2 -10    3.11    8.30
  -3  -2 -11   14.26    8.12
   3   2  11    9.16    7.99
  -3  -2 -11   -0.99    8.44
  -3  -2 -12   14.12    8.57
   3   2  12   21.07    8.57
  -3  -2 -12   18.82    9.70
  -3  -2 -13   61.82    9.84
   3   2  13   74.99    9.79
  -3  -2 -13   97.78   12.18
  -3  -2 -14  121.29   11.33
   3   2  14  133.43   10.96
  -3  -2 -14  122.73   12.14
  -3  -2 -15  147.55   11.64
   3   2  15  131.44   10.56
  -3  -2 -15  133.43   13.31
  -3  -2 -16   16.15    8.71
   3   2  16   16.15    7.81
  -3  -2 -16    7.17    9.88
  -3  -2 -17   62.31    9.93
   3   2  17   82.98    9.52
  -3  -2 -17   53.88   11.15
  -3  -3  14   94.30   11.46
   3   3 -14   69.17   10.87
  -3  -3  14   79.23   13.63
   3   3 -14   66.15   12.09
  -3  -3  13   42.41    9.02
   3   3 -13   54.73    9.84
  -3  -3  13   38.17   10.87
   3   3 -13   44.81   10.47
  -3  -3  12   35.29   10.02
   3   3 -12   70.66   10.42
  -3  -3  12   29.60   10.92
   3   3 -12   57.98   11.19
  -3  -3  11    0.36    8.89
   3   3 -11   -0.54    8.71
  -3  -3  11   16.24   11.15
   3   3 -11   12.63   10.42
  -3  -3  10  566.73   28.47
   3   3 -10  445.26   23.82
  -3  -3  10  501.30   29.60
   3   3 -10  450.23   26.71
  -3  -3   9   -3.70    8.12
   3   3  -9   -0.77    8.93
  -3  -3   9   -0.32   10.60
   3   3  -9  -10.42    9.16
  -3  -3   8   73.82    9.20
   3   3  -8   80.77   10.38
  -3  -3   8   68.86   11.82
   3   3  -8   51.03    9.70
  -3  -3   7   19.04    7.13
   3   3  -7   31.63    7.72
  -3  -3   7   22.97    9.11
   3   3  -7   29.74    8.53
  -3  -3   6  232.92   13.85
   3   3  -6  182.88   12.18
  -3  -3   6  205.85   15.25
   3   3  -6  226.02   15.79
  -3  -3   5   19.22    6.90
   3   3  -5    5.14    6.27
  -3  -3   5   13.58    8.35
   3   3  -5   16.97    7.31
  -3  -3   4  104.95    9.20
   3   3  -4  126.75    9.52
  -3  -3   4  109.51   10.87
   3   3  -4  114.43   10.56
  -3  -3   3  200.39   12.41
   3   3  -3  198.81   11.78
  -3  -3   3  179.58   13.31
   3   3  -3  183.28   12.81
  -3  -3   2   18.23    5.19
   3   3  -2   20.98    5.64
  -3  -3   2   26.71    7.72
   3   3  -2   27.07    8.12
  -3  -3   1   13.54    5.50
   3   3  -1   14.48    5.28
  -3  -3   1   27.89    8.17
   3   3  -1   21.61    7.45
  -3  -3   0   79.64    6.27
   3   3   0   80.63    6.54
  -3  -3   0   78.47    9.30
  -3  -3  -1  490.93   22.65
  -3  -3  -2  111.32    7.81
  -3  -3  -3  288.96   14.89
   3   3   3  307.46   15.57
  -3  -3  -4  573.95   26.71
   3   3   4  548.68   25.81
  -3  -3  -5  353.76   18.05
   3   3   5  364.76   18.77
  -3  -3  -6  372.80   19.45
   3   3   6  390.80   20.08
  -3  -3  -6  399.55   23.33
  -3  -3  -7  504.91   25.13
   3   3   7  510.78   25.31
  -3  -3  -7  510.78   28.74
  -3  -3  -8  125.84   10.02
   3   3   8  115.20    9.79
  -3  -3  -8  148.04   13.00
  -3  -3  -9    5.32    7.40
   3   3   9   11.37    7.49
  -3  -3  -9   19.85    8.57
  -3  -3 -10   23.19    7.31
   3   3  10   30.91    7.58
  -3  -3 -10   27.34    9.75
  -3  -3 -11   16.42    8.44
   3   3  11   13.81    8.03
  -3  -3 -11    9.34    9.34
  -3  -3 -12  335.07   19.18
   3   3  12  332.28   18.82
  -3  -3 -12  335.53   21.39
  -3  -3 -13    4.65    8.44
   3   3  13   -5.96    8.08
  -3  -3 -13    0.27    8.93
  -3  -3 -14  276.51   16.56
   3   3  14  287.34   17.10
  -3  -3 -14  287.79   19.49
  -3  -3 -15   34.11    8.84
   3   3  15   48.96    9.20
  -3  -3 -15   56.85    9.97
  -3  -3 -16   50.49    8.80
   3   3  16   59.70    9.02
  -3  -3 -16   50.72    9.97
  -3  -3 -17    4.51    8.57
   3   3  17   -0.41    7.99
  -3  -3 -17   18.41   10.33
  -3  -4  14   13.31    9.52
   3   4 -14   10.42    8.62
  -3  -4  14   -2.17   11.87
   3   4 -14    0.14   10.06
   3   4 -13  142.04   12.23
   3   4 -13  160.63   13.36
  -3  -4  12   -4.29    9.02
   3   4 -12   -5.14    9.30
  -3  -4  12   -7.31   11.28
   3   4 -12    4.02    9.52
  -3  -4  11   15.12    8.53
   3   4 -11   44.13    9.97
  -3  -4  11   40.07   10.24
   3   4 -11   38.85   10.06
  -3  -4  10  434.97   23.51
   3   4 -10  439.62   23.33
  -3  -4  10  417.11   26.35
   3   4 -10  370.36   23.46
  -3  -4   9    2.44    9.11
   3   4  -9   -7.90    8.71
  -3  -4   9   11.28   10.24
   3   4  -9   -0.95    9.34
  -3  -4   8    8.84    9.30
   3   4  -8   -0.05    8.03
  -3  -4   8    9.25   10.24
   3   4  -8   17.37    9.66
  -3  -4   7  205.67   13.81
   3   4  -7  180.40   12.41
  -3  -4   7  192.04   15.75
   3   4  -7  222.63   16.02
  -3  -4   6  363.01   19.18
   3   4  -6  404.79   20.89
  -3  -4   6  449.50   26.62
   3   4  -6  392.97   23.64
  -3  -4   5  155.81   10.69
   3   4  -5  178.10   11.64
  -3  -4   5  171.01   13.67
   3   4  -5  175.98   13.63
  -3  -4   4  477.84   22.92
   3   4  -4  467.91   22.65
  -3  -4   4  460.69   26.67
   3   4  -4  483.25   27.30
  -3  -4   3  162.44   10.56
   3   4  -3  147.86    9.43
  -3  -4   3  148.59   12.50
   3   4  -3  168.76   12.81
  -3  -4   2  911.91   40.84
   3   4  -2  889.35   39.84
  -3  -4   2  858.67   45.26
   3   4  -2  900.18   47.06
  -3  -4   1  247.22   13.09
   3   4  -1  242.58   12.41
  -3  -4   1  244.74   16.20
   3   4  -1  246.18   16.11
  -3  -4   0  124.94    7.67
   3   4   0  126.39    7.63
  -3  -4   0  133.29   11.37
  -3  -4  -1   31.77    4.15
  -3  -4  -1   43.86    8.21
  -3  -4  -2    4.51    4.06
  -3  -4  -3   35.01    5.01
   3   4   3   28.25    4.92
  -3  -4  -4   34.88    5.82
   3   4   4   39.17    5.91
  -3  -4  -5  486.41   23.19
   3   4   5  530.18   25.31
  -3  -4  -6 1252.13   56.04
   3   4   6 1276.50   56.90
  -3  -4  -6 1192.12   61.28
  -3  -4  -7  457.99   23.01
   3   4   7  486.41   24.10
  -3  -4  -7  471.52   27.03
  -3  -4  -8   11.24    7.08
   3   4   8   -1.17    6.72
  -3  -4  -8   -2.93    8.12
  -3  -4  -9   25.81    7.58
   3   4   9   22.20    7.17
  -3  -4  -9   18.95    9.25
  -3  -4 -10   95.34    9.88
   3   4  10   94.71    9.93
  -3  -4 -10  105.95   11.78
  -3  -4 -11  106.49   10.87
   3   4  11  108.74   10.33
  -3  -4 -11   87.67   11.10
  -3  -4 -12   35.10    9.11
   3   4  12   49.99    9.16
  -3  -4 -12   19.49    9.30
  -3  -4 -13  141.14   11.82
   3   4  13  140.10   11.51
  -3  -4 -13  134.69   13.31
  -3  -4 -14  167.76   13.09
   3   4  14  153.55   11.05
  -3  -4 -14  173.54   14.39
  -3  -4 -15  279.89   16.38
   3   4  15  277.14   16.42
  -3  -4 -15  271.14   19.00
  -3  -4 -16   35.65    8.53
   3   4  16   43.50    8.89
  -3  -4 -16   33.80    9.93
  -3  -4 -17    2.08    8.57
   3   4  17   13.58    8.26
  -3  -4 -17   18.45   10.74
  -3  -5  14  100.85   11.73
   3   5 -14   96.20   11.87
  -3  -5  14   88.84   13.22
   3   5 -14  101.66   11.91
  -3  -5  13   -1.90    9.84
   3   5 -13   -0.27    8.48
  -3  -5  13    8.44   10.83
   3   5 -13    6.86    9.52
  -3  -5  12   -0.81    9.02
   3   5 -12   12.50    9.39
  -3  -5  12   35.69   11.60
   3   5 -12   24.55    9.02
  -3  -5  11  120.02   11.19
   3   5 -11  134.28   12.50
  -3  -5  11  141.77   14.53
   3   5 -11  130.31   12.50
  -3  -5  10  128.19   12.23
   3   5 -10   97.91   11.96
  -3  -5  10   91.60   13.04
   3   5 -10  118.04   12.95
  -3  -5   9   14.30    8.80
   3   5  -9   16.11    8.98
  -3  -5   9   25.36   10.83
   3   5  -9   15.61    8.93
  -3  -5   8   17.37    8.17
   3   5  -8   -0.86    7.90
  -3  -5   8  -13.67   10.38
   3   5  -8    1.99    9.02
  -3  -5   7  453.02   23.28
   3   5  -7  450.77   23.28
  -3  -5   7  470.17   28.29
   3   5  -7  462.50   27.52
  -3  -5   6    9.02    6.45
   3   5  -6    3.43    6.18
  -3  -5   6   23.46    9.75
   3   5  -6    8.17    9.11
  -3  -5   5 1561.67   69.49
   3   5  -5 1483.16   65.56
  -3  -5   5 1527.83   78.56
   3   5  -5 1433.07   73.50
  -3  -5   4   18.68    6.05
   3   5  -4   15.88    5.69
  -3  -5   4   20.08    8.71
   3   5  -4   16.79    7.26
  -3  -5   3  506.27   23.73
   3   5  -3  513.04   24.00
  -3  -5   3  555.90   30.91
   3   5  -3  546.43   30.23
  -3  -5   2  315.72   15.34
   3   5  -2  314.86   15.57
  -3  -5   2  334.13   20.40
   3   5  -2  360.84   21.57
  -3  -5   1  940.79   41.47
   3   5  -1  955.23   42.05
  -3  -5   1  915.97   47.96
   3   5  -1  931.77   48.64
  -3  -5   0  160.05    8.62
  -3  -5   0  163.07   12.59
  -3  -5  -1   21.97    3.65
  -3  -5  -1   24.59    3.34
  -3  -5  -1   16.02    7.45
  -3  -5  -2   23.01    3.93
  -3  -5  -3  149.89    8.71
   3   5   3  139.25    8.12
  -3  -5  -4  392.15   18.77
   3   5   4  413.23   19.85
  -3  -5  -5  527.93   25.13
   3   5   5  569.89   26.71
  -3  -5  -6 2983.46  129.41
   3   5   6 2966.76  128.51
  -3  -5  -7   11.78    6.23
   3   5   7   -1.04    6.14
  -3  -5  -7   -2.80    7.40
  -3  -5  -8  216.95   14.03
   3   5   8  220.78   13.67
  -3  -5  -8  206.57   15.48
  -3  -5  -9   67.28    8.89
   3   5   9   75.35    9.02
  -3  -5  -9   84.20   10.83
  -3  -5 -10   26.76    8.08
   3   5  10   26.67    7.90
  -3  -5 -10   27.12    9.39
  -3  -5 -11   22.15    8.26
   3   5  11   15.21    7.72
  -3  -5 -11   28.34    9.48
  -3  -5 -12    0.09    8.21
   3   5  12    2.08    7.67
  -3  -5 -12    1.67    9.07
  -3  -5 -13  176.56   13.13
   3   5  13  198.18   14.21
  -3  -5 -13  170.38   13.99
  -3  -5 -14   12.27    8.80
   3   5  14   41.56    8.84
  -3  -5 -14   28.20    9.66
  -3  -5 -15  106.71   11.60
   3   5  15  107.12    9.79
  -3  -5 -15  102.79   11.87
  -3  -5 -16   14.26    8.66
   3   5  16    1.44    7.85
  -3  -5 -16   -7.99    8.84
  -3  -5 -17   57.08    8.39
   3   5  17   53.33    8.84
  -3  -5 -17   30.28   11.46
  -3  -6  13   -3.11   10.24
   3   6 -13   11.96   10.24
  -3  -6  13    1.44   10.29
   3   6 -13    7.90   10.38
  -3  -6  12   72.56   10.60
   3   6 -12   45.57    9.48
  -3  -6  12   76.26   12.32
   3   6 -12   85.87   10.92
  -3  -6  11   -0.32    8.89
   3   6 -11    2.71    8.98
  -3  -6  11    0.14    9.93
   3   6 -11   -1.35    8.98
  -3  -6  10  225.93   14.75
   3   6 -10  210.36   15.07
  -3  -6  10  196.82   16.60
   3   6 -10  169.84   14.21
  -3  -6   9   37.00    8.71
   3   6  -9   63.98   10.47
  -3  -6   9   60.78   11.82
   3   6  -9   44.49   10.60
  -3  -6   8   11.87    8.80
   3   6  -8   20.26    7.90
  -3  -6   8   36.64   11.51
   3   6  -8   15.48   10.06
  -3  -6   7  174.62   12.54
   3   6  -7  190.41   13.31
  -3  -6   7  181.62   15.70
   3   6  -7  202.46   15.93
  -3  -6   6  887.55   40.25
   3   6  -6  993.13   45.35
  -3  -6   6  982.75   52.93
   3   6  -6  974.63   51.57
  -3  -6   5  527.47   25.22
   3   6  -5  489.12   23.69
  -3  -6   5  493.18   28.74
   3   6  -5  484.16   27.75
  -3  -6   4  124.54    8.93
   3   6  -4  128.10    8.80
  -3  -6   4  143.94   12.68
   3   6  -4  136.09   12.32
  -3  -6   3  459.34   22.06
   3   6  -3  471.07   22.06
  -3  -6   3  496.79   28.38
   3   6  -3  409.62   24.14
  -3  -6   2   63.67    5.41
   3   6  -2   84.29    6.23
  -3  -6   2   74.95    9.88
   3   6  -2   89.12    9.97
  -3  -6   1  437.50   19.90
   3   6  -1  424.19   19.40
  -3  -6   1  409.75   23.69
   3   6  -1  422.43   24.37
  -3  -6   0   34.88    3.25
  -3  -6   0   24.19    7.63
  -3  -6  -1   21.03    2.93
  -3  -6  -1   22.70    2.93
  -3  -6  -1   15.52    7.67
  -3  -6  -2  730.07   32.04
  -3  -6  -3 2589.09  111.41
  -3  -6  -4   12.59    4.65
   3   6   4    6.90    4.51
  -3  -6  -5 1326.58   58.52
   3   6   5 1253.03   55.36
  -3  -6  -6 3255.99  140.69
   3   6   6 3342.63  144.44
  -3  -6  -7 1389.75   62.13
   3   6   7 1380.73   61.46
  -3  -6  -8  280.30   16.11
   3   6   8  302.41   16.83
  -3  -6  -8  308.23   19.49
  -3  -6  -9   22.29    7.58
   3   6   9   18.91    7.04
  -3  -6  -9   11.28    8.39
  -3  -6 -10  106.31   10.60
   3   6  10  106.85   10.15
  -3  -6 -10   97.28   11.64
  -3  -6 -11   16.97    7.94
   3   6  11   11.19    7.17
  -3  -6 -11   10.15    9.48
  -3  -6 -12   68.81   10.02
   3   6  12   51.80    8.93
  -3  -6 -12   68.31   10.87
  -3  -6 -13   29.51    8.75
   3   6  13   27.93    8.03
  -3  -6 -13   27.25    9.16
  -3  -6 -14  276.42   16.88
   3   6  14  252.37   15.12
  -3  -6 -14  253.99   17.60
  -3  -6 -15   47.96    8.35
   3   6  15   60.01    8.48
  -3  -6 -15   69.35   11.64
  -3  -6 -16   -4.42    7.90
   3   6  16    6.99    8.21
  -3  -6 -16   19.49    9.66
  -3  -6 -17   25.81    9.30
   3   6  17   13.99    8.26
  -3  -6 -17  -13.85   10.42
  -3  -7  13   57.39   11.51
   3   7 -13   68.31   11.01
  -3  -7  13   69.08   12.86
   3   7 -13   67.82   11.05
  -3  -7  12    6.54   10.11
   3   7 -12   12.14    9.39
  -3  -7  12   -3.43    9.84
   3   7 -12   -4.20    8.84
  -3  -7  11    9.61    8.75
   3   7 -11    2.98    8.75
  -3  -7  11   14.03   10.47
   3   7 -11   17.37    9.43
  -3  -7  10  234.41   14.57
   3   7 -10  201.47   14.39
  -3  -7  10  227.87   16.79
   3   7 -10  230.66   16.33
  -3  -7   9    1.80    7.13
   3   7  -9    4.15    8.93
  -3  -7   9   -3.52    9.79
   3   7  -9   -3.79    9.02
  -3  -7   8   54.91    8.17
   3   7  -8   78.65   10.33
  -3  -7   8   84.60   12.45
   3   7  -8   75.44   11.10
  -3  -7   7  138.03   11.19
   3   7  -7  178.64   12.59
  -3  -7   7  167.90   15.75
   3   7  -7  164.51   13.90
  -3  -7   6  494.08   24.77
   3   7  -6  464.30   23.46
  -3  -7   6  513.94   30.10
   3   7  -6  494.99   29.15
  -3  -7   5   11.28    5.82
   3   7  -5   -2.98    6.18
  -3  -7   5   -1.76    9.39
   3   7  -5   15.57    8.26
  -3  -7   4  652.46   29.65
   3   7  -4  561.32   26.13
  -3  -7   4  582.97   32.62
   3   7  -4  578.46   32.49
  -3  -7   3   11.33    4.83
   3   7  -3    3.70    4.15
  -3  -7   3   -0.45    8.71
   3   7  -3   13.85    8.03
  -3  -7   2  406.68   19.00
   3   7  -2  378.98   17.60
  -3  -7   2  404.65   24.00
   3   7  -2  366.30   21.97
  -3  -7   1  615.46   27.30
  -3  -7   1  602.83   33.21
  -3  -7   0   94.49   10.56
  -3  -7  -1   50.94    9.20
  -3  -7  -2  221.01   10.51
  -3  -7  -2  212.07    9.84
  -3  -7  -2  220.38   15.34
  -3  -7  -3   84.83    5.64
  -3  -7  -4    2.39    4.02
   3   7   4    1.44    3.84
  -3  -7  -5 1052.24   46.79
   3   7   5 1091.95   48.46
  -3  -7  -6  364.18   18.73
   3   7   6  352.18   17.91
  -3  -7  -7 1825.18   80.23
   3   7   7 1797.20   79.19
  -3  -7  -8   34.70    7.08
   3   7   8   31.09    6.86
  -3  -7  -8   41.65    9.93
  -3  -7  -9  120.29    9.97
   3   7   9  105.59    9.34
  -3  -7  -9  109.78   12.23
  -3  -7 -10    9.61    7.67
   3   7  10   19.36    7.54
  -3  -7 -10   13.31    8.75
  -3  -7 -11   35.69    8.44
   3   7  11   28.65    7.81
  -3  -7 -11   33.66    9.20
  -3  -7 -12    9.34    7.04
   3   7  12   -7.31    7.22
  -3  -7 -12   -6.23    8.62
  -3  -7 -13   67.68    9.43
   3   7  13   58.79    8.57
  -3  -7 -13   64.39   10.29
  -3  -7 -14  250.52   15.79
   3   7  14  226.02   14.48
  -3  -7 -14  219.70   16.24
  -3  -7 -15  114.52   10.69
   3   7  15  121.15   11.15
  -3  -7 -15  106.76   12.59
  -3  -7 -16    6.41    8.26
   3   7  16    7.58    8.21
  -3  -7 -16    6.14   10.20
  -3  -7 -17   -5.41    7.08
   3   7  17    2.17    8.39
  -3  -7 -17    2.98   10.02
  -3  -8  12   26.71   10.29
   3   8 -12   13.40   11.10
  -3  -8  12   11.19    9.84
   3   8 -12    8.48   10.29
  -3  -8  11   52.43   10.02
   3   8 -11   42.19    9.66
  -3  -8  11   31.50   10.96
   3   8 -11   37.27    9.61
  -3  -8  10   12.45    8.39
   3   8 -10    9.84    8.30
  -3  -8  10    5.14    9.66
   3   8 -10    8.98    8.80
  -3  -8   9   55.95    9.75
   3   8  -9   50.36    9.52
  -3  -8   9   80.45   11.46
   3   8  -9   35.78    9.70
  -3  -8   8    9.16    7.99
   3   8  -8  -12.18    7.40
  -3  -8   8   -6.05   10.06
   3   8  -8    5.87    8.89
  -3  -8   7  267.39   15.88
   3   8  -7  243.16   14.80
  -3  -8   7  268.47   19.31
   3   8  -7  242.21   17.64
  -3  -8   6   -7.72    6.45
   3   8  -6   -9.97    6.77
  -3  -8   6  -12.63   10.02
   3   8  -6   -8.44    8.48
  -3  -8   5  550.04   26.35
   3   8  -5  578.46   27.48
  -3  -8   5  557.71   32.35
   3   8  -5  537.40   30.59
  -3  -8   4  120.34    8.30
   3   8  -4  117.36    8.03
  -3  -8   4  127.60   12.90
   3   8  -4  107.57   10.74
  -3  -8   3  471.97   21.79
   3   8  -3  496.79   22.79
  -3  -8   3  501.30   29.15
   3   8  -3  506.72   28.61
   3   8  -2  414.26   18.86
   3   8  -2  416.61   24.37
  -3  -8   1   67.05    3.79
  -3  -8   1   75.44    9.88
  -3  -8   0   12.72    7.54
  -3  -8  -1   45.75    8.75
  -3  -8  -2  147.64   12.50
  -3  -8  -3   -1.67    2.80
  -3  -8  -4  118.26    7.54
   3   8   4  127.79    7.67
  -3  -8  -5  154.54    9.34
   3   8   5  157.88    9.43
  -3  -8  -6 2620.23  113.71
   3   8   6 2585.03  112.17
  -3  -8  -7   68.40    7.49
   3   8   7   69.04    7.94
  -3  -8  -8   42.05    7.13
   3   8   8   42.73    7.13
  -3  -8  -9   17.69    7.63
   3   8   9   -6.14    5.96
  -3  -8  -9    3.43    7.72
  -3  -8 -10   55.36    8.75
   3   8  10   54.64    7.90
  -3  -8 -10   49.36    9.16
  -3  -8 -11   44.90    8.44
   3   8  11   51.12    8.53
  -3  -8 -11   23.46    8.62
  -3  -8 -12   34.88    8.66
   3   8  12   40.79    7.76
  -3  -8 -12   42.64    9.43
  -3  -8 -13  259.59   15.93
   3   8  13  271.72   15.97
  -3  -8 -13  258.73   17.87
  -3  -8 -14   97.87   10.02
   3   8  14  101.30    9.79
  -3  -8 -14   90.29   11.78
  -3  -8 -15  147.46   11.91
   3   8  15  161.04   11.87
  -3  -8 -15  149.58   14.26
  -3  -8 -16   15.48    8.26
   3   8  16   22.56    8.03
  -3  -8 -16   38.53   10.69
  -3  -9  12   41.47   10.83
   3   9 -12   44.40   13.09
  -3  -9  12   35.51   11.55
   3   9 -12   25.76    9.34
  -3  -9  11   28.02   10.47
   3   9 -11   30.19   10.11
  -3  -9  11   20.98   10.29
   3   9 -11   10.96   10.15
  -3  -9  10  418.37   22.79
   3   9 -10  397.88   21.52
  -3  -9  10  403.52   24.05
   3   9 -10  402.44   23.91
  -3  -9   9  117.50   11.33
   3   9  -9   91.33   10.56
  -3  -9   9  129.54   13.54
   3   9  -9  106.35   11.42
  -3  -9   8   51.30    8.93
   3   9  -8   30.28    8.39
  -3  -9   8   47.42   10.92
   3   9  -8   56.31   10.24
  -3  -9   7   43.41    7.63
   3   9  -7   47.83    8.08
  -3  -9   7   20.03   10.15
   3   9  -7   51.17    9.93
  -3  -9   6   88.66    8.57
   3   9  -6   78.33    8.08
  -3  -9   6   72.92   11.73
   3   9  -6  108.83   11.82
  -3  -9   5  186.49   11.01
   3   9  -5  179.95   11.15
  -3  -9   5  148.23   14.17
   3   9  -5  178.28   13.72
  -3  -9   4   -2.71    4.38
   3   9  -4   -2.35    4.06
  -3  -9   4    9.66    9.25
   3   9  -4    8.75    8.57
  -3  -9   3   57.30    5.01
   3   9  -3   62.45    5.23
  -3  -9   3   67.28   10.47
   3   9  -3   58.21    9.93
  -3  -9   2   55.00    3.52
  -3  -9   2   70.93   10.29
   3   9  -2   65.43    8.21
  -3  -9   1  381.14   22.97
  -3  -9   0  365.17   22.25
  -3  -9  -1   12.95    7.67
  -3  -9  -2    3.79    7.72
  -3  -9  -3   32.62    8.03
  -3  -9  -4  271.99   13.00
  -3  -9  -5  445.49   21.16
   3   9   5  463.85   21.75
  -3  -9  -6  711.12   32.58
   3   9   6  751.73   34.20
  -3  -9  -7  113.26    8.66
   3   9   7   89.52    7.81
  -3  -9  -8  240.95   14.39
   3   9   8  218.89   13.31
  -3  -9  -9   26.44    7.58
   3   9   9   24.46    6.99
  -3  -9  -9   24.50    8.71
  -3  -9 -10    2.84    7.58
   3   9  10    1.71    6.54
  -3  -9 -10   19.04    8.30
  -3  -9 -11    6.14    7.26
   3   9  11   -4.42    7.17
  -3  -9 -11    6.90    8.57
  -3  -9 -12  132.61   10.96
   3   9  12  137.80   10.56
  -3  -9 -12  138.34   13.49
  -3  -9 -13  177.69   12.63
   3   9  13  151.43   11.78
  -3  -9 -13  173.40   14.12
  -3  -9 -14  204.81   13.72
   3   9  14  199.57   13.13
  -3  -9 -14  202.87   15.57
  -3  -9 -15  379.66   20.44
   3   9  15  417.33   21.70
  -3  -9 -15  424.01   25.58
  -3  -9 -16   44.58    9.66
   3   9  16   50.18    8.66
  -3  -9 -16   46.57   10.83
  -3 -10  11   50.04   11.87
   3  10 -11   54.60   12.27
  -3 -10  11   63.44   11.51
   3  10 -11   53.74    9.84
  -3 -10  10   -9.61    8.98
   3  10 -10   11.64    9.43
  -3 -10  10    1.04   10.06
   3  10 -10    4.24    9.66
  -3 -10   9   61.68    9.48
   3  10  -9   60.69    9.88
  -3 -10   9   63.94   10.83
   3  10  -9   62.22   10.96
  -3 -10   8   16.06    7.94
   3  10  -8   -9.43    7.35
  -3 -10   8    8.12    9.34
   3  10  -8    5.82    8.71
  -3 -10   7  -11.96    6.68
   3  10  -7    0.77    6.50
  -3 -10   7   -9.43    9.88
   3  10  -7    0.95    8.17
  -3 -10   6  764.36   35.24
   3  10  -6  896.12   40.43
  -3 -10   6  885.74   47.38
   3  10  -6  898.38   47.38
  -3 -10   5   35.10    5.46
   3  10  -5   29.60    5.41
  -3 -10   5   34.52   10.29
   3  10  -5   34.74    9.57
  -3 -10   4  302.86   14.85
   3  10  -4  327.49   15.79
  -3 -10   4  306.56   20.08
   3  10  -4  314.32   20.35
  -3 -10   3    8.39    2.35
  -3 -10   3    2.89    7.94
   3  10  -3   13.90    8.30
  -3 -10   2  278.45   18.68
  -3 -10   1   84.69   11.05
  -3 -10   0  190.59   14.57
  -3 -10  -1   -3.93    7.63
  -3 -10  -2   73.55    9.93
  -3 -10  -3  378.03   23.01
  -3 -10  -4  153.87    7.94
  -3 -10  -4  156.17   12.54
  -3 -10  -5  204.22   10.78
   3  10   5  211.26   11.15
  -3 -10  -6    1.44    5.19
   3  10   6    1.80    4.42
  -3 -10  -7  544.17   26.04
   3  10   7  542.36   25.81
  -3 -10  -8   73.68    8.08
   3  10   8   83.84    8.35
  -3 -10  -9   54.37    8.03
   3  10   9   42.23    7.17
  -3 -10  -9   48.60    9.52
  -3 -10 -10  347.89   18.77
   3  10  10  328.31   18.32
  -3 -10 -10  352.49   21.48
  -3 -10 -11    5.87    7.85
   3  10  11    4.60    6.59
  -3 -10 -11  -11.55    9.30
  -3 -10 -12    7.26    8.30
   3  10  12   16.79    7.04
  -3 -10 -12   15.79    9.11
  -3 -10 -13  102.52   10.33
   3  10  13  113.53   10.06
  -3 -10 -13  127.42   13.04
   3  10  14  180.40   12.68
  -3 -10 -15  181.98   13.22
   3  10  15  164.60   12.27
  -3 -10 -15  130.13   14.26
  -3 -11  10   22.43   11.91
   3  11 -10   26.94   11.33
  -3 -11  10   18.73   10.38
   3  11 -10   26.13    8.89
  -3 -11   9   -7.67    9.30
   3  11  -9    2.30    9.07
  -3 -11   9  -10.78   10.20
   3  11  -9  -11.15    8.71
  -3 -11   8   65.74    9.61
   3  11  -8   61.64    9.48
  -3 -11   8   80.59   11.73
   3  11  -8   77.56   10.11
  -3 -11   7  322.67   17.37
   3  11  -7  312.06   17.06
  -3 -11   7  319.82   20.67
   3  11  -7  329.75   20.44
  -3 -11   6   81.94    7.90
   3  11  -6   88.94    7.85
  -3 -11   6   92.82   11.46
   3  11  -6   79.01    9.57
  -3 -11   5  129.50    8.17
   3  11  -5  118.63    7.85
  -3 -11   5  124.85   12.90
   3  11  -5  122.78   12.81
  -3 -11   4  227.73   17.01
   3  11  -4  216.86   15.88
  -3 -11   3  230.84   16.74
  -3 -11   2   34.83    9.07
  -3 -11   1   31.68    8.80
  -3 -11   0   61.00    9.57
  -3 -11  -1   18.23    8.26
  -3 -11  -2  461.60   26.35
  -3 -11  -3   44.72    8.30
  -3 -11  -4   89.66   10.51
  -3 -11  -5  202.96   10.33
  -3 -11  -5  190.64   13.76
  -3 -11  -6  956.13   42.60
   3  11   6  907.85   40.56
  -3 -11  -7   60.24    7.04
   3  11   7   66.28    6.90
  -3 -11  -8   20.76    6.14
   3  11   8   14.75    6.23
  -3 -11  -9    6.05    6.45
   3  11   9    3.43    6.63
  -3 -11  -9    0.45    6.86
  -3 -11 -10   60.55    9.02
   3  11  10   71.29    8.08
  -3 -11 -10   67.10   10.24
  -3 -11 -11  270.69   15.97
   3  11  11  279.39   15.70
  -3 -11 -11  280.84   18.86
  -3 -11 -12   13.81    8.39
   3  11  12   16.38    6.95
  -3 -11 -12    5.05    8.98
  -3 -11 -13  104.46    9.88
   3  11  13   83.07    9.57
  -3 -11 -13   94.17   11.15
  -3 -11 -14    3.88    8.66
   3  11  14   -5.19    8.12
  -3 -11 -14   15.75    9.93
  -3 -11 -15   57.03   12.00
   3  11  15   53.24    8.71
  -3 -11 -15   72.96   11.96
  -3 -12   9   15.12   10.33
   3  12  -9   17.24   10.78
  -3 -12   9   17.64   10.74
   3  12  -9   25.99    8.08
  -3 -12   8   71.34   10.47
   3  12  -8   57.85   10.69
  -3 -12   8   66.42   10.78
   3  12  -8   83.34    9.70
  -3 -12   7  159.51   10.78
   3  12  -7  149.85   11.69
  -3 -12   7  143.76   14.12
   3  12  -7  146.69   12.54
  -3 -12   6   16.83    4.96
   3  12  -6   19.45    5.82
  -3 -12   6   32.26    9.93
   3  12  -6    6.45    7.63
  -3 -12   5  404.70   24.41
   3  12  -5  396.67   23.33
  -3 -12   4   21.61    9.02
  -3 -12   3   13.76    8.80
  -3 -12   2   17.28    8.80
  -3 -12   1  113.66   11.46
  -3 -12   0  157.79   13.13
  -3 -12  -1   88.57   10.06
  -3 -12  -2   15.48    7.45
  -3 -12  -3    8.75    7.04
  -3 -12  -4  182.07   13.67
  -3 -12  -5  183.87    8.80
  -3 -12  -5  210.63   15.30
  -3 -12  -6  139.52    8.62
   3  12   6  156.03    9.02
  -3 -12  -7   18.50    5.82
   3  12   7    5.60    5.10
  -3 -12  -8   21.84    7.04
   3  12   8   19.49    5.96
  -3 -12  -9    7.45    7.22
   3  12   9  -13.04    6.72
  -3 -12 -10   42.69    8.12
   3  12  10   57.67    7.76
  -3 -12 -10   32.85    9.11
  -3 -12 -11   46.57    9.39
   3  12  11   69.35    9.02
  -3 -12 -11   56.99   10.51
  -3 -12 -12  154.14   12.45
   3  12  12  135.46   10.92
  -3 -12 -12  123.23   12.54
  -3 -12 -13   24.46    9.11
   3  12  13   35.74    8.35
  -3 -12 -13   28.79    9.57
  -3 -12 -14   45.08   10.29
   3  12  14   46.39   10.06
  -3 -12 -14   52.75   11.19
   3  13  -8   70.93   10.38
  -3 -13   8   72.33   12.09
   3  13  -8   79.59   10.02
   3  13  -7   -5.50    7.04
  -3 -13   7   -7.67    9.75
   3  13  -7    0.09    8.89
  -3 -13   6  139.97   13.45
   3  13  -6  167.22   12.68
  -3 -13   5   73.41   11.42
  -3 -13   4  140.10   12.81
  -3 -13   3   58.30    9.97
  -3 -13   2   26.80    9.20
  -3 -13   1  233.46   16.92
  -3 -13   0  -15.07    8.21
  -3 -13  -1  112.67   10.92
  -3 -13  -2   21.61    8.35
  -3 -13  -3  536.95   30.01
  -3 -13  -4    5.05    8.08
  -3 -13  -5  782.41   41.74
  -3 -13  -6   24.05    4.11
  -3 -13  -6   28.97    7.94
  -3 -13  -7  167.36   10.42
   3  13   7  177.46   10.74
  -3 -13  -7  199.03   14.21
  -3 -13  -8  144.53   10.78
   3  13   8  141.50    9.79
  -3 -13  -9   23.69    7.49
   3  13   9   47.60    7.26
  -3 -13 -10    3.61    7.94
   3  13  10    5.46    6.99
  -3 -13 -10   -3.34    8.39
  -3 -13 -11   92.09   10.06
   3  13  11   84.87    9.84
  -3 -13 -11   76.66   10.02
  -3 -13 -12   48.82   10.15
   3  13  12   47.20    8.80
  -3 -13 -12   19.27   10.29
  -3 -13 -13    0.50   10.15
   3  13  13   15.03    9.02
  -3 -13 -13   -0.23   10.42
  -3 -14   7   56.67   12.18
  -3 -14   6   56.72   11.24
  -3 -14   5   49.99   10.78
  -3 -14   4   42.64   10.29
  -3 -14   3    9.79    9.02
  -3 -14   2  187.03   15.25
  -3 -14   1  -10.78    8.62
  -3 -14   0  185.54   14.53
  -3 -14  -1    3.52    7.81
  -3 -14  -2   67.41   10.06
  -3 -14  -3  133.74   11.55
  -3 -14  -4  460.69   26.08
  -3 -14  -5   37.54    7.81
  -3 -14  -6  126.34   11.05
  -3 -14  -7  325.73   16.24
  -3 -14  -7  323.25   19.67
  -3 -14  -8   36.82    7.72
   3  14   8   42.05    7.13
  -3 -14  -8   32.71    8.35
  -3 -14  -9   52.39    9.11
   3  14   9   65.83    7.99
  -3 -14 -10   20.76    9.02
   3  14  10   21.30    8.21
  -3 -14 -10   22.74    8.57
  -3 -14 -11   56.90   10.51
   3  14  11   46.79    9.30
  -3 -14 -11   58.34    9.88
  -3 -14 -12   16.70   11.15
   3  14  12    5.73    9.11
  -3 -14 -12    6.99    9.88
  -3 -14 -13  188.74   17.28
  -3 -14 -13  212.98   17.51
  -3 -15   6  -10.38   11.42
  -3 -15   5    3.93   11.15
  -3 -15   4   12.18   10.06
  -3 -15   3   18.59   10.02
  -3 -15   2   29.55    9.79
  -3 -15   1   13.45    9.75
  -3 -15   0   47.15    9.93
  -3 -15  -1   11.78    8.66
  -3 -15  -2  154.59   13.18
  -3 -15  -3  135.77   12.27
  -3 -15  -4   76.08    9.79
  -3 -15  -5   -8.17    8.66
  -3 -15  -6  331.87   21.16
  -3 -15  -7   10.83    7.90
  -3 -15  -8   -0.68    6.50
  -3 -15  -8   23.37    8.30
  -3 -15  -9    8.93    9.02
   3  15   9   20.85    8.57
  -3 -15  -9   20.71    8.57
  -3 -15 -10   -3.61   10.11
   3  15  10   -5.87    8.93
  -3 -15 -10    2.53    8.26
  -3 -15 -11  101.52   14.48
   3  15  11  105.18   12.18
  -3 -15 -11  105.27   10.92
  -3 -16   4   62.22   12.32
  -3 -16   3   12.32   10.69
  -3 -16   2   -5.23    9.43
  -3 -16   1    2.62    8.75
  -3 -16   0   21.25    8.93
  -3 -16  -1  115.78   12.41
  -3 -16  -2    3.25    8.44
  -3 -16  -3   18.55    8.98
  -3 -16  -4   25.72    9.84
  -3 -16  -5  208.91   15.48
  -3 -16  -6    3.20    9.43
  -3 -16  -7   25.58    8.98
  -3 -16  -8   52.66   10.11
  -3 -16  -9   -1.17    7.35
  -3 -16  -9    5.10    7.81
  -3 -16 -10   32.62   14.03
   3  16  10   34.97   11.24
  -3 -16 -10   39.71   10.02
  -3 -16 -10   45.98    8.89
  -3 -17   2   60.10   11.73
  -3 -17   1    8.57    9.16
  -3 -17   0   22.92    9.48
  -3 -17  -1   17.64    9.16
  -3 -17  -2   59.06   11.51
  -3 -17  -3   27.16   10.06
  -3 -17  -4   56.54   11.78
  -3 -17  -5   50.54   10.11
  -3 -17  -6    2.44    8.89
  -3 -17  -7   65.56   10.51
  -3 -17  -8   11.51    9.79
   4 -17  -2    9.57   13.49
   4 -17  -1   13.36   12.32
   4 -17   0   47.29   14.62
   4 -17   1    8.08   15.12
   4 -17   2  116.87   19.31
  -4  16   5  140.69   14.12
   4 -16  -5  163.30   14.62
   4 -16  -5  143.89   14.89
  -4  16   4    7.63    9.93
   4 -16  -4    9.16   10.69
   4 -16  -4   -6.36   10.02
  -4  16   3   41.60    9.52
  -4  16   3   57.17    9.66
   4 -16  -3   55.41   11.24
  -4  16   2   93.31    9.39
  -4  16   2  109.56    8.89
   4 -16  -2  114.84   12.77
   4 -16  -1   57.49   11.64
   4 -16   0   19.09   11.60
   4 -16   1   53.15   11.96
   4 -16   2   19.67   12.59
   4 -16   3   33.98   14.12
   4 -16   4   19.85   15.34
   4 -16   5    5.69   14.71
  -4  15   7   15.39   10.38
   4 -15  -7   18.27    9.43
   4 -15  -7   15.88   12.27
   4 -15  -7    6.18   11.51
  -4  15   6  253.72   16.11
   4 -15  -6  287.25   20.62
   4 -15  -6  278.45   19.40
  -4  15   5   -0.72    9.02
   4 -15  -5  -23.91   11.24
   4 -15  -5   -4.42    9.25
  -4  15   4   33.62    9.48
   4 -15  -4   28.43   10.33
   4 -15  -4   24.55    9.34
  -4  15   3   13.09    8.17
   4 -15  -3    3.93    9.30
  -4  15   2   32.58    7.94
  -4  15   2   11.10    7.31
   4 -15  -2   14.80    9.61
  -4  15   1   19.04    6.77
  -4  15   1   19.72    6.63
   4 -15  -1   19.81    9.20
  -4  15   0  155.31    9.43
  -4  15   0  174.31   10.20
   4 -15   0  178.10   14.17
   4 -15   1  142.09   13.49
   4 -15   2   -2.89   10.83
   4 -15   3   48.96   12.63
   4 -15   4   12.72   11.51
   4 -15   5   19.18   13.58
   4 -15   6   14.62   13.72
   4 -15   7   -9.61   13.99
  -4  14   9    9.34    9.48
   4 -14  -9   -5.96    9.70
   4 -14  -9   23.10   13.90
   4 -14  -9    8.89   11.96
  -4  14   8  129.77   12.27
   4 -14  -8  163.75   13.45
   4 -14  -8  154.41   15.93
   4 -14  -8  129.50   14.12
  -4  14   7  681.79   33.03
   4 -14  -7  643.89   31.36
   4 -14  -7  670.06   36.91
   4 -14  -7  710.67   38.94
  -4  14   6    5.32    9.07
   4 -14  -6    1.94    7.90
   4 -14  -6   10.96   10.02
   4 -14  -6   -0.27    8.71
  -4  14   5    7.49    8.71
   4 -14  -5    3.11    9.66
   4 -14  -5   15.66    8.80
  -4  14   4  278.76   16.33
   4 -14  -4  296.81   19.04
   4 -14  -4  258.01   17.06
  -4  14   3   66.83    8.53
   4 -14  -3   78.11    9.84
  -4  14   2  330.38   17.28
   4 -14  -2  328.67   19.94
  -4  14   1    2.53    5.96
  -4  14   1    1.58    5.82
   4 -14  -1    8.26    8.12
  -4  14   0  299.25   15.30
  -4  14   0  304.66   15.66
   4 -14   0  279.21   17.82
  -4  14  -1   69.89    6.68
  -4  14  -1   80.72    6.95
   4 -14   1   72.74   10.33
  -4  14  -2  460.69   21.66
  -4  14  -2  477.39   22.15
   4 -14   2  452.12   26.53
  -4  14  -3   38.17    5.82
  -4  14  -3   43.72    6.00
   4 -14   3   45.44   10.60
  -4  14  -4  114.52    8.12
  -4  14  -4  109.29    8.03
   4 -14   4   96.92   13.40
  -4  14  -5   50.13    6.86
  -4  14  -5   47.47    6.90
   4 -14   5   75.31   13.45
  -4  14  -6   14.57    7.08
  -4  14  -6   13.58    6.36
   4 -14   6   20.94   11.82
  -4  14  -7   14.80    8.21
  -4  14  -7   11.01    8.12
  -4  14  -7    3.97   10.65
   4 -14   7    6.23   12.14
  -4  14  -8    8.71    9.25
  -4  14  -8    1.53    9.39
  -4  14  -8    7.67   10.33
   4 -14   8    4.06   12.18
  -4  14  -9   17.15   10.60
  -4  14  -9   24.59   10.47
   4 -14   9   25.63   13.18
  -4  13  10    0.59    9.88
   4 -13 -10   -7.04    8.93
   4 -13 -10    8.48   10.06
   4 -13 -10   -8.39   14.48
  -4  13   9   43.18    8.98
   4 -13  -9   33.44    9.57
   4 -13  -9   40.47   10.83
   4 -13  -9   40.88   12.36
  -4  13   8  111.99   11.55
   4 -13  -8  116.64   10.96
   4 -13  -8  114.56   12.36
   4 -13  -8  112.76   13.76
  -4  13   7   52.88    9.30
   4 -13  -7   54.87    9.43
   4 -13  -7   65.38    9.93
   4 -13  -7   57.30   11.42
  -4  13   6   10.87    8.12
   4 -13  -6    4.02    7.22
   4 -13  -6   -1.26    9.30
   4 -13  -6    4.69    7.94
  -4  13   5  459.34   23.42
   4 -13  -5  470.17   23.46
   4 -13  -5  494.08   27.75
   4 -13  -5  496.34   27.57
  -4  13   4    8.57    7.35
   4 -13  -4   27.34    7.72
   4 -13  -4   14.57    8.62
  -4  13   3   10.24    6.68
   4 -13  -3   14.57    7.22
  -4  13   2   -8.57    6.05
   4 -13  -2    0.54    7.31
  -4  13   1   70.44    7.04
   4 -13  -1   72.06    8.84
  -4  13   0  339.41   16.92
  -4  13   0  329.21   16.74
   4 -13   0  351.45   20.85
  -4  13  -1  448.42   21.48
  -4  13  -1  468.82   22.02
   4 -13   1  421.17   24.50
  -4  13  -2  462.95   21.61
  -4  13  -2  487.77   23.06
   4 -13   2  445.08   25.76
  -4  13  -3   44.08    5.55
  -4  13  -3   47.96    6.50
   4 -13   3    7.94    9.79
  -4  13  -4  287.70   14.80
  -4  13  -4  280.07   14.75
   4 -13   4  277.59   19.13
  -4  13  -5  134.78    9.39
  -4  13  -5  154.90   10.47
   4 -13   5  134.82   14.26
  -4  13  -6   -5.19    6.99
  -4  13  -6    0.77    6.59
  -4  13  -6   -6.27    9.43
   4 -13   6   14.62   11.46
  -4  13  -7    0.99    7.45
  -4  13  -7   -1.31    7.72
  -4  13  -7    6.23    9.02
   4 -13   7   -3.20   11.42
  -4  13  -8    1.67    7.94
  -4  13  -8   20.62    8.57
  -4  13  -8   -3.97   10.47
   4 -13   8  -22.65   13.45
  -4  13  -9   14.48    9.75
  -4  13  -9   17.55    8.75
  -4  13  -9    0.99   11.55
   4 -13   9   -0.18   12.45
  -4  13 -10   79.64   11.82
  -4  13 -10   75.76   12.59
   4 -13  10   56.90   13.72
  -4  12  11   -6.09    7.81
   4 -12 -11   -2.98   10.74
   4 -12 -11   -0.09   15.66
  -4  12  10   71.56    9.57
   4 -12 -10   78.47    9.93
   4 -12 -10   65.61   13.85
  -4  12   9    4.92    8.53
   4 -12  -9   17.19    7.94
   4 -12  -9   22.52   10.51
  -4  12   8  221.05   14.53
   4 -12  -8  192.35   13.04
   4 -12  -8  195.20   14.08
   4 -12  -8  193.89   15.70
  -4  12   7   12.45    7.54
   4 -12  -7   12.81    7.94
   4 -12  -7   13.27    8.98
   4 -12  -7   21.93    7.31
  -4  12   6  449.32   22.79
   4 -12  -6  445.08   22.56
   4 -12  -6  482.80   27.43
   4 -12  -6  538.75   29.24
  -4  12   5   61.68    8.84
   4 -12  -5   60.96    8.53
   4 -12  -5   48.42    8.93
   4 -12  -5   66.64    8.39
  -4  12   4  101.79    9.52
   4 -12  -4  108.83    9.34
   4 -12  -4   87.94    8.48
   4 -12  -4  108.83    9.97
  -4  12   3  -11.24    6.50
   4 -12  -3    5.96    6.14
  -4  12   2  125.30    9.70
   4 -12  -2  135.32   10.47
  -4  12   1  157.52   10.15
   4 -12  -1  172.28   12.32
  -4  12   0   92.36    7.35
  -4  12   0  103.69    8.48
   4 -12   0  101.70    9.97
  -4  12  -1  695.78   31.59
  -4  12  -1  680.89   31.22
   4 -12   1  741.35   39.26
  -4  12  -2   45.75    5.91
  -4  12  -2   49.90    6.50
   4 -12   2   35.56    8.93
  -4  12  -3  413.45   19.81
  -4  12  -3  417.51   20.26
   4 -12   3  401.76   24.05
  -4  12  -4  119.80    8.35
  -4  12  -4  105.36    8.08
   4 -12   4  105.95   12.27
  -4  12  -5    4.96    5.37
  -4  12  -5    8.80    5.96
  -4  12  -5    2.35    8.75
   4 -12   5   -3.11   10.06
  -4  12  -6   98.05    8.57
  -4  12  -6  111.27    9.16
  -4  12  -6  108.20   11.01
   4 -12   6  103.28   12.95
  -4  12  -7    0.99    6.72
  -4  12  -7   -0.72    6.32
  -4  12  -7    3.88    8.35
   4 -12   7   13.36   10.78
  -4  12  -8   14.26    7.67
  -4  12  -8   27.07   10.65
   4 -12   8    0.99   12.32
  -4  12  -9  162.08   11.69
  -4  12  -9  148.54   14.39
   4 -12   9  163.61   16.74
  -4  12 -10   33.12    9.16
  -4  12 -10   26.94   10.60
   4 -12  10   40.75   13.22
  -4  12 -11   44.17   11.01
  -4  12 -11   65.74   12.41
   4 -12  11   58.84   13.54
  -4  11  11    4.42    7.94
   4 -11 -11  -14.39    9.20
   4 -11 -11    7.17   13.58
  -4  11  10   -6.14    8.80
   4 -11 -10   12.36    8.35
   4 -11 -10    1.26   10.56
  -4  11   9   92.14   10.56
   4 -11  -9   93.90   10.06
   4 -11  -9  109.15   12.27
  -4  11   8   47.33    8.53
   4 -11  -8   45.12    8.12
   4 -11  -8   60.24   10.02
  -4  11   7  458.44   23.64
   4 -11  -7  463.85   23.55
   4 -11  -7  526.57   29.42
  -4  11   6  329.12   18.55
   4 -11  -6  340.81   18.64
   4 -11  -6  371.31   21.52
   4 -11  -6  320.91   18.77
  -4  11   5   10.38    7.81
   4 -11  -5   15.25    7.04
   4 -11  -5   23.15    7.45
   4 -11  -5   15.25    6.50
  -4  11   4  216.49   13.22
   4 -11  -4  197.00   12.36
   4 -11  -4  227.32   14.62
   4 -11  -4  239.42   14.85
  -4  11   3    9.61    6.54
   4 -11  -3    0.14    5.23
   4 -11  -3    9.11    6.23
  -4  11   2  105.36    8.66
   4 -11  -2  106.08    8.98
  -4  11   1   -0.72    5.91
   4 -11  -1    0.99    5.91
  -4  11   0 1027.88   46.02
   4 -11   0  907.40   46.97
  -4  11  -1  132.16    8.98
  -4  11  -1  136.22    9.30
   4 -11   1  105.54   10.20
  -4  11  -2  250.20   13.81
  -4  11  -2  267.62   14.17
   4 -11   2  264.05   17.19
  -4  11  -3   23.82    6.09
  -4  11  -3   22.61    5.14
   4 -11   3   38.49    9.25
  -4  11  -4   11.42    5.32
  -4  11  -4   15.70    5.50
  -4  11  -4   24.05    7.99
   4 -11   4   13.90    9.57
  -4  11  -5  222.99   12.50
  -4  11  -5  237.30   13.18
  -4  11  -5  196.91   14.21
   4 -11   5  211.94   16.42
  -4  11  -6   -0.77    6.36
  -4  11  -6   -7.04    5.55
  -4  11  -6   11.37    8.57
   4 -11   6   12.95   10.47
  -4  11  -7    3.52    6.05
  -4  11  -7   -8.44    9.11
   4 -11   7    5.60    9.93
  -4  11  -8   34.25    7.35
  -4  11  -8   48.37    9.70
   4 -11   8   39.48   10.96
  -4  11  -9  163.25   11.60
  -4  11  -9  185.81   15.07
   4 -11   9  169.61   16.20
  -4  11 -10   -8.03    7.67
  -4  11 -10   -4.78    9.25
   4 -11  10  -15.03   12.27
  -4  11 -11  184.64   13.36
  -4  11 -11  165.15   15.16
   4 -11  11  178.10   15.79
  -4  11 -12   10.51    8.84
  -4  11 -12  -10.24   11.19
   4 -11  12    7.81   12.41
  -4  10  12    2.08    7.94
   4 -10 -12   -1.53    9.39
   4 -10 -12    5.64   15.48
  -4  10  11   -2.08    8.30
   4 -10 -11   -4.29    9.02
   4 -10 -11   15.75   12.68
  -4  10  10   41.06    9.07
   4 -10 -10   42.96    8.62
   4 -10 -10   35.83   11.42
  -4  10   9   76.53    9.79
   4 -10  -9   61.46    9.07
   4 -10  -9   85.42   11.69
  -4  10   8   17.01    8.08
   4 -10  -8   15.66    7.54
   4 -10  -8   12.14    8.75
  -4  10   7  549.58   27.39
   4 -10  -7  530.18   26.17
   4 -10  -7  628.10   33.84
  -4  10   6   -0.59    7.31
   4 -10  -6   -5.78    6.77
   4 -10  -6    6.59    6.86
  -4  10   5  193.71   12.81
   4 -10  -5  175.61   12.00
   4 -10  -5  192.22   13.09
   4 -10  -5  203.14   13.00
  -4  10   4  524.77   25.90
   4 -10  -4  541.91   26.35
   4 -10  -4  551.84   29.28
   4 -10  -4  532.89   28.25
  -4  10   3  193.12   12.32
   4 -10  -3  206.07   12.81
   4 -10  -3  186.08   12.23
   4 -10  -3  193.17   12.09
  -4  10   2    4.74    5.60
   4 -10  -2    0.50    4.83
   4 -10  -2    4.38    5.37
  -4  10   1  246.05   13.85
   4 -10  -1  236.57   14.26
  -4  10   0  318.38   16.51
   4 -10   0  332.10   18.91
   4 -10   1    3.25    6.50
  -4  10  -2  220.06   12.36
  -4  10  -2  219.47   12.41
   4 -10   2  227.59   15.12
  -4  10  -3  111.32    8.71
  -4  10  -3  108.92    8.26
  -4  10  -3  110.01   10.87
   4 -10   3  108.56   10.92
  -4  10  -4   11.69    5.32
  -4  10  -4   13.49    6.18
  -4  10  -4   -3.52    7.90
   4 -10   4    0.81    8.84
  -4  10  -5    4.11    5.78
  -4  10  -5   -2.35    6.00
  -4  10  -5   -2.35    8.75
   4 -10   5    0.77    8.53
  -4  10  -6   48.69    7.17
  -4  10  -6   38.67    9.61
   4 -10   6   28.74   10.38
  -4  10  -7    1.17    5.82
  -4  10  -7   -8.12    9.25
   4 -10   7    1.94   10.47
  -4  10  -8    0.63    6.68
  -4  10  -8   15.70    9.52
   4 -10   8    2.84   10.60
  -4  10  -9   16.88    6.86
  -4  10  -9   10.92   10.60
   4 -10   9    8.62   10.60
  -4  10 -10  131.89   10.56
  -4  10 -10  111.45   12.95
   4 -10  10  120.52   13.76
  -4  10 -11  170.65   12.09
  -4  10 -11  182.88   15.34
   4 -10  11  146.06   15.97
  -4  10 -12  142.54   11.87
  -4  10 -12  151.65   15.48
   4 -10  12  164.56   16.20
  -4  10 -13   22.92   10.74
  -4  10 -13   24.68   11.05
   4 -10  13   41.69   13.09
  -4   9  13   14.48    9.43
   4  -9 -13   -1.99   10.60
   4  -9 -13   13.99   15.07
  -4   9  12   13.54    8.26
   4  -9 -12    8.03    8.93
   4  -9 -12   -4.02   13.76
  -4   9  11    2.39    8.53
   4  -9 -11  -16.02    8.26
   4  -9 -11   12.23   11.19
  -4   9  10   28.43    9.20
   4  -9 -10   34.02    9.11
   4  -9 -10   34.83   10.24
  -4   9   9   11.10    8.03
   4  -9  -9    8.57    8.35
   4  -9  -9    8.80    9.16
  -4   9   8  468.36   24.32
   4  -9  -8  462.05   23.73
   4  -9  -8  507.62   28.38
  -4   9   7    3.75    7.22
   4  -9  -7   11.19    7.26
   4  -9  -7   -0.45    6.95
  -4   9   6   14.48    7.58
   4  -9  -6   12.41    7.26
   4  -9  -6    3.88    6.50
  -4   9   5  462.95   23.73
   4  -9  -5  435.29   22.29
   4  -9  -5  498.15   26.89
  -4   9   4  165.87   11.91
   4  -9  -4  173.54   12.45
   4  -9  -4  201.02   12.68
   4  -9  -4  170.70   11.01
  -4   9   3  150.35   10.74
   4  -9  -3  142.68   10.20
   4  -9  -3  163.43   10.78
   4  -9  -3  150.26   10.11
  -4   9   2  297.85   16.20
   4  -9  -2  347.26   17.82
   4  -9  -2  318.97   17.73
  -4   9   1 1179.48   52.75
   4  -9  -1 1092.85   55.50
  -4   9   0  324.65   17.10
   4  -9   0  321.40   18.23
  -4   9  -1 2497.49  108.52
   4  -9   1 2273.24  113.62
  -4   9  -2  110.50    8.26
  -4   9  -2  101.52    7.81
   4  -9   2  107.12    9.66
  -4   9  -3   20.40    5.46
  -4   9  -3   15.21    5.41
  -4   9  -3    9.61    6.18
   4  -9   3    6.59    7.76
  -4   9  -4   79.19    7.67
  -4   9  -4   86.14    7.94
  -4   9  -4   78.83    9.16
   4  -9   4   69.76    9.93
  -4   9  -5  126.97    9.34
  -4   9  -5  113.03   10.78
   4  -9   5  100.17   11.73
  -4   9  -6   10.83    6.59
  -4   9  -6   38.71    8.71
   4  -9   6   46.57   10.24
  -4   9  -7  112.99    9.79
  -4   9  -7   97.96   10.87
   4  -9   7  109.78   12.90
  -4   9  -8   -3.47    6.45
  -4   9  -8   -6.14    9.43
   4  -9   8   -1.40   10.47
  -4   9  -9   20.71    6.77
  -4   9  -9   13.99    9.84
   4  -9   9   25.31   10.87
  -4   9 -10  178.46   12.45
  -4   9 -10  180.17   15.48
   4  -9  10  182.79   16.65
  -4   9 -11  133.11   11.01
  -4   9 -11  143.40   14.94
   4  -9  11  133.43   15.21
  -4   9 -12  117.59   10.38
   4  -9  12  182.79   12.95
  -4   9 -12  113.17   13.67
   4  -9  12  132.75   15.88
  -4   9 -13   24.46    9.39
   4  -9  13    6.27    8.12
  -4   9 -13   35.69   11.64
   4  -9  13    4.83   11.87
  -4   9 -14    7.04    9.97
   4  -9  14    9.97   10.24
  -4   9 -14    6.59   10.83
   4  -9  14   18.50   13.85
  -4   8  13    4.29    9.11
   4  -8 -13  -16.20    9.11
   4  -8 -13   -4.15   14.53
  -4   8  12    9.48    9.39
   4  -8 -12   10.65    7.94
   4  -8 -12  -15.16   11.37
  -4   8  11   17.42    9.20
   4  -8 -11   -1.13    8.21
   4  -8 -11   -2.35   10.56
  -4   8  10  142.13   12.18
   4  -8 -10  112.67   11.24
   4  -8 -10  138.43   12.68
  -4   8   9  191.36   13.49
   4  -8  -9  148.95   12.18
   4  -8  -9  220.10   15.93
  -4   8   8   -2.39    7.45
   4  -8  -8   -7.94    7.49
   4  -8  -8    1.08    8.08
  -4   8   7   13.76    7.90
   4  -8  -7    3.93    7.13
   4  -8  -7   19.54    6.99
  -4   8   6  525.22   26.49
   4  -8  -6  513.94   25.95
   4  -8  -6  503.11   27.12
  -4   8   5    2.26    6.86
   4  -8  -5    2.66    6.68
   4  -8  -5    6.68    5.82
  -4   8   4    0.72    6.05
   4  -8  -4   -0.99    6.36
   4  -8  -4   10.42    5.14
  -4   8   3   18.14    6.77
   4  -8  -3   26.94    6.63
   4  -8  -3   21.84    5.50
   4  -8  -3   31.59    5.01
  -4   8   2  443.41   22.06
   4  -8  -2  443.73   22.20
   4  -8  -2  441.16   23.24
  -4   8   1  392.47   19.76
   4  -8  -1  383.26   19.13
   4  -8  -1  413.77   21.97
  -4   8   0 2000.25   87.40
   4  -8   0 1917.68   95.88
  -4   8  -1  287.11   15.25
   4  -8   1  304.62   17.46
  -4   8  -2  238.33   13.22
  -4   8  -2  244.70   13.31
  -4   8  -2  237.75   14.21
   4  -8   2  278.63   16.60
  -4   8  -3  276.37   14.75
  -4   8  -3  272.49   14.30
  -4   8  -3  239.15   14.57
   4  -8   3  270.60   16.83
  -4   8  -4   84.02    7.72
  -4   8  -4   66.64    6.90
  -4   8  -4   80.86    8.98
   4  -8   4   73.59    9.16
  -4   8  -5  104.91    8.35
  -4   8  -5   99.09    9.70
   4  -8   5   85.60   10.15
  -4   8  -6   28.79    6.68
  -4   8  -6   18.09    8.26
   4  -8   6   36.10    9.34
  -4   8  -7   11.15    6.09
  -4   8  -7   -4.87    8.84
   4  -8   7    8.80    9.39
  -4   8  -8   10.15    7.13
  -4   8  -8   19.13   10.15
   4  -8   8   26.89   10.24
  -4   8  -9  353.35   19.13
  -4   8  -9  392.83   24.23
   4  -8   9  358.09   23.37
  -4   8 -10   14.26    7.13
   4  -8  10   13.54    6.18
  -4   8 -10    9.07   10.33
   4  -8  10   -2.75   10.65
  -4   8 -11   59.06    8.53
   4  -8  11   58.48    8.39
  -4   8 -11   64.12   10.96
   4  -8  11   54.73   12.72
  -4   8 -12  114.65   10.83
   4  -8  12  104.73    9.88
  -4   8 -12  115.29   13.18
   4  -8  12  126.21   14.75
  -4   8 -13  110.91   11.24
   4  -8  13   84.11    9.48
  -4   8 -13   70.12   11.55
   4  -8  13   82.30   14.35
  -4   8 -14  -11.05    8.80
   4  -8  14    3.70    8.30
  -4   8 -14    6.54   10.15
   4  -8  14   11.96   13.13
  -4   8 -15   19.81   10.87
   4  -8  15   14.94    9.11
  -4   8 -15   28.88   10.56
   4  -8  15    4.06   13.13
  -4   7  13    1.49    7.31
   4  -7 -13   -1.44    9.48
   4  -7 -13   -2.84   11.51
  -4   7  12   10.42    9.07
   4  -7 -12   11.15    9.39
   4  -7 -12   16.24   10.11
  -4   7  11   92.86   10.96
   4  -7 -11  105.49   11.19
   4  -7 -11  104.10   12.09
  -4   7  10   45.75    8.84
   4  -7 -10   56.90    9.97
   4  -7 -10   57.58   10.51
  -4   7   9  579.82   29.19
   4  -7  -9  596.51   29.51
   4  -7  -9  653.82   35.56
  -4   7   8    1.08    7.40
   4  -7  -8   12.68    7.31
   4  -7  -8   -4.15    7.85
  -4   7   7 1340.57   60.82
   4  -7  -7 1273.34   57.76
   4  -7  -7 1218.29   62.36
  -4   7   6   61.55    9.34
   4  -7  -6   69.85    8.66
   4  -7  -6   78.56    8.12
  -4   7   5  125.12   10.24
   4  -7  -5  141.55   10.60
   4  -7  -5  150.12   10.42
  -4   7   4  126.48   10.15
   4  -7  -4  122.60   10.02
   4  -7  -4  152.29   10.06
  -4   7   3   83.02    9.02
   4  -7  -3   69.49    7.99
   4  -7  -3   65.92    6.36
   4  -7  -3   71.02    5.64
  -4   7   2 1231.38   55.05
   4  -7  -2 1195.28   53.79
   4  -7  -2 1272.44   63.89
   4  -7  -2 1211.52   60.78
  -4   7   1  800.46   36.73
   4  -7  -1  793.69   36.37
   4  -7  -1  701.64   35.74
  -4   7   0 1999.80   87.40
   4  -7   0 2084.63  103.78
  -4   7  -1    3.56    5.23
   4  -7   1    0.72    4.96
  -4   7  -2 1430.81   63.04
  -4   7  -2 1400.13   70.93
   4  -7   2 1363.13   68.81
  -4   7  -3   12.00    5.14
  -4   7  -3    2.57    4.42
  -4   7  -3    5.37    6.00
   4  -7   3   10.15    6.18
  -4   7  -4  502.21   24.05
  -4   7  -4  509.88   28.25
   4  -7   4  524.32   28.97
  -4   7  -5  121.87    9.11
  -4   7  -5  122.91   11.46
   4  -7   5  114.20   10.51
  -4   7  -6   12.23    5.91
  -4   7  -6    5.37    7.35
   4  -7   6    2.03    7.67
  -4   7  -7   26.08    6.77
  -4   7  -7   26.58    9.39
   4  -7   7   32.31    9.48
  -4   7  -8  138.61   10.51
  -4   7  -8  125.17   12.59
   4  -7   8  108.79   13.58
  -4   7  -9   25.22    7.99
   4  -7   9    6.23    7.26
  -4   7  -9   21.07    9.25
   4  -7   9   29.51   10.87
  -4   7 -10  337.20   18.41
   4  -7  10  348.70   19.13
  -4   7 -10  336.25   21.21
   4  -7  10  335.57   22.43
  -4   7 -11  445.13   23.10
   4  -7  11  462.50   23.28
  -4   7 -11  438.81   26.22
   4  -7  11  431.95   26.71
  -4   7 -12   85.46    9.75
   4  -7  12   78.87    8.98
  -4   7 -12   86.32   12.86
   4  -7  12   56.31   12.23
  -4   7 -13   63.49    9.48
   4  -7  13   41.83    7.90
  -4   7 -13   39.30   11.24
   4  -7  13   29.87   13.13
  -4   7 -14    7.45    8.26
   4  -7  14    8.84    7.90
  -4   7 -14   -4.87    9.57
   4  -7  14   -4.29   11.69
  -4   7 -15  -17.46    8.71
   4  -7  15   15.97    8.75
  -4   7 -15   -7.94    9.57
   4  -7  15   21.79   11.78
  -4   6  14    9.25    9.79
   4  -6 -14    2.93   10.02
   4  -6 -14   12.41   13.27
  -4   6  13  -10.42    9.84
   4  -6 -13   13.18    9.30
   4  -6 -13   13.27   10.51
  -4   6  12    3.38    9.57
   4  -6 -12    8.03    9.30
   4  -6 -12   10.74   10.38
  -4   6  11   -9.07    8.39
   4  -6 -11   13.09    9.39
   4  -6 -11   25.54    9.75
  -4   6  10  132.16   11.96
   4  -6 -10  134.60   12.68
   4  -6 -10   86.68   11.28
  -4   6   9    9.25    9.02
   4  -6  -9   17.15    8.80
   4  -6  -9   15.16    8.35
  -4   6   8  148.45   13.09
   4  -6  -8  172.55   12.90
   4  -6  -8  188.43   13.99
  -4   6   7  570.34   28.97
   4  -6  -7  513.94   26.22
   4  -6  -7  607.79   32.71
  -4   6   6   83.16    9.70
   4  -6  -6  100.76    9.93
   4  -6  -6   98.82    8.89
  -4   6   5  297.13   17.06
   4  -6  -5  319.15   17.64
   4  -6  -5  326.59   18.59
  -4   6   4   66.96    8.57
   4  -6  -4   66.42    8.57
   4  -6  -4   72.15    6.54
  -4   6   3  112.04    9.70
   4  -6  -3  114.88    9.57
   4  -6  -3  103.92    7.35
  -4   6   2   -5.78    5.82
   4  -6  -2   -6.32    6.09
   4  -6  -2   -7.22    3.29
   4  -6  -2   -2.03    2.84
  -4   6   1 3394.06  146.78
   4  -6  -1 3528.53  152.69
   4  -6  -1 3536.20  175.25
  -4   6   0  320.86   16.83
   4  -6   0  291.71   15.61
  -4   6  -1 1403.74   62.04
   4  -6   1 1349.14   67.64
  -4   6  -2  182.83   10.92
  -4   6  -2  170.47   10.47
   4  -6   2  215.50   13.00
  -4   6  -3   66.42    6.99
  -4   6  -3   45.53    6.59
  -4   6  -3   39.53    6.68
   4  -6   3   42.78    6.68
  -4   6  -4   26.04    6.05
  -4   6  -4   24.05    6.41
   4  -6   4   29.60    7.17
  -4   6  -5   90.79    7.85
  -4   6  -5   97.15    9.93
   4  -6   5   82.71    9.84
  -4   6  -6  273.12   15.21
  -4   6  -6  241.27   15.97
   4  -6   6  268.79   17.73
  -4   6  -7   94.76    8.62
  -4   6  -7   81.22    9.93
   4  -6   7   75.17   10.11
  -4   6  -8  524.32   25.76
   4  -6   8  545.07   27.16
  -4   6  -8  476.94   27.21
   4  -6   8  496.34   29.28
  -4   6  -9    7.45    6.90
   4  -6   9   -2.75    7.08
  -4   6  -9    6.00    8.71
   4  -6   9   12.32   10.60
  -4   6 -10  538.75   26.71
   4  -6  10  582.07   27.93
  -4   6 -10  559.96   31.99
   4  -6  10  563.57   32.62
  -4   6 -11   24.19    7.81
   4  -6  11   17.46    6.72
  -4   6 -11   22.47   10.92
   4  -6  11   25.13   11.24
  -4   6 -12  388.77   20.85
   4  -6  12  380.11   20.49
  -4   6 -12  417.06   25.81
   4  -6  12  435.02   26.80
  -4   6 -13   69.35    9.30
   4  -6  13   72.38    9.43
  -4   6 -13   61.82   10.87
   4  -6  13   74.18   12.72
  -4   6 -14    6.59    8.39
   4  -6  14    1.40    7.63
  -4   6 -14   -0.50   10.29
   4  -6  14   -3.97   11.73
  -4   6 -15   -8.84    8.12
   4  -6  15   -0.81    8.08
  -4   6 -15   11.10    9.88
   4  -6  15   18.91   11.87
  -4   6 -16   15.43    9.61
   4  -6  16   -0.59    8.44
  -4   6 -16    9.79    9.02
   4  -6  16    2.89   11.10
  -4   5  14    9.25    9.30
   4  -5 -14   -7.08    9.25
   4  -5 -14  -36.59   12.68
  -4   5  13   22.38   10.69
   4  -5 -13    0.68    8.39
   4  -5 -13   10.74   10.42
  -4   5  12   51.17   11.01
   4  -5 -12   49.50    9.34
   4  -5 -12   54.69   11.19
  -4   5  11  112.71   11.37
   4  -5 -11  118.81   11.37
   4  -5 -11   99.27   11.87
  -4   5  10  -10.65    7.22
   4  -5 -10  -10.24    8.21
   4  -5 -10    9.70    9.70
  -4   5   9   24.64    8.98
   4  -5  -9   65.83    9.57
   4  -5  -9   73.32   10.29
  -4   5   8  457.08   24.14
   4  -5  -8  434.43   22.97
   4  -5  -8  459.79   26.17
  -4   5   7  195.51   13.49
   4  -5  -7  181.30   13.04
   4  -5  -7  212.16   14.44
  -4   5   6  177.10   12.59
   4  -5  -6  189.87   12.95
   4  -5  -6  142.18   10.78
  -4   5   5  174.67   12.54
   4  -5  -5  175.66   12.54
   4  -5  -5  181.71   12.00
  -4   5   4  318.61   17.82
   4  -5  -4  295.64   16.74
   4  -5  -4  315.45   17.46
  -4   5   3  113.84    9.52
   4  -5  -3  116.96    9.75
   4  -5  -3  119.26    7.76
  -4   5   2  707.06   33.03
   4  -5  -2  662.39   31.22
   4  -5  -2  632.61   31.95
  -4   5   1 1134.81   50.94
   4  -5  -1 1128.95   50.67
  -4   5   0 1863.98   81.54
   4  -5   0 1636.12   72.06
   4  -5   0 1654.62   82.39
  -4   5  -1  196.37   11.73
  -4   5  -1  203.14   11.24
   4  -5   1  202.82   11.46
  -4   5  -2  292.66   15.25
  -4   5  -2  295.59   16.29
   4  -5   2  277.18   15.66
  -4   5  -3   66.10    6.95
  -4   5  -3   66.42    6.68
   4  -5   3   69.04    7.26
  -4   5  -4   11.01    5.78
  -4   5  -4   13.13    6.54
   4  -5   4    6.32    6.45
  -4   5  -5   -9.57    5.37
  -4   5  -5    6.27    6.36
   4  -5   5   -1.44    7.35
  -4   5  -6   28.38    7.26
  -4   5  -6   26.40    7.35
   4  -5   6   24.91    8.89
  -4   5  -7  638.93   30.46
   4  -5   7  608.69   28.83
  -4   5  -7  601.47   32.67
   4  -5   7  594.25   33.30
  -4   5  -8   30.64    6.77
   4  -5   8   16.88    7.26
  -4   5  -8   11.10    8.48
   4  -5   8   26.85    9.93
  -4   5  -9  476.04   24.00
   4  -5   9  477.84   24.19
  -4   5  -9  399.73   24.59
   4  -5   9  441.79   26.76
  -4   5 -10  702.55   33.66
   4  -5  10  753.53   36.10
  -4   5 -10  712.02   40.11
   4  -5  10  727.82   40.47
  -4   5 -11  974.18   45.08
   4  -5  11  907.85   42.55
  -4   5 -11  955.68   51.71
   4  -5  11  921.39   49.86
  -4   5 -12  224.21   14.44
   4  -5  12  232.87   14.80
  -4   5 -12  221.91   16.97
   4  -5  12  259.18   19.22
  -4   5 -13   80.23    9.34
   4  -5  13  111.32   10.11
  -4   5 -13  128.37   13.36
   4  -5  13  115.42   13.85
  -4   5 -14   56.72    9.20
   4  -5  14   52.30    8.71
  -4   5 -14   31.68   10.42
   4  -5  14   59.97   11.91
  -4   5 -15    0.54    8.66
   4  -5  15   11.28    8.17
  -4   5 -15   -2.26   10.47
   4  -5  15  -12.63   12.09
  -4   5 -16   33.89    8.98
   4  -5  16   44.49    8.08
  -4   5 -16   40.61   10.29
   4  -5  16   22.83   10.56
  -4   4  14    1.71    8.62
   4  -4 -14    5.73    9.48
   4  -4 -14    0.90   11.64
  -4   4  13   12.05   10.20
   4  -4 -13   19.81    8.62
   4  -4 -13    9.75   10.33
  -4   4  12   93.31   11.78
   4  -4 -12  100.31   10.51
   4  -4 -12  112.04   12.63
  -4   4  11   24.46    9.70
   4  -4 -11   14.17    9.57
   4  -4 -11   22.43    9.25
  -4   4  10   -1.44    7.76
   4  -4 -10    7.76    9.02
  -4   4  10    6.90    8.57
   4  -4 -10    9.43    9.25
  -4   4   9  437.37   23.73
   4  -4  -9  387.24   21.75
  -4   4   9  391.66   23.55
   4  -4  -9  347.93   21.88
  -4   4   8   -5.05    7.35
   4  -4  -8   15.93    8.35
  -4   4   8   16.24    9.07
   4  -4  -8   -5.01    8.26
  -4   4   7  229.53   14.62
   4  -4  -7  233.19   15.66
  -4   4   7  206.66   14.66
   4  -4  -7  218.57   14.89
  -4   4   6  367.38   20.30
   4  -4  -6  320.55   18.00
  -4   4   6  357.82   21.16
   4  -4  -6  355.06   20.40
  -4   4   5   94.49    9.97
   4  -4  -5  111.81    9.84
   4  -4  -5   97.19    8.21
  -4   4   4  349.29   18.27
   4  -4  -4  318.88   17.91
   4  -4  -4  331.33   18.23
  -4   4   3  290.54   16.33
   4  -4  -3  280.25   15.66
   4  -4  -3  245.37   13.63
  -4   4   2   30.10    6.77
   4  -4  -2   35.96    6.81
   4  -4  -2   35.87    3.52
  -4   4   1  633.06   29.87
   4  -4  -1  636.22   30.19
  -4   4   0   32.40    6.59
   4  -4   0   28.74    6.86
  -4   4  -1   85.33    7.90
  -4   4  -1   65.61    4.87
   4  -4   1   68.40    5.10
  -4   4  -2  786.47   36.01
  -4   4  -2  805.88   41.06
   4  -4   2  782.41   39.84
  -4   4  -3    0.27    5.01
  -4   4  -3    3.16    5.82
   4  -4   3    9.39    5.32
  -4   4  -4  395.09   19.72
  -4   4  -4  369.19   20.94
   4  -4   4  396.89   22.25
  -4   4  -5   24.32    6.45
  -4   4  -5   27.70    7.72
   4  -4   5   23.37    7.76
  -4   4  -6  358.45   19.00
   4  -4   6  398.47   20.58
  -4   4  -6  349.87   21.07
   4  -4   6  364.90   21.84
  -4   4  -7   27.07    6.86
   4  -4   7   36.10    6.81
  -4   4  -7   28.07    8.39
   4  -4   7   38.04    8.80
  -4   4  -8  252.77   14.75
   4  -4   8  215.68   13.18
  -4   4  -8  245.55   17.69
   4  -4   8  246.14   17.24
  -4   4  -9  341.53   18.86
  -4   4  -9  329.39   21.25
  -4   4 -10  397.52   21.16
   4  -4  10  438.95   22.47
  -4   4 -10  429.65   26.22
   4  -4  10  365.35   24.00
  -4   4 -11  818.96   38.80
   4  -4  11  788.28   37.09
  -4   4 -11  795.50   43.05
   4  -4  11  824.38   45.57
  -4   4 -12   -2.98    7.45
   4  -4  12    1.49    7.85
  -4   4 -12   -0.23    9.20
   4  -4  12    9.43   11.73
  -4   4 -13  251.06   15.39
   4  -4  13  216.09   14.98
  -4   4 -13  203.32   16.70
   4  -4  13  264.96   19.31
  -4   4 -14    7.31    8.17
   4  -4  14   -9.34    7.76
  -4   4 -14   -2.57    9.16
   4  -4  14  -15.97   10.20
  -4   4 -15   43.27    8.93
   4  -4  15   23.78    8.30
  -4   4 -15   17.96   10.38
   4  -4  15   38.26   11.46
  -4   4 -16   -0.86    7.22
   4  -4  16    2.03    7.99
  -4   4 -16   -0.90    9.66
   4  -4  16   -4.92   10.20
  -4   3  14   22.02    8.57
   4  -3 -14   33.12   10.42
   4  -3 -14   31.63   12.14
  -4   3  13    6.50    7.31
   4  -3 -13   10.47    8.71
  -4   3  13   16.83   11.28
   4  -3 -13   21.07   11.05
  -4   3  12   14.21    8.26
   4  -3 -12   14.94    8.03
  -4   3  12   11.42   10.56
   4  -3 -12   32.44   11.46
  -4   3  11    5.41    8.93
   4  -3 -11   17.55    9.30
  -4   3  11   -3.11    8.84
   4  -3 -11    5.37   10.29
  -4   3  10   97.46   11.51
   4  -3 -10  123.99   11.73
  -4   3  10  120.70   12.54
   4  -3 -10  125.44   12.72
  -4   3   9   52.75    8.84
   4  -3  -9   57.67   10.11
  -4   3   9   39.53    9.52
   4  -3  -9   64.66   10.69
  -4   3   8   67.86   10.29
   4  -3  -8   48.60    9.39
  -4   3   8   62.94   10.38
   4  -3  -8   70.53    9.97
  -4   3   7  690.82   33.25
   4  -3  -7  711.12   34.47
  -4   3   7  716.99   38.53
   4  -3  -7  786.92   41.60
  -4   3   6    8.26    7.72
   4  -3  -6    2.84    6.54
  -4   3   6   -1.53    6.63
   4  -3  -6   -4.11    6.59
  -4   3   5    0.90    7.26
   4  -3  -5   -2.75    7.26
  -4   3   5    0.50    5.41
   4  -3  -5    0.90    5.82
  -4   3   4  146.96   10.92
   4  -3  -4  149.85   11.42
  -4   3   4  150.93   10.33
   4  -3  -4  171.55   11.05
  -4   3   3  213.25   13.18
   4  -3  -3  199.98   12.50
  -4   3   3  206.48   11.87
   4  -3  -3  193.35   11.51
  -4   3   2  136.45   10.38
   4  -3  -2  148.99   10.60
   4  -3  -2  131.67    7.76
  -4   3   1 4023.97  173.63
   4  -3  -1 3886.34  167.67
  -4   3   0 1414.57   62.81
   4  -3   0 1604.53   70.62
  -4   3  -1  389.22   19.67
  -4   3  -1  389.85   19.90
  -4   3  -2  409.03   20.49
  -4   3  -2  462.05   24.05
   4  -3   2  417.69   21.84
  -4   3  -3   81.22    7.45
  -4   3  -3   75.40    7.63
   4  -3   3   73.14    7.26
  -4   3  -4    3.38    5.73
  -4   3  -4    4.65    6.18
   4  -3   4   -5.82    6.36
  -4   3  -5   21.12    6.27
  -4   3  -5   22.34    7.08
   4  -3   5   27.70    7.94
  -4   3  -6   88.89    8.66
   4  -3   6   77.38    7.63
  -4   3  -6   77.97    8.89
   4  -3   6   80.54    9.93
  -4   3  -7   18.14    6.90
   4  -3   7   15.57    6.95
  -4   3  -7    9.57    8.17
   4  -3   7    9.07    8.44
  -4   3  -8  304.35   17.19
   4  -3   8  346.76   18.86
  -4   3  -8  350.15   21.84
   4  -3   8  295.50   19.63
  -4   3  -9   70.16    8.93
   4  -3   9   70.03    9.07
  -4   3  -9   78.87   10.15
   4  -3   9   73.19   11.28
  -4   3 -10  325.28   18.36
   4  -3  10  314.68   17.96
  -4   3 -10  320.68   20.44
   4  -3  10  352.67   22.92
  -4   3 -11   18.55    8.12
   4  -3  11   25.72    7.26
  -4   3 -11   28.02    9.66
   4  -3  11   -9.52   10.92
  -4   3 -12   -2.21    8.03
   4  -3  12    7.35    6.95
  -4   3 -12    9.34   10.42
   4  -3  12    1.94   10.74
  -4   3 -13   89.12   10.20
   4  -3  13   91.78    8.89
  -4   3 -13   77.65   12.00
   4  -3  13   90.83   13.63
  -4   3 -14   40.11    8.84
   4  -3  14   54.69    7.94
  -4   3 -14   52.25   10.20
   4  -3  14   34.97   12.09
  -4   3 -15   10.47    7.76
   4  -3  15    6.95    6.18
  -4   3 -15   -4.87    9.48
   4  -3  15  -10.65   10.87
  -4   3 -16   27.43    9.20
   4  -3  16   12.86    7.31
  -4   3 -16   22.34    9.70
   4  -3  16   26.49   11.42
  -4   3 -17   30.19    9.97
   4  -3  17   33.66    8.35
  -4   3 -17   13.99   10.47
   4  -3  17   45.39   10.74
  -4   2  14    6.23    8.75
   4  -2 -14    6.14    8.35
  -4   2  14    9.34   11.10
   4  -2 -14    0.45   10.56
  -4   2  13   16.83    8.62
   4  -2 -13   14.17    7.76
  -4   2  13   14.75   10.51
   4  -2 -13   19.58   11.05
  -4   2  12  389.13   22.52
   4  -2 -12  404.56   22.02
  -4   2  12  369.23   23.28
   4  -2 -12  303.94   21.34
  -4   2  11   39.03    9.20
   4  -2 -11   53.38   10.11
  -4   2  11   43.77   11.69
   4  -2 -11   34.11   10.33
  -4   2  10   11.87    7.45
   4  -2 -10    5.96    9.07
  -4   2  10   -1.80   10.11
   4  -2 -10   20.26   10.56
  -4   2   9   76.57   10.47
   4  -2  -9   84.33   11.01
  -4   2   9   79.73   11.51
   4  -2  -9   95.39   11.19
  -4   2   8  408.58   22.15
   4  -2  -8  379.34   21.25
  -4   2   8  403.71   24.73
   4  -2  -8  365.40   22.61
  -4   2   7    0.32    7.85
   4  -2  -7   10.15    7.81
  -4   2   7    3.52    8.26
   4  -2  -7   -3.93    7.35
  -4   2   6   10.65    7.13
   4  -2  -6   11.37    6.99
  -4   2   6    7.58    7.58
   4  -2  -6    2.03    6.72
  -4   2   5   69.31    8.35
   4  -2  -5   62.04    8.44
  -4   2   5   33.53    7.40
   4  -2  -5   68.27    7.76
  -4   2   4  368.96   19.67
   4  -2  -4  361.74   19.04
  -4   2   4  334.22   19.04
   4  -2  -4  346.13   19.54
  -4   2   3  749.92   35.33
   4  -2  -3  759.40   35.51
  -4   2   3  758.50   39.12
   4  -2  -3  857.77   43.77
  -4   2   2  192.31   12.23
   4  -2  -2  188.02   12.23
  -4   2   2  198.36   11.42
   4  -2  -2  198.99   11.42
  -4   2   1 2814.25  122.37
   4  -2  -1 2802.52  121.69
  -4   2   1 2692.87  133.47
   4  -2  -1 2755.14  136.54
  -4   2   0  484.61   24.00
   4  -2   0  464.75   22.79
  -4   2  -1  665.10   31.18
  -4   2  -1  647.05   32.53
  -4   2  -2   91.91    6.77
  -4   2  -3   31.77    6.72
  -4   2  -3   32.85    6.00
   4  -2   3   40.52    6.59
  -4   2  -4  377.85   19.40
  -4   2  -4  392.15   21.93
   4  -2   4  394.00   22.06
  -4   2  -5   52.97    7.67
   4  -2   5   72.65    8.12
  -4   2  -5   68.40    8.48
   4  -2   5   57.30    8.26
  -4   2  -6   31.54    7.04
   4  -2   6   32.89    6.86
  -4   2  -6   35.47    7.85
   4  -2   6   37.23    8.39
  -4   2  -7   93.04    9.34
   4  -2   7   93.49    8.98
  -4   2  -7   95.93   10.69
   4  -2   7  102.88   11.19
  -4   2  -8  107.80   10.06
   4  -2   8  102.88    8.98
  -4   2  -8  127.74   11.51
   4  -2   8  110.50   11.69
  -4   2  -9   36.73    7.90
   4  -2   9   32.58    6.95
  -4   2  -9   34.34    8.71
   4  -2   9   22.11    9.57
  -4   2 -10   92.36   10.11
   4  -2  10  120.25   10.38
  -4   2 -10  137.08   12.90
   4  -2  10   85.69   11.64
  -4   2 -11   41.65    7.90
   4  -2  11   50.18    8.71
  -4   2 -11   59.65   11.01
   4  -2  11   28.20   11.46
  -4   2 -12  243.21   15.21
   4  -2  12  232.47   15.16
  -4   2 -12  251.33   18.50
   4  -2  12  240.27   18.23
  -4   2 -13   17.37    8.35
   4  -2  13   12.36    7.49
  -4   2 -13    8.84    9.61
   4  -2  13   36.41   11.60
  -4   2 -14   31.22    8.84
   4  -2  14   28.11    7.94
  -4   2 -14   35.24   10.69
   4  -2  14   25.31   11.51
  -4   2 -15   -5.60    7.54
   4  -2  15   10.47    6.27
  -4   2 -15    3.20    8.84
   4  -2  15    3.11   10.74
  -4   2 -16   18.23    8.39
   4  -2  16    6.05    7.04
  -4   2 -16   11.78    9.30
   4  -2  16    6.41    9.25
  -4   2 -17   42.32    9.88
   4  -2  17   55.09    8.17
  -4   2 -17   35.01   10.24
   4  -2  17   31.59    9.93
  -4   1  14   -8.21    8.35
   4  -1 -14    5.37    9.75
  -4   1  14  -12.50   10.38
   4  -1 -14   -1.22   10.15
  -4   1  13   93.45   11.28
   4  -1 -13  113.98   11.91
  -4   1  13   70.84   12.54
   4  -1 -13   91.15   12.68
  -4   1  12   54.24    9.79
   4  -1 -12   48.73   10.20
  -4   1  12   76.98   11.33
   4  -1 -12   58.79   11.69
  -4   1  11  239.37   15.21
   4  -1 -11  211.71   15.21
  -4   1  11  228.99   17.19
   4  -1 -11  209.91   17.10
  -4   1  10   73.55   10.47
   4  -1 -10   49.23   10.33
  -4   1  10   48.96   11.51
   4  -1 -10   71.11   11.55
  -4   1   9 1141.58   52.93
   4  -1  -9 1262.96   57.80
  -4   1   9 1072.09   56.49
   4  -1  -9 1257.55   65.34
  -4   1   8  294.87   18.64
   4  -1  -8  318.70   18.64
  -4   1   8  247.85   17.42
   4  -1  -8  268.11   18.23
  -4   1   7  424.82   22.88
  -4   1   7  364.27   22.38
  -4   1   6    0.18    6.41
   4  -1  -6   -5.32    7.13
  -4   1   6    8.75    8.03
   4  -1  -6    3.61    7.31
  -4   1   5   33.98    7.58
   4  -1  -5   12.41    7.17
  -4   1   5   36.23    7.35
   4  -1  -5   45.17    7.31
  -4   1   4   93.81    9.02
   4  -1  -4   72.96    8.57
  -4   1   4   71.47    8.30
   4  -1  -4   66.78    7.58
  -4   1   3    9.66    6.36
   4  -1  -3   -8.17    6.77
  -4   1   3    4.33    5.19
   4  -1  -3    0.27    5.05
  -4   1   2 4634.01  199.75
   4  -1  -2 4773.89  205.39
  -4   1   2 5103.28  252.41
   4  -1  -2 4378.62  216.68
  -4   1   1   15.43    7.40
   4  -1  -1    4.78    6.59
  -4   1   1   14.08    4.15
   4  -1  -1    6.59    4.02
  -4   1   0 3725.26  160.72
   4  -1   0 3732.48  160.99
  -4   1   0 3709.02  183.47
  -4   1  -1  191.72   11.78
  -4   1  -2 2934.72  145.47
  -4   1  -3  142.59   10.06
  -4   1  -3  166.68   11.51
  -4   1  -4   10.74    6.63
  -4   1  -4   13.85    6.32
   4  -1   4   13.85    7.13
  -4   1  -5  316.76   17.24
   4  -1   5  306.51   16.15
  -4   1  -5  343.96   20.21
   4  -1   5  315.54   19.09
  -4   1  -6  572.14   27.43
   4  -1   6  558.61   26.49
  -4   1  -6  647.50   34.88
   4  -1   6  653.82   35.29
  -4   1  -7   -2.84    6.63
   4  -1   7    1.80    6.68
  -4   1  -7    3.97    7.90
   4  -1   7   11.15    8.93
  -4   1  -8  464.75   23.37
   4  -1   8  433.12   22.11
  -4   1  -8  479.65   27.30
   4  -1   8  453.02   26.71
  -4   1  -9  361.52   19.90
   4  -1   9  346.76   19.22
  -4   1  -9  359.08   22.43
   4  -1   9  296.81   19.81
  -4   1 -10   43.63    7.76
   4  -1  10   24.82    7.99
  -4   1 -10   21.25    9.43
   4  -1  10   41.56   10.65
  -4   1 -11  980.50   45.30
   4  -1  11  943.95   43.68
  -4   1 -11  957.03   51.26
   4  -1  11 1032.84   55.36
  -4   1 -12   35.10    7.90
   4  -1  12   43.99    8.30
  -4   1 -12   68.13   11.01
   4  -1  12   60.15   11.60
  -4   1 -13    6.05    8.03
   4  -1  13   -0.18    7.08
  -4   1 -13    7.04    9.11
   4  -1  13    9.79   11.24
  -4   1 -14   18.23    8.44
   4  -1  14    6.54    6.54
  -4   1 -14    7.17   10.42
   4  -1  14   18.14   11.10
  -4   1 -15   23.37    7.26
   4  -1  15   39.66    8.35
  -4   1 -15   42.14    9.88
   4  -1  15   32.31   10.56
  -4   1 -16   52.97    9.34
   4  -1  16   52.93    8.30
  -4   1 -16   52.48   10.42
   4  -1  16   49.59   10.96
  -4   1 -17   69.13    9.34
   4  -1  17   47.74    8.26
  -4   1 -17   52.75   10.92
   4  -1  17   50.58   10.65
  -4   0  14   28.02    9.16
   4   0 -14   13.72    9.61
  -4   0  14    8.98   10.74
   4   0 -14   -7.45   10.42
  -4   0  13   -4.96    9.02
   4   0 -13   -0.72    8.44
  -4   0  13  -10.29   10.02
   4   0 -13    0.77    9.84
  -4   0  12   10.15   10.02
   4   0 -12   -4.83    8.93
  -4   0  12   -4.69    9.97
   4   0 -12   -9.75   10.47
  -4   0  11   68.13    9.84
   4   0 -11   57.49   10.20
  -4   0  11   77.88   14.08
   4   0 -11   66.33   11.69
  -4   0  10   29.65    7.67
   4   0 -10   28.70    9.48
  -4   0  10   26.71   11.82
   4   0 -10   26.08    9.79
  -4   0   9  135.28   12.00
   4   0  -9  169.70   13.04
  -4   0   9  164.83   14.57
   4   0  -9  144.75   13.31
  -4   0   8   97.01   10.47
   4   0  -8   90.92   10.96
  -4   0   8   63.49   10.56
   4   0  -8   99.36   11.42
  -4   0   7   67.73    9.52
   4   0  -7   72.87    9.11
  -4   0   7   69.89    9.48
   4   0  -7   56.31    8.80
  -4   0   6  118.81   10.65
   4   0  -6  133.34   11.28
  -4   0   6  140.83   12.50
   4   0  -6  128.10   11.37
  -4   0   5   25.31    7.85
   4   0  -5   36.68    6.99
  -4   0   5   31.00    8.12
   4   0  -5   40.25    7.99
  -4   0   4  221.01   13.58
   4   0  -4  201.83   13.00
  -4   0   4  208.78   14.08
   4   0  -4  221.19   13.99
  -4   0   3 2027.32   88.62
   4   0  -3 1987.62   87.27
  -4   0   3 2187.06  109.51
   4   0  -3 2026.42  101.57
  -4   0   2  317.66   17.19
   4   0  -2  289.10   16.11
  -4   0   2  321.22   18.05
   4   0  -2  356.96   19.76
  -4   0   1 2951.42  127.83
   4   0  -1 2955.03  128.01
  -4   0   1 2814.70  139.79
   4   0  -1 2728.07  135.50
  -4   0   0 3485.21  150.48
   4   0   0 3510.48  151.47
  -4   0   0 3349.39  165.91
  -4   0  -1  871.75   39.71
  -4   0  -3   58.84    7.45
  -4   0  -3   60.73    8.26
  -4   0  -4   13.58    6.32
  -4   0  -4   13.27    6.68
  -4   0  -5    4.42    6.99
   4   0   5   11.24    6.41
  -4   0  -5    8.80    7.94
  -4   0  -6 4056.90  175.12
   4   0   6 4016.29  173.40
  -4   0  -6 4077.21  203.00
   4   0   6 4006.82  199.57
  -4   0  -7 1459.24   64.89
   4   0   7 1476.84   65.79
  -4   0  -7 1367.19   70.30
   4   0   7 1401.94   71.97
  -4   0  -8 6141.08  264.14
   4   0   8 6380.23  273.75
  -4   0  -8 6086.94  302.00
   4   0   8 6357.67  315.63
  -4   0  -9  352.58   19.40
   4   0   9  331.78   18.41
  -4   0  -9  361.88   22.88
   4   0   9  351.27   22.47
  -4   0 -10  824.38   38.99
   4   0  10  830.24   39.08
  -4   0 -10  831.60   44.76
   4   0  10  838.36   45.57
  -4   0 -11  390.85   21.34
   4   0  11  414.44   22.02
  -4   0 -11  442.24   26.22
   4   0  11  459.34   28.11
  -4   0 -12    8.53    7.85
   4   0  12   -2.98    6.99
  -4   0 -12   11.73    9.34
   4   0  12   -0.36   10.87
  -4   0 -13  200.84   14.08
   4   0  13  176.25   12.54
  -4   0 -13  164.15   15.21
   4   0  13  164.92   15.75
  -4   0 -14    4.56    7.94
   4   0  14   -2.35    7.08
  -4   0 -14  -12.36    9.52
   4   0  14   -9.07   10.69
  -4   0 -15   94.26   10.02
   4   0  15  110.64    9.25
  -4   0 -15   85.91   11.55
   4   0  15  133.43   13.36
  -4   0 -16    1.90    7.67
   4   0  16   -0.63    7.99
  -4   0 -16   -6.14    9.30
   4   0  16    8.62    7.22
  -4   0 -17  119.17   10.78
   4   0  17  126.07   10.83
  -4   0 -17   98.77   11.91
  -4  -1  14   11.96    9.11
   4   1 -14    7.22    9.57
  -4  -1  14    9.34   10.56
   4   1 -14   12.18   10.24
  -4  -1  13   54.91   10.24
   4   1 -13   39.12    9.16
  -4  -1  13   42.91   11.87
   4   1 -13   53.60   10.92
  -4  -1  12   14.80    9.84
   4   1 -12   26.58    9.48
  -4  -1  12   17.19   11.37
   4   1 -12   19.85   10.15
  -4  -1  11   76.21   11.01
   4   1 -11   43.00   10.11
  -4  -1  11   65.20   11.87
   4   1 -11   44.85   10.92
  -4  -1  10  244.92   16.11
   4   1 -10  229.90   15.39
  -4  -1  10  236.98   18.00
   4   1 -10  300.38   20.30
  -4  -1   9   60.87    9.43
   4   1  -9   93.58   10.06
  -4  -1   9   78.02   11.73
   4   1  -9   62.27   10.33
  -4  -1   8   47.29    9.70
   4   1  -8   40.79    9.20
  -4  -1   8   54.64   10.92
   4   1  -8   27.66    9.16
  -4  -1   7  140.10   11.51
   4   1  -7  147.55   11.91
  -4  -1   7  147.86   13.13
   4   1  -7  149.76   13.13
  -4  -1   6   48.37    8.35
   4   1  -6   65.56    8.62
  -4  -1   6   67.59   10.11
   4   1  -6   63.80    9.43
  -4  -1   5  117.59    9.88
   4   1  -5  110.68   10.15
  -4  -1   5  124.04   11.28
   4   1  -5  122.46   11.01
  -4  -1   4   15.70    6.18
   4   1  -4   21.57    6.90
  -4  -1   4   19.67    7.81
   4   1  -4   31.31    7.40
  -4  -1   3  590.19   28.02
   4   1  -3  571.69   27.48
  -4  -1   3  618.17   33.07
   4   1  -3  547.33   29.46
  -4  -1   2   97.64    9.34
   4   1  -2   71.02    7.85
  -4  -1   2  101.16    9.61
   4   1  -2   68.09    7.90
  -4  -1   1 1929.41   84.24
   4   1  -1 1936.18   84.69
  -4  -1   1 1873.91   93.99
   4   1  -1 1973.18   98.86
  -4  -1   0   38.26    7.08
   4   1   0   32.35    6.72
  -4  -1   0   35.74    6.72
  -4  -1  -1  219.74   12.63
  -4  -1  -3    1.99    6.14
  -4  -1  -4   31.09    6.09
   4   1   4   14.66    6.72
  -4  -1  -4   24.82    6.59
  -4  -1  -5  174.76   11.96
   4   1   5  176.11   11.78
  -4  -1  -5  177.01   13.18
  -4  -1  -6  401.72   20.71
   4   1   6  432.22   21.75
  -4  -1  -6  417.06   24.14
  -4  -1  -7 1175.88   53.20
   4   1   7  962.00   44.40
  -4  -1  -7 1014.34   53.11
  -4  -1  -8  873.56   40.52
   4   1   8  848.74   39.57
  -4  -1  -8  819.86   43.68
  -4  -1  -9 1416.37   63.44
   4   1   9 1326.13   59.97
  -4  -1  -9 1288.68   66.64
   4   1   9 1221.45   63.76
  -4  -1 -10  559.51   28.11
   4   1  10  535.60   27.12
  -4  -1 -10  557.25   31.54
   4   1  10  529.73   30.73
  -4  -1 -11   13.90    8.03
   4   1  11   24.23    7.58
  -4  -1 -11   10.87    8.89
   4   1  11   22.61   10.65
  -4  -1 -12  358.67   20.12
   4   1  12  364.90   19.90
  -4  -1 -12  412.41   25.27
   4   1  12  416.25   26.53
  -4  -1 -13   10.92    8.21
   4   1  13   13.81    6.95
  -4  -1 -13    4.83    9.48
   4   1  13   -6.86    7.90
  -4  -1 -14   -9.97    8.48
   4   1  14   -5.73    7.13
  -4  -1 -14    9.34    9.61
  -4  -1 -15    1.90    8.08
   4   1  15    4.92    7.85
  -4  -1 -15    4.74    9.02
  -4  -1 -16   22.15    8.93
   4   1  16   -7.58    5.91
  -4  -1 -16   33.30   10.69
  -4  -1 -17   59.02   10.47
   4   1  17   65.79    8.84
  -4  -1 -17   60.51   10.87
  -4  -2  14   10.96    8.89
   4   2 -14   12.72    9.66
  -4  -2  14  -10.78   11.33
   4   2 -14    8.80   10.29
  -4  -2  13    8.75    8.08
   4   2 -13    1.17    8.93
  -4  -2  13    3.43   12.14
   4   2 -13    0.32   10.15
  -4  -2  12   39.57    9.43
   4   2 -12   13.09    9.66
  -4  -2  12   32.04   10.96
   4   2 -12   46.43   11.10
  -4  -2  11  333.59   19.04
   4   2 -11  350.55   19.76
  -4  -2  11  307.82   20.89
   4   2 -11  330.52   21.93
  -4  -2  10    3.75    7.35
   4   2 -10  -10.83    8.53
  -4  -2  10    1.62   10.02
   4   2 -10    9.70    8.98
  -4  -2   9    5.46    7.85
   4   2  -9   -6.54    8.35
  -4  -2   9   24.86   11.10
   4   2  -9   -1.40    8.75
  -4  -2   8  507.17   25.90
   4   2  -8  563.57   28.16
  -4  -2   8  572.14   32.80
   4   2  -8  597.86   33.48
  -4  -2   7   39.35    8.57
   4   2  -7   47.87    8.57
  -4  -2   7   46.79   10.15
   4   2  -7   51.12    9.16
  -4  -2   6   -6.32    7.31
   4   2  -6    5.87    6.95
  -4  -2   6   12.90    8.26
   4   2  -6    4.38    7.22
  -4  -2   5  114.52   10.29
   4   2  -5  111.68   10.02
  -4  -2   5  115.24   12.00
   4   2  -5  113.57   10.38
  -4  -2   4  520.25   25.90
   4   2  -4  542.36   26.44
  -4  -2   4  463.85   26.62
   4   2  -4  507.62   27.93
  -4  -2   3   59.38    7.45
   4   2  -3   59.92    7.49
  -4  -2   3   65.38    8.75
   4   2  -3   77.97    8.21
  -4  -2   2 2768.22  119.93
   4   2  -2 2872.01  124.40
  -4  -2   2 2750.63  137.40
   4   2  -2 2583.68  129.23
  -4  -2   1  185.18   11.15
   4   2  -1  186.76   11.60
  -4  -2   1  177.55   12.54
   4   2  -1  199.71   13.18
  -4  -2   0 2231.28   97.01
   4   2   0 2369.80  102.79
  -4  -2   0 2446.96  122.37
  -4  -2  -1  638.93   29.74
  -4  -2  -3  337.65   17.37
  -4  -2  -4  602.38   28.20
   4   2   4  596.06   28.07
  -4  -2  -5   92.50    8.48
   4   2   5  104.01    9.16
  -4  -2  -5  103.37   10.20
  -4  -2  -6   11.60    6.50
   4   2   6   15.75    6.41
  -4  -2  -6    4.38    7.35
  -4  -2  -7 2264.21   99.18
   4   2   7 2234.43   97.91
  -4  -2  -7 2234.43  112.67
  -4  -2  -8  361.56   19.27
   4   2   8  352.13   18.68
  -4  -2  -8  309.17   19.49
  -4  -2  -9  470.17   24.37
   4   2   9  475.13   24.14
  -4  -2  -9  493.18   28.61
  -4  -2 -10  103.64   10.51
   4   2  10   89.61    9.88
  -4  -2 -10   84.38   11.19
  -4  -2 -11  580.72   29.19
   4   2  11  573.95   28.61
  -4  -2 -11  589.29   33.62
  -4  -2 -12    7.90    7.45
   4   2  12    4.78    7.67
  -4  -2 -12   21.93    9.48
  -4  -2 -13   -8.12    8.21
   4   2  13    4.65    7.45
  -4  -2 -13   -6.59    9.48
  -4  -2 -14   13.04    8.48
   4   2  14   15.12    7.58
  -4  -2 -14    5.19    9.30
  -4  -2 -15   43.90    9.43
   4   2  15   53.88    8.08
  -4  -2 -15   38.67    9.07
  -4  -2 -16    9.34    7.76
   4   2  16    5.78    6.77
  -4  -2 -16   20.03    9.79
  -4  -2 -17   52.84    8.62
   4   2  17   77.97    8.98
  -4  -2 -17   79.96   12.14
  -4  -3  14    9.30   10.02
   4   3 -14   10.15    9.48
  -4  -3  14   -4.92   12.27
   4   3 -14    2.71   10.20
  -4  -3  13   36.95    9.48
   4   3 -13   27.34    9.20
  -4  -3  13   20.76   11.19
   4   3 -13   48.64   10.92
  -4  -3  12   74.86   10.06
   4   3 -12   61.05   10.20
  -4  -3  12   64.89   12.59
   4   3 -12   62.31   11.10
  -4  -3  11   87.76   11.73
   4   3 -11   39.66    9.34
  -4  -3  11   44.63   11.15
   4   3 -11   73.23   11.69
  -4  -3  10    7.08    8.53
   4   3 -10   12.63    9.02
  -4  -3  10    1.22   10.11
   4   3 -10   18.95    9.79
  -4  -3   9  265.14   16.29
   4   3  -9  247.13   16.33
  -4  -3   9  271.09   18.86
   4   3  -9  260.26   18.36
  -4  -3   8   22.47    8.12
   4   3  -8   15.03    8.80
  -4  -3   8    3.70    8.57
   4   3  -8   -6.00    9.25
  -4  -3   7   97.78    9.57
   4   3  -7  103.37   10.51
  -4  -3   7   72.29   10.78
   4   3  -7   75.58    9.97
  -4  -3   6  121.33   10.24
   4   3  -6  108.88    9.79
  -4  -3   6  111.90   12.05
   4   3  -6  111.77   11.51
  -4  -3   5  381.51   19.72
   4   3  -5  383.17   19.94
  -4  -3   5  331.60   20.58
   4   3  -5  361.65   21.61
  -4  -3   4   11.73    6.68
   4   3  -4   17.64    6.77
  -4  -3   4   18.86    8.57
   4   3  -4   14.66    6.90
  -4  -3   3  364.99   19.00
   4   3  -3  358.04   18.32
  -4  -3   3  355.24   21.34
   4   3  -3  369.64   21.66
  -4  -3   2   48.51    6.81
   4   3  -2   80.00    7.45
  -4  -3   2   73.14    9.11
   4   3  -2   56.40    8.03
  -4  -3   1    9.16    5.05
   4   3  -1   31.72    5.64
  -4  -3   1   29.06    7.54
   4   3  -1   24.59    7.67
  -4  -3   0  157.93    9.93
   4   3   0  167.72   10.06
  -4  -3   0  164.11   12.05
  -4  -3  -1  376.72   18.55
  -4  -3  -1  360.16   21.12
  -4  -3  -3   16.79    5.23
  -4  -3  -4  426.94   20.94
   4   3   4  427.08   20.85
  -4  -3  -5    4.29    5.60
   4   3   5   12.32    6.14
  -4  -3  -6 2270.98   99.27
   4   3   6 2335.51  101.84
  -4  -3  -6 2156.82  108.74
  -4  -3  -7    8.12    6.59
   4   3   7    1.99    6.41
  -4  -3  -7    6.09    8.12
  -4  -3  -8 1258.45   56.76
   4   3   8 1236.79   55.77
  -4  -3  -8 1200.24   62.40
  -4  -3  -9  165.78   12.68
   4   3   9  199.89   13.36
  -4  -3  -9  184.77   15.21
  -4  -3 -10    4.20    7.85
   4   3  10    4.65    7.45
  -4  -3 -10   10.69    8.93
  -4  -3 -11  106.44   11.24
   4   3  11  107.12   10.42
  -4  -3 -11   92.59   11.51
  -4  -3 -12   16.79    8.21
   4   3  12   25.85    6.90
  -4  -3 -12   11.64    9.43
  -4  -3 -13   -7.08    8.35
   4   3  13   12.72    8.12
  -4  -3 -13    5.96    9.66
  -4  -3 -14   10.02    8.71
   4   3  14   14.66    7.35
  -4  -3 -14   18.91    9.34
  -4  -3 -15  194.75   13.90
   4   3  15  172.91   12.68
  -4  -3 -15  179.68   14.85
  -4  -3 -16   87.67   10.24
   4   3  16   96.61    9.79
  -4  -3 -16   93.72   11.60
  -4  -3 -17  204.40   13.76
   4   3  17  179.72   13.00
  -4  -3 -17  212.34   16.79
  -4  -4  13   -9.20    8.30
   4   4 -13    1.40    8.62
  -4  -4  13    9.11   11.73
   4   4 -13   -6.27   10.29
  -4  -4  12  104.68   11.87
   4   4 -12  112.35   11.55
  -4  -4  12  109.15   13.99
   4   4 -12   95.07   11.37
  -4  -4  11   -2.03    9.88
   4   4 -11   -3.07    8.53
  -4  -4  11  -10.60   10.47
   4   4 -11   10.29    9.25
   4   4 -10  274.21   17.46
   4   4 -10  320.05   20.67
  -4  -4   9   14.53    8.21
   4   4  -9   -5.73    8.08
  -4  -4   9   -4.60    9.75
   4   4  -9  -11.28    8.89
  -4  -4   8  104.14   11.05
   4   4  -8   95.30   10.74
  -4  -4   8   78.69   12.18
   4   4  -8  124.81   12.45
  -4  -4   7   35.29    9.20
   4   4  -7   37.09    9.11
  -4  -4   7   34.43   10.47
   4   4  -7   29.92   10.24
  -4  -4   6    2.57    7.22
   4   4  -6    2.17    6.72
  -4  -4   6   11.10    9.61
   4   4  -6   10.33    7.99
  -4  -4   5  265.59   15.30
   4   4  -5  252.46   14.62
  -4  -4   5  260.44   18.00
   4   4  -5  244.74   16.51
  -4  -4   4   64.93    7.94
   4   4  -4   92.59    8.26
  -4  -4   4   98.77   10.83
   4   4  -4   90.51    9.84
  -4  -4   3  681.34   31.31
   4   4  -3  675.93   31.45
  -4  -4   3  759.85   40.84
   4   4  -3  677.28   36.46
  -4  -4   2   49.05    6.36
   4   4  -2   55.82    6.50
  -4  -4   2   57.44    8.71
   4   4  -2   52.93    8.84
  -4  -4   1  550.94   25.72
   4   4  -1  567.18   26.40
  -4  -4   1  576.66   31.54
   4   4  -1  560.86   30.59
  -4  -4   0    4.83    4.60
   4   4   0    2.80    4.83
  -4  -4   0    8.35    7.35
  -4  -4  -1  231.25   12.36
  -4  -4  -1  222.77   15.12
  -4  -4  -2   34.34    5.19
  -4  -4  -2   20.80    4.38
  -4  -4  -3   27.48    5.32
  -4  -4  -4   18.73    6.00
   4   4   4   20.44    5.41
  -4  -4  -5   -5.91    5.32
   4   4   5    4.06    5.23
  -4  -4  -6 1233.63   55.14
   4   4   6 1271.98   56.67
  -4  -4  -7  384.84   19.99
   4   4   7  365.08   18.91
  -4  -4  -7  404.02   23.73
  -4  -4  -8  195.15   13.31
   4   4   8  183.19   12.32
  -4  -4  -8  187.80   14.44
  -4  -4  -9   18.59    7.81
   4   4   9    7.85    7.22
  -4  -4  -9   13.13    7.76
  -4  -4 -10   57.03    9.11
   4   4  10   56.67    8.71
  -4  -4 -10   41.29    9.16
  -4  -4 -11   69.71    9.11
   4   4  11   54.69    8.57
  -4  -4 -11   70.25   10.83
  -4  -4 -12   38.40    8.57
   4   4  12   52.57    8.93
  -4  -4 -12   62.04   10.15
  -4  -4 -13   36.64    7.85
   4   4  13   28.34    7.85
  -4  -4 -13   17.33    9.20
  -4  -4 -14   51.66    9.34
   4   4  14   26.89    7.76
  -4  -4 -14   22.47    9.97
  -4  -4 -15   45.48    9.93
   4   4  15   72.74    8.80
  -4  -4 -15   59.92   10.24
  -4  -4 -16   20.26    7.67
   4   4  16   34.92    7.45
  -4  -4 -16   50.90   10.33
  -4  -4 -17   91.64   10.20
   4   4  17   99.72    9.97
  -4  -4 -17   88.75   12.00
  -4  -5  13   35.92   10.06
   4   5 -13   31.86    9.61
  -4  -5  13   53.60   12.18
   4   5 -13   71.56   11.82
  -4  -5  12    8.26    9.34
   4   5 -12    3.16    8.62
  -4  -5  12   19.67   10.65
   4   5 -12    4.24    9.02
  -4  -5  11  196.51   14.21
   4   5 -11  171.96   13.58
  -4  -5  11  190.19   16.38
   4   5 -11  172.09   14.12
  -4  -5  10  216.09   15.43
   4   5 -10  194.25   14.44
  -4  -5  10  191.86   15.52
   4   5 -10  198.40   15.43
  -4  -5   9   16.60    8.98
   4   5  -9   28.65    9.07
  -4  -5   9   25.04   11.24
   4   5  -9    8.53    9.25
  -4  -5   8   44.08    8.98
   4   5  -8   34.79    9.25
  -4  -5   8   58.21   11.01
   4   5  -8   39.30   10.33
  -4  -5   7   -1.80    7.90
   4   5  -7    4.15    7.72
  -4  -5   7    1.90   10.29
   4   5  -7   -6.45    8.30
  -4  -5   6   41.33    8.48
   4   5  -6   25.09    7.76
  -4  -5   6   25.95   10.69
   4   5  -6   32.89    8.53
  -4  -5   5   30.01    7.17
   4   5  -5   15.79    6.14
  -4  -5   5   31.90    9.30
   4   5  -5   27.84    8.62
  -4  -5   4  139.61   10.65
   4   5  -4  142.22   10.02
  -4  -5   4  164.56   13.85
   4   5  -4  172.91   13.63
  -4  -5   3   74.63    7.40
   4   5  -3   80.95    7.08
  -4  -5   3   76.12    9.93
   4   5  -3   70.16    9.34
  -4  -5   2 1041.41   46.39
   4   5  -2 1068.94   47.42
  -4  -5   2 1025.17   53.51
   4   5  -2 1093.75   56.81
  -4  -5   1  555.45   25.27
   4   5  -1  576.66   26.53
  -4  -5   1  625.39   34.11
   4   5  -1  572.60   31.45
  -4  -5   0  236.39   12.32
  -4  -5   0  219.29   15.07
  -4  -5  -1  817.61   36.50
  -4  -5  -1  818.06   43.36
  -4  -5  -2  156.08    9.02
  -4  -5  -2  174.80   10.02
  -4  -5  -3  317.21   15.75
  -4  -5  -4    1.08    4.78
  -4  -5  -5  424.01   20.85
   4   5   5  411.56   20.17
  -4  -5  -6  384.62   19.54
   4   5   6  386.15   19.67
  -4  -5  -7  127.11   10.02
   4   5   7  135.77   10.11
  -4  -5  -8  255.39   15.66
   4   5   8  197.23   12.95
  -4  -5  -8  210.99   15.21
  -4  -5  -9  673.22   32.13
   4   5   9  687.21   33.03
  -4  -5  -9  684.50   37.59
  -4  -5 -10   -6.68    7.22
   4   5  10   -1.26    7.13
  -4  -5 -10   -2.89    9.02
  -4  -5 -11    2.84    7.85
   4   5  11   -0.50    7.13
  -4  -5 -11   -6.95    8.66
  -4  -5 -12   28.88    8.08
   4   5  12   38.44    8.62
  -4  -5 -12   31.13    9.25
  -4  -5 -13   -0.68    8.17
   4   5  13    2.21    7.31
  -4  -5 -13   12.59    9.02
  -4  -5 -14  130.22   11.87
   4   5  14  155.40   11.55
  -4  -5 -14  159.01   14.30
  -4  -5 -15   22.70    8.53
   4   5  15   34.65    7.35
  -4  -5 -15   16.11    9.75
  -4  -5 -16    4.65    8.75
   4   5  16   -2.35    6.99
  -4  -5 -16    2.53    9.25
  -4  -5 -17    4.60    7.45
   4   5  17   17.24    8.57
  -4  -5 -17   -4.06    9.93
  -4  -6  13   25.54   10.83
   4   6 -13   23.01   10.56
  -4  -6  13   25.04   11.78
   4   6 -13   17.37    9.25
  -4  -6  12   -1.08    9.57
   4   6 -12   12.59   10.02
  -4  -6  12  -12.72   11.15
   4   6 -12  -11.42    9.11
  -4  -6  11   48.91    9.61
   4   6 -11   47.65   10.15
  -4  -6  11   68.99   11.73
   4   6 -11   74.77   10.65
  -4  -6  10    0.00    8.66
   4   6 -10    3.93    9.43
  -4  -6  10   14.57   10.33
   4   6 -10    0.99    8.98
  -4  -6   9    2.30    8.12
   4   6  -9   16.83    8.44
  -4  -6   9    9.93   10.06
   4   6  -9   -9.79    9.07
  -4  -6   8  120.88   11.28
   4   6  -8  131.30   11.78
  -4  -6   8  175.21   15.43
   4   6  -8  147.59   13.22
  -4  -6   7    9.20    8.21
   4   6  -7   33.30    8.26
  -4  -6   7    6.45    9.88
   4   6  -7   14.62    8.98
  -4  -6   6  142.00   11.01
   4   6  -6  138.98   11.19
  -4  -6   6  147.28   14.62
   4   6  -6  146.51   13.54
  -4  -6   5  143.85    9.88
   4   6  -5  148.59   11.01
  -4  -6   5  148.45   13.04
   4   6  -5  182.20   14.39
  -4  -6   4   22.70    5.46
   4   6  -4   30.50    6.14
  -4  -6   4   28.92    9.11
   4   6  -4   31.22    8.44
  -4  -6   3   85.37    7.72
   4   6  -3   86.90    7.17
  -4  -6   3   83.57   11.15
   4   6  -3   81.26    9.66
  -4  -6   2 1798.56   78.69
   4   6  -2 1665.90   72.56
  -4  -6   2 1696.58   86.54
   4   6  -2 1660.48   84.47
  -4  -6   1  554.55   25.27
   4   6  -1  540.11   24.86
  -4  -6   1  547.33   30.46
   4   6  -1  530.18   29.33
  -4  -6   0  635.32   28.43
  -4  -6   0  684.95   36.95
  -4  -6  -1    3.43    3.34
  -4  -6  -1   16.15    7.40
  -4  -6  -2  711.57   31.54
  -4  -6  -2  698.94   31.04
  -4  -6  -2  681.34   36.73
  -4  -6  -3  239.01   12.18
  -4  -6  -4  307.96   15.43
  -4  -6  -5   20.89    5.78
   4   6   5   26.85    5.37
  -4  -6  -6 2024.17   88.44
   4   6   6 2001.15   87.45
  -4  -6  -7 2663.99  116.28
   4   6   7 2598.57  112.99
  -4  -6  -8 1872.56   82.44
   4   6   8 1877.97   82.80
  -4  -6  -8 1905.04   97.01
  -4  -6  -9  629.00   30.50
   4   6   9  555.90   27.25
  -4  -6  -9  627.64   35.29
  -4  -6 -10    4.02    7.67
   4   6  10   16.56    7.22
  -4  -6 -10    8.75    8.39
  -4  -6 -11  283.14   17.24
   4   6  11  266.99   16.29
  -4  -6 -11  251.87   17.60
  -4  -6 -12   61.86    9.43
   4   6  12   43.90    8.08
  -4  -6 -12   59.15   10.60
  -4  -6 -13   71.25    9.79
   4   6  13   90.33    9.61
  -4  -6 -13   59.24   10.38
  -4  -6 -14   11.28    7.81
   4   6  14    9.34    7.35
  -4  -6 -14    7.90    8.53
  -4  -6 -15   50.13    9.57
   4   6  15   53.97    7.85
  -4  -6 -15   45.12   10.56
  -4  -6 -16   93.81   11.10
   4   6  16   93.31   10.20
  -4  -6 -16   97.01   11.73
  -4  -6 -17  133.52   11.78
   4   6  17  127.42   10.56
  -4  -6 -17  128.69   13.67
  -4  -7  12   67.95   12.41
   4   7 -12   76.44   12.50
  -4  -7  12   67.19   12.05
   4   7 -12   68.63   11.42
  -4  -7  11   -4.24    8.71
   4   7 -11   14.53    9.52
  -4  -7  11   12.59   10.92
   4   7 -11   -0.50    8.89
  -4  -7  10  124.85   12.54
   4   7 -10  139.11   12.45
  -4  -7  10  128.69   13.36
   4   7 -10  126.43   12.50
  -4  -7   9   23.69    8.17
   4   7  -9   30.55    8.66
  -4  -7   9   33.98   10.15
   4   7  -9   20.71    9.43
  -4  -7   8   45.71    9.30
   4   7  -8   90.15   10.42
  -4  -7   8   46.07   10.74
   4   7  -8   78.74   10.51
  -4  -7   7    8.08    7.04
   4   7  -7   11.91    7.85
  -4  -7   7   -8.03    9.97
   4   7  -7   17.55    9.70
  -4  -7   6   -1.85    7.67
   4   7  -6   17.06    7.45
  -4  -7   6    6.32    9.84
   4   7  -6    9.88    9.02
  -4  -7   5  262.47   15.25
   4   7  -5  256.56   14.71
  -4  -7   5  238.11   17.42
   4   7  -5  253.45   17.78
  -4  -7   4    9.79    5.55
   4   7  -4    2.30    4.96
  -4  -7   4  -10.42    8.93
   4   7  -4  -11.96    7.81
  -4  -7   3 1079.31   47.69
   4   7  -3  981.85   43.86
  -4  -7   3 1040.96   54.87
   4   7  -3  998.55   52.43
  -4  -7   2   12.23    4.42
   4   7  -2   -0.36    4.06
  -4  -7   2   -0.77    7.94
   4   7  -2   -1.08    8.03
  -4  -7   1  440.12   20.44
   4   7  -1  421.89   19.49
  -4  -7   1  454.38   26.13
  -4  -7   0   17.46    3.84
  -4  -7   0   20.76    7.99
  -4  -7  -1 1525.12   66.06
  -4  -7  -1 1569.34   67.95
  -4  -7  -1 1407.80   72.38
  -4  -7  -2   15.03    3.47
  -4  -7  -2   13.94    3.61
  -4  -7  -2    8.44    7.63
  -4  -7  -3   76.89    5.69
  -4  -7  -4   59.65    5.60
  -4  -7  -5   30.55    5.60
   4   7   5   33.75    5.41
  -4  -7  -6 2337.76  101.79
   4   7   6 2287.23   99.54
  -4  -7  -7  863.18   39.48
   4   7   7  849.19   39.08
  -4  -7  -8 1028.33   46.97
   4   7   8 1094.20   49.72
  -4  -7  -9    8.03    7.31
   4   7   9   15.07    6.81
  -4  -7  -9    9.75    8.35
  -4  -7 -10  630.35   31.09
   4   7  10  664.19   32.22
  -4  -7 -10  596.06   33.44
  -4  -7 -11  -12.68    7.54
   4   7  11   -1.53    7.08
  -4  -7 -11    0.86    8.66
  -4  -7 -12   -8.21    7.94
   4   7  12    3.70    7.26
  -4  -7 -12   -2.08    9.07
  -4  -7 -13   11.64    7.94
   4   7  13   15.75    7.35
  -4  -7 -13   10.60    8.98
  -4  -7 -14   14.57    8.21
   4   7  14    0.63    6.54
  -4  -7 -14   13.54    9.34
  -4  -7 -15  192.58   13.85
   4   7  15  179.58   12.81
  -4  -7 -15  175.48   14.89
  -4  -7 -16    2.12    8.12
   4   7  16   -0.77    7.63
  -4  -7 -16   -5.32    9.43
  -4  -7 -17   59.43    9.79
   4   7  17   42.73    9.16
  -4  -7 -17   50.27   10.65
  -4  -8  12   26.76   11.64
   4   8 -12   28.20   11.42
  -4  -8  12   18.45    9.88
   4   8 -12    9.93    9.93
  -4  -8  11   23.46   10.38
   4   8 -11   35.51   10.38
  -4  -8  11   37.41   10.78
   4   8 -11   31.18   10.29
  -4  -8  10  367.47   20.80
   4   8 -10  375.23   20.76
  -4  -8  10  386.20   23.28
   4   8 -10  378.44   22.92
  -4  -8   9   27.93    8.62
   4   8  -9   22.02    8.71
  -4  -8   9   16.51    9.75
   4   8  -9   10.83    8.62
  -4  -8   8   83.88    9.61
   4   8  -8   68.77    9.70
  -4  -8   8   81.44   11.28
   4   8  -8   59.92   10.24
  -4  -8   7   -5.50    7.49
   4   8  -7   -3.93    6.99
  -4  -8   7    7.31    9.79
   4   8  -7   -4.24    8.53
  -4  -8   6  124.90   10.47
   4   8  -6  126.12    9.88
  -4  -8   6  138.12   13.76
   4   8  -6  103.55   11.64
  -4  -8   5   69.26    7.58
   4   8  -5   81.94    8.35
  -4  -8   5   94.03   12.50
   4   8  -5   70.84   10.74
  -4  -8   4   26.26    6.86
   4   8  -4   22.20    5.78
  -4  -8   4   19.09    8.98
   4   8  -4   36.82    9.61
  -4  -8   3  255.07   13.31
   4   8  -3  232.56   12.14
  -4  -8   3  269.87   18.27
   4   8  -3  244.52   16.88
  -4  -8   2 1480.90   64.52
   4   8  -2 1438.03   62.67
  -4  -8   2 1465.11   75.49
   4   8  -2 1461.95   75.08
  -4  -8   1  580.72   25.81
  -4  -8   1  650.21   35.78
  -4  -8   0  176.88    8.57
  -4  -8   0  170.88    8.57
  -4  -8   0  174.71   13.54
  -4  -8  -1  952.07   50.36
  -4  -8  -2  130.13    6.72
  -4  -8  -2  143.58    7.54
  -4  -8  -2  129.32   12.05
  -4  -8  -3    4.38    3.43
  -4  -8  -3    4.92    3.38
  -4  -8  -3    6.54    7.35
  -4  -8  -4    2.93    4.11
  -4  -8  -5  812.64   36.46
   4   8   5  801.82   36.01
  -4  -8  -6   15.52    5.69
   4   8   6   15.07    5.23
  -4  -8  -7 1141.58   51.21
   4   8   7 1158.28   51.98
  -4  -8  -8  226.20   13.67
   4   8   8  225.97   13.45
  -4  -8  -9  536.05   26.94
   4   8   9  520.71   25.72
  -4  -8  -9  453.02   26.58
  -4  -8 -10   13.09    7.40
   4   8  10    6.50    6.59
  -4  -8 -10   -7.45    8.71
  -4  -8 -11    3.61    7.49
   4   8  11   -5.64    7.04
  -4  -8 -11   -4.20    8.62
  -4  -8 -12    2.93    7.54
   4   8  12    3.07    7.04
  -4  -8 -12   16.65    9.39
   4   8  13   78.60    9.02
  -4  -8 -14   71.20    9.93
   4   8  14   64.43    8.98
  -4  -8 -14   62.67   10.60
  -4  -8 -15   12.50    8.21
   4   8  15    8.57    6.86
  -4  -8 -15    6.32    9.34
  -4  -8 -16   17.19    8.57
   4   8  16   19.40    8.17
  -4  -8 -16   43.41   10.38
  -4  -8 -17   11.73    9.02
   4   8  17    4.92    8.44
  -4  -8 -17    8.89    9.79
  -4  -9  11   48.05   10.78
   4   9 -11   76.80   12.41
  -4  -9  11   48.15   11.46
   4   9 -11   64.89   10.56
  -4  -9  10   20.26    9.61
   4   9 -10   52.03    9.97
  -4  -9  10    7.99    9.34
   4   9 -10   41.02   10.56
  -4  -9   9   32.40    9.16
   4   9  -9   24.73    8.30
  -4  -9   9   36.55   10.20
   4   9  -9   16.79    9.70
  -4  -9   8   19.40    8.39
   4   9  -8   20.08    8.12
  -4  -9   8   20.30    9.30
   4   9  -8   12.14    8.75
  -4  -9   7    8.30    7.94
   4   9  -7    4.60    6.59
  -4  -9   7   -5.01    9.97
   4   9  -7    1.94    7.99
   4   9  -6   81.08    8.35
   4   9  -6   94.94   11.28
  -4  -9   5  146.06   10.87
   4   9  -5  147.95   10.33
  -4  -9   5  158.92   14.26
   4   9  -5  172.68   14.44
  -4  -9   4   -1.71    5.37
   4   9  -4    0.54    5.28
  -4  -9   4    9.57    8.66
   4   9  -4   23.33    8.75
  -4  -9   3    5.05    4.42
   4   9  -3   -4.96    4.42
  -4  -9   3   -4.38    8.93
   4   9  -3    0.72    8.80
  -4  -9   2   26.80    4.02
  -4  -9   2   28.97    8.84
  -4  -9   1   31.72    8.80
  -4  -9   0   44.72    8.66
  -4  -9  -1  108.52   11.28
  -4  -9  -2   34.97    8.62
  -4  -9  -3    7.45    2.48
  -4  -9  -3   10.02    2.66
  -4  -9  -3   13.63    7.72
  -4  -9  -4   38.58    4.24
  -4  -9  -5   19.04    4.83
  -4  -9  -6  622.68   29.06
   4   9   6  628.55   29.15
  -4  -9  -7  433.89   21.30
   4   9   7  412.50   20.44
  -4  -9  -8  134.28   10.51
   4   9   8  160.50   10.69
  -4  -9  -9  105.99    9.30
   4   9   9  124.40   10.11
  -4  -9  -9  118.94   11.37
  -4  -9 -10  -11.60    7.45
   4   9  10   -2.03    6.90
  -4  -9 -10   10.11    8.26
  -4  -9 -11   74.32    9.43
   4   9  11   76.26    9.34
  -4  -9 -11   66.19   10.15
  -4  -9 -12   19.31    7.63
   4   9  12   38.04    7.58
  -4  -9 -12   16.83    8.93
  -4  -9 -13   30.01    8.66
   4   9  13   35.96    7.90
  -4  -9 -13   25.81    9.11
  -4  -9 -14  182.97   13.22
   4   9  14  182.88   12.41
  -4  -9 -14  158.56   13.85
  -4  -9 -15  232.74   14.85
   4   9  15  202.33   13.18
  -4  -9 -15  191.05   15.61
  -4  -9 -16   73.10   10.33
   4   9  16   63.71    8.66
  -4  -9 -16   53.92   11.15
  -4 -10  10   98.77   12.77
   4  10 -10   77.52   11.60
  -4 -10  10   76.93   12.23
   4  10 -10   90.38   10.78
  -4 -10   9   10.65    9.97
   4  10  -9    3.88    8.80
  -4 -10   9   -1.71    9.57
   4  10  -9   -9.79    8.93
  -4 -10   8   -1.35    8.66
   4  10  -8   -3.34    8.44
  -4 -10   8   -7.17    9.57
   4  10  -8    2.53    8.62
  -4 -10   7    1.90    7.72
   4  10  -7   17.10    7.94
  -4 -10   7   -5.46    8.98
   4  10  -7   18.95    8.08
  -4 -10   6    5.87    6.77
   4  10  -6   -1.67    6.09
  -4 -10   6    6.59    9.70
   4  10  -6   15.30    8.93
  -4 -10   5  242.17   13.85
   4  10  -5  251.87   13.63
  -4 -10   5  237.25   17.10
   4  10  -5  274.30   18.55
  -4 -10   4  109.83    8.03
   4  10  -4  116.14    7.90
  -4 -10   4  116.82   12.63
   4  10  -4  113.66   11.33
  -4 -10   3  208.19   10.74
  -4 -10   3  225.52   16.24
  -4 -10   2   60.33   10.06
  -4 -10   1  362.06   22.74
  -4 -10   0   98.68   11.01
  -4 -10  -1   71.25    9.97
  -4 -10  -2   51.17    9.16
  -4 -10  -3    0.77    7.90
  -4 -10  -4   14.85    3.02
  -4 -10  -4   11.24    2.93
  -4 -10  -4    9.07    8.44
  -4 -10  -5   20.94    4.83
  -4 -10  -6  358.72   17.64
   4  10   6  350.37   17.37
  -4 -10  -7    6.41    5.37
   4  10   7   14.66    5.32
  -4 -10  -8  330.34   17.64
   4  10   8  331.24   17.46
  -4 -10  -9   -0.05    6.95
   4  10   9   -6.86    5.82
  -4 -10 -10   12.59    7.22
   4  10  10    6.90    7.04
  -4 -10 -10    9.16    7.94
  -4 -10 -11   52.52    8.93
   4  10  11   52.52    8.12
  -4 -10 -11   73.01    9.97
  -4 -10 -12   -4.96    7.35
   4  10  12   11.87    6.95
  -4 -10 -12   -5.69    8.80
  -4 -10 -13   20.49    8.39
   4  10  13   23.64    7.17
  -4 -10 -13   47.78    9.61
  -4 -10 -14  137.67   11.69
   4  10  14  141.37   11.24
  -4 -10 -14  150.53   13.45
  -4 -10 -15   12.77    8.98
   4  10  15   10.51    7.17
  -4 -10 -15   -3.88   11.01
  -4 -10 -16   -9.57   10.15
   4  10  16   -2.62    6.86
  -4 -10 -16    2.21    9.84
  -4 -11  10   60.01   13.40
   4  11 -10   64.39   14.80
  -4 -11  10   76.48   11.69
   4  11 -10   70.03   10.78
  -4 -11   9   19.67   10.51
   4  11  -9   -6.95    9.20
  -4 -11   9   -1.67   10.42
   4  11  -9    0.72    8.98
  -4 -11   8   -4.56    8.66
   4  11  -8   -5.78    9.11
  -4 -11   8   -8.30    9.11
   4  11  -8   -8.17    8.17
  -4 -11   7   11.55    7.67
   4  11  -7    0.32    8.35
  -4 -11   7    4.78    9.34
   4  11  -7   -2.39    7.54
  -4 -11   6  108.07    8.98
   4  11  -6   97.06    8.98
  -4 -11   6  119.48   12.59
   4  11  -6  118.99   11.73
  -4 -11   5   11.42    5.50
   4  11  -5    1.62    5.23
  -4 -11   5   10.96    9.34
   4  11  -5    3.16    8.08
  -4 -11   4   -1.80    3.93
  -4 -11   4   18.41    9.70
   4  11  -4   10.15    7.67
  -4 -11   3  376.09   23.01
  -4 -11   2  390.66   23.78
  -4 -11   1  271.68   18.41
  -4 -11   0   19.99    8.48
  -4 -11  -1  740.45   39.98
  -4 -11  -2   81.08   10.20
  -4 -11  -3    2.93    7.08
  -4 -11  -4   10.06    7.45
  -4 -11  -5   73.14    5.50
  -4 -11  -5   86.90    9.75
  -4 -11  -6  757.14   33.93
  -4 -11  -7 1131.20   50.49
   4  11   7 1190.31   52.84
  -4 -11  -8   83.52    8.44
   4  11   8   77.97    7.94
  -4 -11  -9   18.23    6.86
   4  11   9    8.98    6.27
  -4 -11 -10  227.19   14.12
   4  11  10  218.89   13.72
  -4 -11 -10  177.28   13.99
  -4 -11 -11    4.51    8.12
   4  11  11   -6.23    6.72
  -4 -11 -11  -11.46    8.80
  -4 -11 -12   26.13    8.71
   4  11  12   21.43    7.40
  -4 -11 -12    7.40    8.71
  -4 -11 -13    8.35    7.76
   4  11  13    4.96    7.13
  -4 -11 -13    7.99    8.80
  -4 -11 -14   66.33    9.75
   4  11  14   51.71    8.62
  -4 -11 -14   45.48   10.06
  -4 -11 -15   82.53   11.37
   4  11  15   73.55    9.43
  -4 -11 -15   55.09   10.74
  -4 -12   9   -7.81   11.91
   4  12  -9   19.40   13.54
  -4 -12   9   14.30   11.19
   4  12  -9   31.04    8.12
  -4 -12   8   -2.98    9.57
   4  12  -8   -6.95    9.97
  -4 -12   8    3.84   10.06
   4  12  -8    7.26    8.35
  -4 -12   7   14.66    8.84
   4  12  -7   12.45    9.25
  -4 -12   7   34.07    9.48
   4  12  -7   34.65    8.57
  -4 -12   6    6.50    6.36
   4  12  -6   10.06    6.90
  -4 -12   6   18.45    9.70
   4  12  -6   31.68    8.71
  -4 -12   5    0.45    3.38
  -4 -12   5    9.75    8.44
   4  12  -5   -1.71    6.72
  -4 -12   4  444.90   26.17
  -4 -12   3    5.73    8.30
  -4 -12   2  344.19   21.48
  -4 -12   1   30.37    9.34
  -4 -12   0   62.40    9.84
  -4 -12  -1   88.35   10.38
  -4 -12  -2   60.78    9.25
  -4 -12  -3   30.05    7.63
  -4 -12  -4    2.03    7.58
  -4 -12  -5  259.09   17.06
  -4 -12  -6  450.23   20.76
  -4 -12  -6  452.57   25.81
  -4 -12  -7  167.18   10.56
   4  12   7  207.97   11.87
  -4 -12  -8   13.49    6.59
   4  12   8   18.14    6.18
  -4 -12  -9   15.34    6.99
   4  12   9    7.58    6.77
  -4 -12 -10    1.26    7.45
   4  12  10    6.54    6.95
  -4 -12 -10   -4.83    8.44
  -4 -12 -11   18.14    8.57
   4  12  11   17.55    7.54
  -4 -12 -11   20.08    8.48
  -4 -12 -12   11.37    7.99
   4  12  12    4.11    7.04
  -4 -12 -12    7.94    9.48
  -4 -12 -13   48.28    9.02
   4  12  13   27.07    8.75
  -4 -12 -13   51.84   10.47
  -4 -12 -14   28.65    9.52
   4  12  14   64.61    9.34
  -4 -12 -14   24.73    9.79
  -4 -13   8   -6.59    8.75
   4  13  -8    2.66   11.05
  -4 -13   8   13.72   10.42
   4  13  -8    2.44    7.22
  -4 -13   7   18.55    9.97
   4  13  -7    7.76    8.17
  -4 -13   6   26.26   10.02
  -4 -13   5  251.92   17.91
  -4 -13   4   11.28    9.11
  -4 -13   3  220.51   16.02
  -4 -13   2   70.98   10.65
  -4 -13   1  281.65   18.64
  -4 -13   0   24.59    8.57
  -4 -13  -1   15.61    8.26
  -4 -13  -2    3.11    7.58
  -4 -13  -3   -5.78    7.08
  -4 -13  -4  267.66   17.24
  -4 -13  -5   10.83    7.94
  -4 -13  -6 1084.73   56.58
  -4 -13  -7   22.79    5.55
  -4 -13  -7   22.11    7.72
  -4 -13  -8  271.18   14.98
   4  13   8  257.15   13.99
  -4 -13  -9    9.61    7.45
   4  13   9   10.38    6.95
  -4 -13 -10   32.40    8.80
   4  13  10   25.04    7.08
  -4 -13 -10   20.76    8.12
  -4 -13 -11   -5.28    8.12
   4  13  11   -4.15    7.72
  -4 -13 -11    8.66    8.71
  -4 -13 -12   -9.39    8.57
   4  13  12    0.81    7.63
  -4 -13 -12    6.27    9.39
  -4 -13 -13   56.85   11.33
   4  13  13   75.71    9.61
  -4 -13 -13   72.01   11.33
  -4 -13 -14   28.61   10.38
   4  13  14   22.25   10.06
  -4 -13 -14   29.42   11.19
  -4 -14   7    4.96   11.28
  -4 -14   6   43.45   10.87
  -4 -14   5   14.17    9.66
  -4 -14   4   47.74   10.65
  -4 -14   3   67.68   10.74
  -4 -14   2   30.59    9.97
  -4 -14   1  225.29   16.47
  -4 -14   0   -1.67    8.12
  -4 -14  -1   73.68   10.69
  -4 -14  -2    0.77    7.67
  -4 -14  -3   -0.36    7.54
  -4 -14  -4   64.70    8.93
  -4 -14  -5  295.23   18.45
  -4 -14  -6  148.81   12.00
  -4 -14  -7  282.01   13.45
  -4 -14  -7  340.08   20.85
  -4 -14  -8  157.34   10.83
  -4 -14  -8  159.87   12.90
  -4 -14  -9   -8.80    7.90
   4  14   9    8.08    6.63
  -4 -14 -10  160.23   12.36
   4  14  10  164.56   12.05
  -4 -14 -10  160.32   12.00
  -4 -14 -11   14.80    9.39
   4  14  11    4.33    8.48
  -4 -14 -11   -2.39    8.08
  -4 -14 -12   33.16   11.73
   4  14  12   15.34    9.61
  -4 -14 -12   28.88    9.30
  -4 -14 -13   -8.35   11.87
   4  14  13   -2.12    9.11
  -4 -14 -13   -2.66   10.15
  -4 -15   5   -4.33   10.51
  -4 -15   4    6.50    9.43
  -4 -15   3    7.31    9.20
  -4 -15   2   39.93    9.97
  -4 -15   1   41.65   10.20
  -4 -15   0   12.18    9.07
  -4 -15  -1   62.90   10.38
  -4 -15  -2   26.04    9.16
  -4 -15  -3   61.14    9.48
  -4 -15  -4   53.24    9.20
  -4 -15  -5  103.51   10.83
  -4 -15  -6   12.54    9.48
  -4 -15  -7  470.17   26.89
  -4 -15  -8   10.74    4.69
  -4 -15  -8   16.24    8.26
  -4 -15  -9   10.33    7.94
  -4 -15  -9    3.84    8.21
  -4 -15 -10   36.32   10.29
   4  15  10   57.49    9.16
  -4 -15 -11    3.16   12.41
   4  15  11    6.09   10.51
  -4 -15 -11   11.73    8.48
  -4 -16   3   75.71   12.23
  -4 -16   2   -3.29    8.75
  -4 -16   1    4.42    9.30
  -4 -16   0    2.89    8.89
  -4 -16  -1    7.49    8.80
  -4 -16  -2   18.09    9.52
  -4 -16  -3   -5.96    9.34
  -4 -16  -4   25.27    8.98
  -4 -16  -5   25.09    9.57
  -4 -16  -6  279.44   18.32
  -4 -16  -7   -1.31    8.75
  -4 -16  -8   -1.90    8.66
  -4 -16  -9   24.55    8.17
  -4 -16 -10   19.85   12.09
  -4 -16 -10   39.57    9.61
  -4 -16 -10   47.29    8.62
  -4 -17   1  225.52   16.47
  -4 -17   0   80.54   10.87
  -4 -17  -1   21.93    9.34
  -4 -17  -2   52.39   10.38
  -4 -17  -3   18.00   10.65
  -4 -17  -4  117.77   12.36
  -4 -17  -5  140.46   12.72
  -4 -17  -6  112.44   12.36
  -4 -17  -7   -2.44    9.88
  -4 -17  -8  124.13   13.90
  -5  16   4   52.61   11.96
   5 -16  -4   41.02   13.54
   5 -16  -4   60.51   14.17
  -5  16   3   18.36   10.20
   5 -16  -3   13.31   13.49
   5 -16  -3   10.29   11.46
  -5  16   2  107.30   11.64
  -5  16   2   89.03   11.28
   5 -16  -2  116.41   14.57
  -5  16   1   23.60    9.16
  -5  16   1   25.13    8.62
   5 -16  -1   32.80   11.73
  -5  16   0    6.54    8.03
  -5  16   0    7.35    6.90
   5 -16   0    2.30   12.59
   5 -16   1   47.02   13.36
   5 -16   2   12.77   13.54
   5 -16   3    3.07   14.30
   5 -16   4   51.53   15.16
   5 -16   5    0.09   14.66
  -5  15   6    0.86    9.61
   5 -15  -6   12.45   10.96
   5 -15  -6    1.85   10.56
  -5  15   5   80.27   10.74
   5 -15  -5   71.07   11.46
   5 -15  -5   61.50   11.42
  -5  15   4   23.10    9.75
   5 -15  -4   17.82   10.06
   5 -15  -4   15.07   10.92
  -5  15   3   42.55   10.06
   5 -15  -3   77.11   10.83
   5 -15  -3   61.19   11.33
  -5  15   2   21.12    8.80
   5 -15  -2   36.73   10.29
  -5  15   1  182.65   12.77
  -5  15   1  173.76   12.63
   5 -15  -1  196.46   15.07
  -5  15   0   31.59    8.12
  -5  15   0   33.66    7.94
   5 -15   0   22.34   10.56
  -5  15  -1    0.54    7.31
  -5  15  -1    2.17    7.08
   5 -15   1   11.91   11.19
  -5  15  -2    3.61    7.08
  -5  15  -2    7.13    6.63
   5 -15   2   27.98   11.69
  -5  15  -3   13.76    7.13
  -5  15  -3    1.76    7.54
   5 -15   3    8.75   11.19
  -5  15  -4  150.75   11.28
  -5  15  -4  153.19   10.42
   5 -15   4  167.54   17.42
  -5  15  -5    3.65    7.17
  -5  15  -5   -3.79    7.45
   5 -15   5  -10.96   12.81
  -5  15  -6   65.52    8.48
  -5  15  -6   59.11    8.17
   5 -15   6   62.00   15.61
  -5  15  -7   -2.12    9.30
  -5  15  -7  -12.27    9.48
   5 -15   7    8.08   15.88
  -5  14   8  107.07   12.23
   5 -14  -8  130.18   12.23
   5 -14  -8  103.37   14.98
   5 -14  -8   99.36   15.61
  -5  14   7   28.88    8.93
   5 -14  -7   14.62    8.93
   5 -14  -7   35.01   11.60
   5 -14  -7   28.07   11.05
  -5  14   6   88.89   11.01
   5 -14  -6  103.92   10.74
   5 -14  -6   93.99   11.46
   5 -14  -6  104.05   10.83
  -5  14   5   30.05    9.84
   5 -14  -5   10.69    8.21
   5 -14  -5   13.63    9.43
  -5  14   4   72.96    9.97
   5 -14  -4   80.72    9.70
   5 -14  -4   94.71   10.74
  -5  14   3  116.73   10.38
   5 -14  -3   99.90   11.10
   5 -14  -3  103.01    9.79
  -5  14   2   85.42    9.11
   5 -14  -2   94.08    9.84
  -5  14   1    0.41    6.99
  -5  14   1    4.15    6.54
   5 -14  -1    4.38    8.12
  -5  14   0   20.71    7.04
  -5  14   0   18.18    7.58
   5 -14   0   20.53    8.89
  -5  14  -1  118.90   10.11
  -5  14  -1  121.78    9.39
   5 -14   1  137.98   13.22
  -5  14  -2   13.99    7.26
  -5  14  -2    6.45    6.50
   5 -14   2    2.03   10.02
  -5  14  -3  273.39   15.07
  -5  14  -3  285.31   15.52
   5 -14   3  281.02   19.85
  -5  14  -4   16.02    6.81
  -5  14  -4   20.03    6.81
   5 -14   4   23.10   12.05
   5 -14   5  268.97   20.12
  -5  14  -6   31.95    8.48
  -5  14  -6   25.27    8.98
   5 -14   6   44.04   14.39
  -5  14  -7   36.95    9.93
  -5  14  -7   47.87    9.79
  -5  14  -7   47.74   11.33
   5 -14   7   47.06   14.53
  -5  14  -8    0.86    8.84
  -5  14  -8    0.77    9.93
  -5  14  -8    9.25    9.93
   5 -14   8   12.18   15.66
  -5  14  -9   74.00   12.00
  -5  14  -9   60.87   12.23
  -5  14  -9   49.77   10.42
   5 -14   9   59.38   14.80
  -5  13   9    4.42    9.25
   5 -13  -9   15.75    9.61
   5 -13  -9   -0.14   14.08
   5 -13  -9    5.60   13.54
  -5  13   8   25.99    9.25
   5 -13  -8   17.42    8.80
   5 -13  -8    7.08   13.00
   5 -13  -8   34.43   11.87
  -5  13   7   43.68   10.56
   5 -13  -7   33.71    9.20
   5 -13  -7   26.71   10.42
   5 -13  -7   19.58    8.71
  -5  13   6    7.22    8.80
   5 -13  -6   21.21    8.21
   5 -13  -6    7.26    7.17
   5 -13  -6   20.35    9.20
  -5  13   5   28.92    8.30
   5 -13  -5   15.84    7.54
   5 -13  -5   31.04    8.44
   5 -13  -5    9.48    7.04
  -5  13   4  136.99   11.10
   5 -13  -4  130.36   11.05
   5 -13  -4  139.56   11.01
  -5  13   3   95.84    9.57
   5 -13  -3  100.22   10.24
   5 -13  -3  105.09    9.43
  -5  13   2   11.42    6.99
   5 -13  -2    5.64    6.63
  -5  13   1   10.11    6.99
   5 -13  -1   -1.08    6.86
  -5  13   0   53.60    6.77
  -5  13   0   57.35    8.48
   5 -13   0   59.56    9.02
  -5  13  -1    1.49    6.23
  -5  13  -1    6.99    6.05
   5 -13   1   15.34    8.08
   5 -13   2  143.94   12.90
  -5  13  -3  153.91   10.20
  -5  13  -3  170.88   11.15
   5 -13   3  158.42   13.67
  -5  13  -4  113.80    9.25
  -5  13  -4  107.66    8.89
   5 -13   4  115.38   12.45
  -5  13  -5  315.63   17.01
  -5  13  -5  314.05   16.51
   5 -13   5  309.27   20.58
  -5  13  -6   43.36    7.72
  -5  13  -6   26.76    8.39
  -5  13  -6   28.97   10.11
   5 -13   6   41.20   12.50
  -5  13  -7   29.87    8.80
  -5  13  -7   47.83    8.17
  -5  13  -7   25.04    9.30
   5 -13   7   58.16   13.36
  -5  13  -8   13.40    8.39
  -5  13  -8   -4.42    8.53
  -5  13  -8    5.82    9.34
   5 -13   8   -3.52   12.86
  -5  13  -9    9.66    8.39
  -5  13  -9   -3.34    9.52
  -5  13  -9   11.46   10.69
   5 -13   9   17.01   13.31
  -5  13 -10   34.56    9.88
  -5  13 -10   38.62   10.92
  -5  13 -10   52.93   11.55
   5 -13  10   56.13   13.67
  -5  12  10    9.66    7.85
   5 -12 -10    9.66   10.69
   5 -12 -10    9.75   14.08
  -5  12   9   39.84    8.75
   5 -12  -9   30.82    8.93
   5 -12  -9   37.59   13.27
   5 -12  -9   44.85   11.73
  -5  12   8    7.81    9.20
   5 -12  -8    4.96    7.90
   5 -12  -8    2.66   10.83
   5 -12  -8   19.49    9.02
  -5  12   7  258.64   15.84
   5 -12  -7  229.63   14.57
   5 -12  -7  220.78   14.66
   5 -12  -7  246.59   17.42
  -5  12   6   -0.59    6.99
   5 -12  -6    1.26    7.17
   5 -12  -6   -1.44    6.54
   5 -12  -6   13.18    8.75
  -5  12   5  301.14   17.10
   5 -12  -5  288.24   16.51
   5 -12  -5  295.37   17.82
   5 -12  -5  284.76   16.56
  -5  12   4   -0.95    7.45
   5 -12  -4   -3.20    6.36
   5 -12  -4    8.08    7.58
   5 -12  -4   -8.62    5.82
  -5  12   3   65.02    8.48
   5 -12  -3   66.60    8.03
   5 -12  -3   74.81    7.67
  -5  12   2   81.85    8.75
   5 -12  -2   94.08    8.35
  -5  12   1  172.41   11.78
   5 -12  -1  185.04   12.36
  -5  12   0   84.33    8.17
   5 -12   0   69.04    8.12
  -5  12  -1   89.61    8.12
  -5  12  -1   78.56    7.76
   5 -12   1  101.48   10.20
   5 -12   2   67.55   10.11
  -5  12  -3   -2.53    6.00
  -5  12  -3   10.51    5.96
   5 -12   3  -11.01    7.90
  -5  12  -4  403.89   20.08
  -5  12  -4  400.01   19.85
   5 -12   4  392.51   23.64
  -5  12  -5    4.92    5.96
  -5  12  -5    7.99    6.09
  -5  12  -5    5.78    8.53
   5 -12   5   -7.72    9.43
  -5  12  -6  212.03   12.72
  -5  12  -6  224.98   13.13
  -5  12  -6  199.44   14.98
   5 -12   6  209.86   17.01
  -5  12  -7   88.75    9.25
  -5  12  -7   67.01    8.21
  -5  12  -7   70.39   10.78
   5 -12   7   67.82   12.32
  -5  12  -8  236.71   14.89
  -5  12  -8  275.51   16.06
  -5  12  -8  195.29   16.38
   5 -12   8  209.46   17.87
  -5  12  -9    9.20    8.48
  -5  12  -9    6.41   11.05
   5 -12   9  -15.57   12.68
  -5  12 -10   12.50    8.21
  -5  12 -10   -6.23   11.69
   5 -12  10    1.17   12.36
  -5  12 -11   10.69    9.43
  -5  12 -11   -2.62   11.64
   5 -12  11   18.05   12.81
  -5  11  11    1.40    7.85
   5 -11 -11    3.43   10.02
   5 -11 -11   21.66   13.36
  -5  11  10    6.86    8.21
   5 -11 -10   13.81    9.30
   5 -11 -10   -8.12   11.87
  -5  11   9   16.79    9.25
   5 -11  -9   12.54    8.12
   5 -11  -9   22.70   10.78
  -5  11   8    2.21    7.90
   5 -11  -8    6.32    7.67
   5 -11  -8  -16.79   10.33
  -5  11   7  121.15   10.47
   5 -11  -7  102.47    9.52
   5 -11  -7   95.57   11.46
   5 -11  -7  117.72    9.97
  -5  11   6  163.39   12.00
   5 -11  -6  176.47   12.54
   5 -11  -6  157.66   11.73
   5 -11  -6  154.18   10.47
  -5  11   5   20.44    7.85
   5 -11  -5   24.59    7.81
   5 -11  -5   16.56    6.86
   5 -11  -5   12.36    5.28
  -5  11   4   80.05    9.57
   5 -11  -4   68.54    8.57
   5 -11  -4   89.93    7.94
   5 -11  -4   77.38    7.08
  -5  11   3  651.11   31.27
   5 -11  -3  556.80   26.98
   5 -11  -3  735.03   38.13
   5 -11  -3  689.91   35.51
  -5  11   2   -1.04    6.81
   5 -11  -2    7.49    5.05
   5 -11  -2    8.08    5.14
  -5  11   1  325.06   17.19
   5 -11  -1  292.66   16.92
  -5  11   0    0.72    6.23
   5 -11   0   -0.41    5.87
  -5  11  -1  103.55    8.21
  -5  11  -1   84.20    7.72
   5 -11   1   96.20    9.52
  -5  11  -2   29.37    6.05
  -5  11  -2   18.36    5.96
   5 -11   2   36.55    8.48
  -5  11  -3   54.91    7.45
  -5  11  -3   42.87    6.50
   5 -11   3   41.47    9.52
  -5  11  -4  576.66   27.66
  -5  11  -4  574.85   27.25
  -5  11  -4  656.52   35.74
   5 -11   4  666.00   36.73
  -5  11  -5  509.43   24.68
  -5  11  -5  474.68   23.01
  -5  11  -5  513.04   28.65
   5 -11   5  502.66   29.24
  -5  11  -6   13.72    6.41
  -5  11  -6    4.51    6.50
  -5  11  -6   14.94    8.08
   5 -11   6   -0.77    9.48
  -5  11  -7    2.57    6.00
  -5  11  -7   11.96    6.72
  -5  11  -7    4.42    9.20
   5 -11   7   14.57   10.11
  -5  11  -8   12.18    7.76
  -5  11  -8   22.79    9.48
   5 -11   8   13.22   11.28
  -5  11  -9   20.94    8.30
  -5  11  -9   28.74    9.66
   5 -11   9   13.76   11.69
  -5  11 -10   -3.20    7.94
  -5  11 -10  -12.86   10.51
   5 -11  10   -6.05   12.05
  -5  11 -11    5.69    8.62
  -5  11 -11   14.85   11.64
   5 -11  11   -5.87   11.51
  -5  11 -12  101.66   11.15
  -5  11 -12   81.31   13.49
   5 -11  12   80.54   14.03
  -5  10  11    3.61    7.58
   5 -10 -11   -2.21    8.75
   5 -10 -11    6.05   12.90
  -5  10  10   11.28    8.26
   5 -10 -10    8.17    8.08
   5 -10 -10    5.55   10.96
  -5  10   9   13.04    7.81
   5 -10  -9    7.31    7.31
   5 -10  -9    3.07   10.56
  -5  10   8  105.86   10.56
   5 -10  -8   95.34    9.34
   5 -10  -8   80.50   11.19
  -5  10   7   50.76    8.57
   5 -10  -7   51.62    8.53
   5 -10  -7   41.33    8.39
  -5  10   6  178.64   12.77
   5 -10  -6  203.41   13.18
   5 -10  -6  178.50   12.27
   5 -10  -6  167.90   11.51
  -5  10   5   57.85    8.71
   5 -10  -5   55.00    8.62
   5 -10  -5   54.51    6.18
   5 -10  -5   66.19    7.45
  -5  10   4  220.65   13.90
   5 -10  -4  213.83   13.00
   5 -10  -4  207.52   12.23
   5 -10  -4  227.87   13.54
  -5  10   3   81.17    8.71
   5 -10  -3   66.28    7.58
   5 -10  -3   74.99    6.77
   5 -10  -3   78.15    6.36
  -5  10   2  336.92   17.73
   5 -10  -2  329.89   17.96
   5 -10  -2  337.87   18.23
  -5  10   1   56.22    7.58
   5 -10  -1   52.25    6.27
  -5  10   0   -3.75    5.23
   5 -10   0    2.93    5.14
  -5  10  -1  257.06   14.30
   5 -10   1  254.44   15.61
  -5  10  -2   45.66    7.13
  -5  10  -2   37.59    6.09
   5 -10   2   29.78    8.03
  -5  10  -3    0.41    5.55
  -5  10  -3   -0.99    5.87
   5 -10   3   10.83    8.08
  -5  10  -4  584.78   27.98
  -5  10  -4  573.95   27.21
  -5  10  -4  557.25   30.28
   5 -10   4  595.61   32.67
  -5  10  -5   52.21    7.94
  -5  10  -5   49.90    7.35
  -5  10  -5   25.72    7.81
   5 -10   5   38.13    9.43
  -5  10  -6   13.31    6.41
  -5  10  -6    2.66    6.23
  -5  10  -6   -2.57    8.08
   5 -10   6   14.30   10.15
  -5  10  -7   42.87    7.45
  -5  10  -7   50.94    9.61
   5 -10   7   54.01   10.96
  -5  10  -8    3.61    6.27
  -5  10  -8   28.56    9.02
   5 -10   8   25.00   11.51
  -5  10  -9  103.28   10.06
  -5  10  -9  120.75   12.41
   5 -10   9  103.33   13.54
  -5  10 -10   14.53    7.17
  -5  10 -10    0.77    9.48
   5 -10  10   -4.11   11.46
  -5  10 -11    3.29    7.22
  -5  10 -11   10.96   10.74
   5 -10  11   16.56   12.86
  -5  10 -12   53.69    9.25
  -5  10 -12   60.55   12.90
   5 -10  12   83.39   14.85
  -5  10 -13  122.64   12.05
  -5  10 -13   88.80   14.80
   5 -10  13   92.86   14.85
  -5   9  12   29.51    8.93
   5  -9 -12   19.40    9.43
   5  -9 -12   10.06   14.85
  -5   9  11   20.98    8.71
   5  -9 -11   22.52    8.57
   5  -9 -11   20.30   11.87
  -5   9  10    3.38    8.53
   5  -9 -10   -1.90    7.13
   5  -9 -10   17.82   10.33
  -5   9   9   15.93    8.57
   5  -9  -9   18.45    7.99
   5  -9  -9   -2.44    9.34
  -5   9   8   58.12    9.11
   5  -9  -8   58.12    9.07
   5  -9  -8   32.13    9.02
  -5   9   7  603.73   29.83
   5  -9  -7  576.21   28.29
   5  -9  -7  523.86   28.70
  -5   9   6    9.16    7.40
   5  -9  -6   11.19    7.35
   5  -9  -6   -1.40    6.68
  -5   9   5  253.40   15.39
   5  -9  -5  220.15   13.72
   5  -9  -5  219.29   13.00
   5  -9  -5  273.89   15.93
  -5   9   4  221.77   14.03
   5  -9  -4  225.56   13.94
   5  -9  -4  241.58   13.49
   5  -9  -4  247.76   13.99
  -5   9   3  357.55   19.45
   5  -9  -3  361.65   19.54
   5  -9  -3  348.66   18.68
   5  -9  -3  335.75   17.82
  -5   9   2   55.68    7.76
   5  -9  -2   60.37    7.26
   5  -9  -2   43.81    4.56
   5  -9  -2   61.73    5.55
  -5   9   1   -2.84    5.32
   5  -9  -1    1.13    4.11
  -5   9   0  386.65   19.85
   5  -9   0  423.47   22.52
  -5   9  -1    3.52    5.10
   5  -9   1   -2.21    5.37
  -5   9  -2  706.16   32.89
  -5   9  -2  782.41   35.92
   5  -9   2  794.60   41.51
  -5   9  -3   30.32    6.63
  -5   9  -3   10.02    6.00
  -5   9  -3   25.99    7.81
   5  -9   3   13.67    7.31
  -5   9  -4  229.58   13.49
  -5   9  -4  207.70   12.50
  -5   9  -4  236.66   15.70
   5  -9   4  219.29   15.12
  -5   9  -5  124.09    9.88
  -5   9  -5  147.01   10.42
  -5   9  -5  152.56   13.00
   5  -9   5  171.60   13.58
  -5   9  -6  155.67   11.19
  -5   9  -6  177.42   14.30
   5  -9   6  186.80   14.85
  -5   9  -7   -2.26    6.36
  -5   9  -7   -2.30    8.48
   5  -9   7   -2.71    9.16
  -5   9  -8  214.69   13.40
  -5   9  -8  167.99   15.21
   5  -9   8  181.80   16.02
  -5   9  -9   26.08    7.99
  -5   9  -9   19.54   10.24
   5  -9   9   22.25   11.24
  -5   9 -10    4.56    7.04
  -5   9 -10    7.45   10.24
   5  -9  10    1.49   10.83
  -5   9 -11   74.00    9.25
  -5   9 -11   60.19   12.32
   5  -9  11   37.68   12.68
  -5   9 -12   54.19    9.20
  -5   9 -12   37.59   11.46
   5  -9  12   49.99   13.63
  -5   9 -13  152.47   12.50
  -5   9 -13  107.16   13.54
   5  -9  13  171.33   17.37
  -5   9 -14   -3.52    9.48
  -5   9 -14  -13.31   11.55
   5  -9  14    4.96   13.99
  -5   8  12    3.25    7.85
   5  -8 -12   -4.69    8.53
   5  -8 -12   16.47   14.75
  -5   8  11   13.36    9.48
   5  -8 -11   -4.83    8.57
   5  -8 -11    8.62   10.56
  -5   8  10    8.48    8.80
   5  -8 -10   16.92    8.98
   5  -8 -10    8.26    9.97
  -5   8   9   91.10   10.47
   5  -8  -9  106.04   10.74
   5  -8  -9  105.31   11.78
  -5   8   8   33.84    8.17
   5  -8  -8   38.31    8.62
   5  -8  -8   36.55    9.11
  -5   8   7  154.81   11.87
   5  -8  -7  157.29   11.82
   5  -8  -7  165.51   12.27
  -5   8   6  182.70   12.86
   5  -8  -6  186.98   12.72
   5  -8  -6  136.67   10.56
  -5   8   5  224.53   14.30
   5  -8  -5  203.27   13.49
   5  -8  -5  158.47   11.01
  -5   8   4  261.12   15.66
   5  -8  -4  226.96   14.48
   5  -8  -4  265.63   14.89
   5  -8  -4  249.12   13.85
  -5   8   3   74.09    9.07
   5  -8  -3   70.44    8.17
   5  -8  -3   72.65    5.50
   5  -8  -3   71.74    5.14
  -5   8   2   30.37    7.13
   5  -8  -2   43.23    7.45
  -5   8   1   90.29    8.62
   5  -8  -1  109.47    9.02
  -5   8   0  121.96    9.25
   5  -8   0   99.49    7.26
  -5   8  -1 1216.03   54.33
   5  -8   1 1251.68   63.13
  -5   8  -2  130.45    9.43
   5  -8   2  136.94   10.06
  -5   8  -3  138.43    9.61
  -5   8  -3  139.92    9.84
  -5   8  -3  152.02   10.33
   5  -8   3  137.53   10.51
  -5   8  -4  553.64   26.31
  -5   8  -4  507.17   24.73
  -5   8  -4  506.72   27.70
   5  -8   4  489.57   26.98
  -5   8  -5  400.19   20.53
  -5   8  -5  385.43   22.20
   5  -8   5  414.62   24.32
  -5   8  -6  186.62   12.59
  -5   8  -6  193.62   14.39
   5  -8   6  190.32   14.75
  -5   8  -7    4.20    6.86
  -5   8  -7   -0.72    8.35
   5  -8   7    1.04    9.70
  -5   8  -8  210.04   13.58
  -5   8  -8  197.09   14.80
   5  -8   8  210.13   16.51
  -5   8  -9   49.63    8.08
  -5   8  -9   50.67    9.57
   5  -8   9   48.19   11.78
  -5   8 -10   32.53    7.81
  -5   8 -10   21.84    9.70
   5  -8  10   15.61   11.51
  -5   8 -11   -6.72    7.40
  -5   8 -11   -5.23    9.84
   5  -8  11   -6.00   11.42
  -5   8 -12   58.34    8.98
  -5   8 -12   56.22   12.14
   5  -8  12   64.75   13.13
  -5   8 -13   67.46   10.24
   5  -8  13   69.08    8.89
  -5   8 -13   51.57   11.37
   5  -8  13   42.73   12.63
  -5   8 -14   65.79    9.75
   5  -8  14   77.52    9.75
  -5   8 -14   66.69   11.42
   5  -8  14   68.81   14.30
  -5   8 -15    7.63   10.15
   5  -8  15   14.80   10.24
  -5   8 -15   20.35   10.60
   5  -8  15   14.03   12.95
  -5   7  13   -5.69    9.75
   5  -7 -13    4.92   10.02
   5  -7 -13   15.30   15.75
  -5   7  12   -1.80    9.39
   5  -7 -12   13.09    9.30
   5  -7 -12   25.58   13.54
  -5   7  11   27.25    9.16
   5  -7 -11   38.31    9.52
   5  -7 -11   46.11   11.19
  -5   7  10  115.60   11.01
   5  -7 -10   97.82   11.64
   5  -7 -10   87.54   10.92
  -5   7   9   27.89    9.11
   5  -7  -9   42.14    9.57
   5  -7  -9   32.44    9.52
  -5   7   8  262.43   16.11
   5  -7  -8  256.29   16.20
   5  -7  -8  252.19   16.79
  -5   7   7   44.17    8.75
   5  -7  -7   18.45    7.94
   5  -7  -7   19.40    7.31
  -5   7   6  741.80   35.42
   5  -7  -6  785.12   37.09
   5  -7  -6  813.10   42.23
  -5   7   5   70.07    9.57
   5  -7  -5   92.54    9.43
   5  -7  -5   88.12    7.90
  -5   7   4  214.60   13.99
   5  -7  -4  220.87   13.67
   5  -7  -4  187.80   11.15
  -5   7   3  304.75   17.15
   5  -7  -3  302.14   17.06
  -5   7   2  114.61    9.75
   5  -7  -2  144.93   10.47
  -5   7   1  468.36   23.33
   5  -7  -1  528.38   25.63
  -5   7   0  706.16   32.89
   5  -7   0  719.69   36.28
  -5   7  -1  719.24   33.48
   5  -7   1  728.72   37.09
  -5   7  -2  233.69   13.31
  -5   7  -2  228.59   13.09
   5  -7   2  249.57   14.57
  -5   7  -3  830.24   37.90
  -5   7  -3  783.32   36.05
  -5   7  -3  830.69   42.91
   5  -7   3  814.45   42.28
  -5   7  -4  159.14   10.65
  -5   7  -4  176.29   11.42
  -5   7  -4  167.76   11.28
   5  -7   4  150.39   11.46
  -5   7  -5  165.55   11.46
  -5   7  -5  198.18   13.63
   5  -7   5  143.49   11.78
  -5   7  -6   45.48    7.45
  -5   7  -6   27.93    6.90
   5  -7   6   46.93    9.61
  -5   7  -7  223.17   13.76
  -5   7  -7  252.50   17.42
   5  -7   7  257.96   18.14
  -5   7  -8   -3.52    7.13
  -5   7  -8   18.73    9.57
   5  -7   8   -3.02    9.79
  -5   7  -9  240.95   14.98
  -5   7  -9  254.53   18.36
   5  -7   9  226.29   17.60
  -5   7 -10    6.68    7.13
  -5   7 -10    4.47    9.70
   5  -7  10    8.89   10.83
  -5   7 -11   58.03    8.98
   5  -7  11   59.79    8.66
  -5   7 -11   31.77   11.19
   5  -7  11   43.41   12.05
  -5   7 -12   87.18    9.93
   5  -7  12   74.04    8.80
  -5   7 -12   81.22   12.59
   5  -7  12   86.45   13.72
  -5   7 -13  308.99   17.87
   5  -7  13  307.10   17.42
  -5   7 -13  311.70   21.03
   5  -7  13  326.55   22.88
  -5   7 -14   71.79   10.29
   5  -7  14   89.57   10.11
  -5   7 -14   57.98   10.83
   5  -7  14   63.53   13.72
  -5   7 -15    6.14    8.75
   5  -7  15   -0.32    8.12
  -5   7 -15    5.01    8.84
   5  -7  15   17.46   12.68
  -5   6  13   71.56    9.07
   5  -6 -13   82.21   10.15
   5  -6 -13   84.87   16.02
  -5   6  12    1.76    9.16
   5  -6 -12   13.40    8.98
   5  -6 -12   11.87   11.69
  -5   6  11    5.55    8.98
   5  -6 -11   22.56    9.48
   5  -6 -11    3.65   10.20
  -5   6  10    9.43    8.48
   5  -6 -10   -3.16    7.40
   5  -6 -10    8.62    9.02
  -5   6   9   10.02    7.40
   5  -6  -9   -1.90    8.62
   5  -6  -9   14.48    8.48
  -5   6   8    7.99    8.62
   5  -6  -8   -6.95    8.35
   5  -6  -8    0.72    7.90
  -5   6   7  605.54   30.32
   5  -6  -7  590.64   29.15
   5  -6  -7  601.93   32.40
  -5   6   6   15.97    8.71
   5  -6  -6   13.04    7.85
   5  -6  -6   -3.65    5.73
  -5   6   5  129.82   11.24
   5  -6  -5  134.96   10.87
   5  -6  -5  161.99   10.60
  -5   6   4  545.07   27.03
   5  -6  -4  576.66   28.29
   5  -6  -4  640.73   32.89
  -5   6   3   39.12    7.76
   5  -6  -3   39.21    7.26
   5  -6  -3   39.93    3.38
  -5   6   2    2.12    6.59
   5  -6  -2    6.27    6.23
  -5   6   1   95.21    8.66
   5  -6  -1   94.44    8.39
  -5   6   0  516.19   25.27
  -5   6  -1    3.07    5.37
   5  -6   1    5.78    3.34
  -5   6  -2 2095.91   91.60
  -5   6  -2 2029.58  101.25
   5  -6   2 2290.84  114.02
  -5   6  -3    1.49    5.64
  -5   6  -3   18.73    5.69
  -5   6  -3    6.09    4.92
   5  -6   3    2.44    5.32
  -5   6  -4  167.54   10.78
  -5   6  -4  183.51   12.59
   5  -6   4  164.33   11.78
  -5   6  -5  669.16   31.45
  -5   6  -5  590.19   31.99
   5  -6   5  619.52   33.80
  -5   6  -6  311.79   16.97
  -5   6  -6  297.94   19.00
   5  -6   6  272.40   17.96
  -5   6  -7    3.79    6.81
  -5   6  -7   -0.18    7.94
   5  -6   7   -1.85    7.81
  -5   6  -8  111.77    9.88
  -5   6  -8   90.29   11.64
   5  -6   8  109.51   13.27
  -5   6  -9  153.14   11.64
   5  -6   9  188.29   13.13
  -5   6  -9  158.69   14.08
   5  -6   9  152.87   15.07
  -5   6 -10    7.17    7.35
   5  -6  10   19.58    7.17
  -5   6 -10    6.77    9.43
   5  -6  10    0.90   10.60
  -5   6 -11  314.27   17.64
   5  -6  11  290.18   16.11
  -5   6 -11  297.17   20.12
   5  -6  11  287.92   20.71
  -5   6 -12    8.89    7.22
   5  -6  12    2.30    7.31
  -5   6 -12   11.01    9.66
   5  -6  12   13.49   10.92
  -5   6 -13  682.24   32.58
   5  -6  13  729.17   34.56
  -5   6 -13  750.38   41.42
   5  -6  13  703.90   39.44
  -5   6 -14   -4.69    8.12
   5  -6  14    4.96    7.04
  -5   6 -14   11.37   10.38
   5  -6  14    9.20   12.00
  -5   6 -15   29.10    8.12
   5  -6  15   41.87    8.12
  -5   6 -15   18.32    9.61
   5  -6  15   24.37   12.45
  -5   6 -16    9.66    9.57
   5  -6  16   -0.14    7.40
  -5   6 -16    3.93    9.07
   5  -6  16   18.45   11.73
  -5   5  13    1.67    8.35
   5  -5 -13    7.94    9.11
   5  -5 -13   21.21   12.77
  -5   5  12   11.01    9.70
   5  -5 -12   -0.95    8.66
   5  -5 -12  -21.79   11.91
  -5   5  11   65.74   10.87
   5  -5 -11   81.31   11.01
   5  -5 -11   83.93   12.95
  -5   5  10    0.00    7.31
   5  -5 -10    8.21    8.66
   5  -5 -10    7.58    9.20
  -5   5   9    0.90    8.66
   5  -5  -9   21.97    8.80
   5  -5  -9   -0.09    8.71
  -5   5   8   62.31    9.61
   5  -5  -8   62.45    9.57
   5  -5  -8   61.41    8.89
  -5   5   7  134.82   12.23
   5  -5  -7  164.06   12.27
   5  -5  -7  136.72   11.05
  -5   5   6   59.97    9.43
   5  -5  -6   46.88    8.93
   5  -5  -6   51.84    7.58
  -5   5   5 1227.31   55.82
   5  -5  -5 1167.30   53.15
   5  -5  -5 1013.44   51.57
  -5   5   4   10.60    7.45
   5  -5  -4    5.46    7.26
   5  -5  -4    8.89    4.38
  -5   5   3  823.02   38.49
   5  -5  -3  867.69   40.07
   5  -5  -3  990.42   49.72
  -5   5   2  207.74   13.27
   5  -5  -2  223.85   13.67
  -5   5   1   16.88    6.72
   5  -5  -1   46.75    7.76
  -5   5   0   50.49    7.35
   5  -5   0   55.09    8.17
  -5   5  -1  780.16   36.10
   5  -5   1  758.05   38.17
  -5   5  -2  440.71   21.84
  -5   5  -2  388.23   20.30
   5  -5   2  406.77   21.48
  -5   5  -3  136.13   10.06
  -5   5  -3  116.59    8.30
   5  -5   3  114.93    8.48
  -5   5  -4  799.56   36.77
  -5   5  -4  718.34   37.72
   5  -5   4  761.66   39.71
  -5   5  -5  281.11   15.43
  -5   5  -5  268.38   16.38
   5  -5   5  282.06   17.42
  -5   5  -6  237.84   14.12
  -5   5  -6  234.14   15.61
   5  -5   6  213.02   15.16
  -5   5  -7    9.57    6.63
  -5   5  -7   13.54    7.13
   5  -5   7   11.60    8.17
  -5   5  -8   52.57    7.90
   5  -5   8   60.46    7.45
  -5   5  -8   64.61    9.70
   5  -5   8   40.75    9.79
  -5   5  -9    1.13    6.95
   5  -5   9    2.89    7.04
  -5   5  -9   23.51    8.84
   5  -5   9   -4.06   10.42
  -5   5 -10  165.82   12.23
   5  -5  10  137.49   11.19
  -5   5 -10  203.32   15.79
   5  -5  10  180.49   16.20
  -5   5 -11   -4.92    7.63
   5  -5  11    9.43    7.54
  -5   5 -11    1.26    9.57
   5  -5  11    5.60   11.19
  -5   5 -12  575.30   28.25
   5  -5  12  559.51   27.89
  -5   5 -12  530.63   31.04
   5  -5  12  536.05   31.54
  -5   5 -13  216.95   13.90
   5  -5  13  181.48   12.23
  -5   5 -13  236.75   18.55
   5  -5  13  168.76   16.29
  -5   5 -14  137.13   11.78
   5  -5  14  103.92    9.79
  -5   5 -14  131.67   13.40
   5  -5  14  126.25   15.39
  -5   5 -15   69.89    9.88
   5  -5  15   74.18    9.48
  -5   5 -15   66.28   10.96
   5  -5  15   66.10   13.63
  -5   5 -16  -11.28    8.08
   5  -5  16    7.31    7.85
  -5   5 -16   11.05    9.30
   5  -5  16   -2.26   10.96
  -5   4  13   11.37    7.63
   5  -4 -13   27.43    9.66
   5  -4 -13   16.24   10.96
  -5   4  12    9.25    9.34
   5  -4 -12    9.75    8.44
   5  -4 -12    5.23   11.60
  -5   4  11   30.55    9.66
   5  -4 -11   38.53    8.80
   5  -4 -11   25.99   11.46
  -5   4  10    7.31    8.12
   5  -4 -10   -0.32    7.54
   5  -4 -10   -7.81    9.43
  -5   4   9    0.41    9.16
   5  -4  -9  -17.64    8.44
  -5   4   9    4.83    8.44
   5  -4  -9    1.08    8.89
  -5   4   8   26.13    9.43
   5  -4  -8   31.77    8.26
  -5   4   8   20.30    8.93
   5  -4  -8   28.83    8.30
  -5   4   7    7.63    8.98
   5  -4  -7    6.09    8.17
  -5   4   7    1.40    7.58
   5  -4  -7    7.67    7.22
  -5   4   6  789.63   37.32
   5  -4  -6  783.77   37.59
  -5   4   6  737.74   38.99
   5  -4  -6  788.28   41.29
  -5   4   5  158.33   12.32
   5  -4  -5  210.63   13.85
   5  -4  -5  166.50   11.10
  -5   4   4  878.52   41.02
   5  -4  -4  881.23   41.11
   5  -4  -4  745.41   38.22
  -5   4   3  289.77   16.65
   5  -4  -3  259.45   15.16
   5  -4  -3  270.46   14.62
  -5   4   2   72.42    8.44
   5  -4  -2   85.82    9.20
   5  -4  -2   91.33    5.14
  -5   4   1  403.57   20.89
   5  -4  -1  419.81   21.43
  -5   4   0   21.34    6.81
   5  -4   0   35.60    7.31
  -5   4  -1  636.22   29.96
  -5   4  -2  329.43   17.28
  -5   4  -2  303.35   15.97
   5  -4   2  319.24   17.01
  -5   4  -3  110.05    8.66
  -5   4  -3   99.09    7.54
   5  -4   3   99.63    7.85
  -5   4  -4   19.04    6.05
  -5   4  -4   25.36    5.60
   5  -4   4   19.99    6.54
  -5   4  -5  118.04    9.30
  -5   4  -5  111.27    9.52
   5  -4   5  108.20   10.24
  -5   4  -6    4.06    6.14
  -5   4  -6   -3.47    6.95
   5  -4   6    0.50    7.22
  -5   4  -7   20.03    7.08
  -5   4  -7   10.11    7.67
   5  -4   7   17.60    9.39
  -5   4  -8   -0.95    6.27
   5  -4   8   21.88    7.04
  -5   4  -8   14.44    7.76
   5  -4   8   12.23    8.80
  -5   4  -9   15.07    6.77
   5  -4   9    0.95    6.05
  -5   4  -9   16.97    8.98
   5  -4   9    6.41    9.30
  -5   4 -10   66.24    8.71
   5  -4  10   52.34    8.03
  -5   4 -10   37.41   10.83
   5  -4  10   54.46   11.87
  -5   4 -11   98.09   10.29
   5  -4  11  116.78   10.11
  -5   4 -11  124.09   13.31
   5  -4  11  101.70   12.95
  -5   4 -12  236.08   14.80
   5  -4  12  245.19   14.75
  -5   4 -12  268.47   19.31
   5  -4  12  247.27   19.13
  -5   4 -13   56.63    8.12
   5  -4  13   67.46    9.48
  -5   4 -13   72.92   10.69
   5  -4  13   46.16   12.54
  -5   4 -14  353.71   19.31
   5  -4  14  386.74   20.53
  -5   4 -14  356.78   22.70
   5  -4  14  355.61   24.05
  -5   4 -15   -2.35    8.26
   5  -4  15    1.49    7.13
  -5   4 -15    2.03    8.98
   5  -4  15   20.89   11.15
  -5   4 -16   19.94    8.30
   5  -4  16   14.53    7.35
  -5   4 -16   16.29    9.70
   5  -4  16   25.27   10.96
  -5   4 -17   -2.35    9.25
   5  -4  17    0.86    7.35
  -5   4 -17    7.94    9.93
   5  -4  17   -2.84   10.74
  -5   3  13   49.14    9.43
   5  -3 -13   36.14    8.80
  -5   3  13   38.76   11.28
   5  -3 -13   55.77   11.91
  -5   3  12   17.28    8.30
   5  -3 -12    9.20    9.11
  -5   3  12   26.44   10.69
   5  -3 -12   17.78   10.51
  -5   3  11    8.17    8.48
   5  -3 -11   11.28    8.26
  -5   3  11   31.13   10.56
   5  -3 -11    8.98   10.47
  -5   3  10   52.43    9.93
   5  -3 -10   54.51    9.97
  -5   3  10   51.94   10.65
   5  -3 -10   94.76   12.63
  -5   3   9  365.04   20.76
   5  -3  -9  363.59   20.30
  -5   3   9  325.69   20.89
   5  -3  -9  293.70   20.08
  -5   3   8    7.40    7.94
   5  -3  -8   11.28    7.99
  -5   3   8    2.35    8.17
   5  -3  -8   -4.24    8.35
  -5   3   7  163.57   13.49
   5  -3  -7  194.34   13.40
  -5   3   7  175.39   13.49
   5  -3  -7  216.09   15.16
  -5   3   6  805.88   38.26
   5  -3  -6  808.13   38.49
  -5   3   6  775.64   40.70
   5  -3  -6  745.41   39.35
  -5   3   5 1024.72   46.97
   5  -3  -5 1049.99   48.15
  -5   3   5 1029.68   52.75
   5  -3  -5 1119.02   57.26
  -5   3   4  311.93   17.73
   5  -3  -4  303.40   17.33
  -5   3   4  264.50   15.57
   5  -3  -4  276.96   15.93
  -5   3   3  180.76   11.96
   5  -3  -3  213.65   13.31
  -5   3   3  187.30   11.19
   5  -3  -3  201.65   11.64
  -5   3   2   -6.32    6.95
   5  -3  -2   -0.18    6.00
  -5   3   2   -3.25    3.20
   5  -3  -2    1.40    2.75
  -5   3   1  360.52   19.13
   5  -3  -1  366.12   19.27
  -5   3   0 4158.43  179.40
   5  -3   0 3993.28  172.41
  -5   3  -1    0.59    6.27
  -5   3  -2 1379.83   61.37
  -5   3  -2 1507.97   75.13
  -5   3  -3  280.88   16.06
   5  -3   3  250.83   14.39
  -5   3  -4  442.06   21.84
  -5   3  -4  452.12   24.46
   5  -3   4  471.07   25.58
  -5   3  -5   94.53    8.39
  -5   3  -5  116.19   10.20
   5  -3   5  123.00   10.02
  -5   3  -6   36.59    7.35
  -5   3  -6   25.81    6.72
   5  -3   6   36.86    8.26
  -5   3  -7   86.72    8.75
   5  -3   7  106.76    9.02
  -5   3  -7   99.22   10.29
   5  -3   7   98.50   10.69
  -5   3  -8  235.85   14.62
   5  -3   8  230.08   14.44
  -5   3  -8  246.28   16.79
   5  -3   8  248.62   17.42
  -5   3  -9   61.64    8.80
   5  -3   9   92.18    9.39
  -5   3  -9   81.04   11.46
   5  -3   9   79.59   10.83
  -5   3 -10   72.92    9.43
   5  -3  10   95.97   10.29
  -5   3 -10   95.48   12.14
   5  -3  10   60.64   11.51
  -5   3 -11  158.47   12.36
   5  -3  11  167.63   12.68
  -5   3 -11  175.07   15.43
   5  -3  11  184.19   15.93
  -5   3 -12  127.69   11.55
   5  -3  12  110.46   10.42
  -5   3 -12  104.95   12.36
   5  -3  12   88.80   13.09
  -5   3 -13 1034.19   47.56
   5  -3  13 1067.58   48.87
  -5   3 -13 1139.33   59.52
   5  -3  13 1150.16   60.82
  -5   3 -14   32.67    8.53
   5  -3  14   18.09    7.22
  -5   3 -14   40.02   10.92
   5  -3  14   22.20   11.55
  -5   3 -15   16.24    8.44
   5  -3  15   30.41    7.81
  -5   3 -15   23.06    9.97
   5  -3  15   41.47   11.91
  -5   3 -16   -1.76    8.08
   5  -3  16    5.78    7.22
  -5   3 -16   -6.45    8.80
   5  -3  16   -0.18   10.56
  -5   3 -17    6.99    9.79
   5  -3  17  -13.22    7.45
  -5   3 -17   10.06   10.06
   5  -3  17    8.30   10.11
  -5   2  14   -1.49    8.26
   5  -2 -14    5.69    9.34
  -5   2  14    9.16   10.96
   5  -2 -14   10.47   11.60
  -5   2  13  -13.54    8.08
   5  -2 -13    8.03    9.75
  -5   2  13    3.56   11.15
   5  -2 -13   -1.76   11.28
  -5   2  12   23.01    9.11
   5  -2 -12    5.41    9.07
  -5   2  12   -1.53   10.15
   5  -2 -12   -6.50    9.97
  -5   2  11   58.75   10.51
   5  -2 -11   57.49   10.02
  -5   2  11   65.20   11.42
   5  -2 -11   48.60   10.83
  -5   2  10   58.34    8.53
   5  -2 -10   78.51   10.29
  -5   2  10   57.30   10.96
   5  -2 -10   57.35   10.65
  -5   2   9   -0.09    8.08
   5  -2  -9   12.36    8.66
  -5   2   9   -2.57    9.11
   5  -2  -9   24.41    9.34
  -5   2   8   26.67    9.16
   5  -2  -8   23.37    8.03
  -5   2   8   18.68    8.62
   5  -2  -8   11.24    8.39
  -5   2   7 1411.41   63.62
   5  -2  -7 1484.51   66.64
  -5   2   7 1517.90   77.97
   5  -2  -7 1381.63   70.89
  -5   2   6  224.08   14.89
   5  -2  -6  266.58   16.24
  -5   2   6  267.75   17.10
   5  -2  -6  268.25   16.70
  -5   2   5  223.76   14.85
   5  -2  -5  202.64   13.49
  -5   2   5  216.31   14.39
   5  -2  -5  224.57   14.26
  -5   2   4   82.66    9.48
   5  -2  -4   78.65    8.98
  -5   2   4   85.60    7.99
   5  -2  -4   90.65    8.17
  -5   2   3   97.46    9.84
   5  -2  -3   89.07    9.20
  -5   2   3   86.99    7.13
   5  -2  -3   92.41    7.31
  -5   2   2   29.74    7.85
   5  -2  -2   34.47    7.49
  -5   2   2   37.45    4.56
   5  -2  -2   33.80    4.38
  -5   2   1 1589.19   70.34
   5  -2  -1 1588.29   70.44
  -5   2   1 1571.59   78.24
  -5   2   0  419.81   21.16
   5  -2   0  447.61   22.47
  -5   2   0  445.94   22.56
  -5   2  -1  472.88   23.78
  -5   2  -1  460.24   23.46
  -5   2  -2 1603.18   70.93
  -5   2  -2 1730.42   86.23
  -5   2  -3  144.07   10.15
  -5   2  -4  321.67   17.19
  -5   2  -4  324.16   18.73
   5  -2   4  312.97   17.91
  -5   2  -5  167.76   11.24
  -5   2  -5  170.43   12.54
   5  -2   5  166.86   12.41
  -5   2  -6  744.51   34.97
  -5   2  -6  749.47   39.84
   5  -2   6  695.78   37.41
  -5   2  -7   37.14    7.08
   5  -2   7   27.70    7.04
  -5   2  -7   34.16    8.57
   5  -2   7   40.47    8.80
  -5   2  -8   39.48    8.03
   5  -2   8   16.20    6.99
  -5   2  -8   39.57    9.79
   5  -2   8   37.77   10.06
  -5   2  -9   -2.84    7.13
   5  -2   9    4.42    6.09
  -5   2  -9    5.69    8.62
   5  -2   9   18.23    9.66
  -5   2 -10   44.31    8.66
   5  -2  10   49.81    7.90
  -5   2 -10   43.95    9.52
   5  -2  10   45.26   10.56
  -5   2 -11  338.37   18.95
   5  -2  11  317.84   17.82
  -5   2 -11  322.76   20.76
   5  -2  11  348.93   23.51
  -5   2 -12  541.01   27.43
   5  -2  12  424.69   22.34
  -5   2 -12  595.61   33.53
   5  -2  12  515.74   30.73
  -5   2 -13  163.88   12.68
   5  -2  13  142.36   10.78
  -5   2 -13  172.91   15.66
   5  -2  13  149.67   15.21
  -5   2 -14    0.00    8.12
   5  -2  14   -7.35    6.99
  -5   2 -14   -1.80    9.70
   5  -2  14    2.98   10.47
  -5   2 -15   -9.66    8.08
   5  -2  15    3.84    6.18
  -5   2 -15   10.38    9.88
   5  -2  15   -8.30   10.47
  -5   2 -16   -1.90    7.94
   5  -2  16    2.21    7.54
  -5   2 -16  -11.42    9.30
   5  -2  16   -6.77    9.48
  -5   2 -17   31.72    8.89
   5  -2  17    7.90    7.54
  -5   2 -17    2.93    9.97
   5  -2  17   14.39   10.29
  -5   1  14    5.23    8.98
   5  -1 -14    5.14   10.33
  -5   1  14   -1.71   11.10
   5  -1 -14   11.33   11.73
  -5   1  13   12.18    7.94
   5  -1 -13   -2.26    8.48
  -5   1  13    2.35   11.24
   5  -1 -13  -12.45   11.28
  -5   1  12    0.18    9.34
   5  -1 -12   -2.08    8.84
  -5   1  12   12.45   11.73
   5  -1 -12    3.07   10.11
  -5   1  11    9.97    7.49
   5  -1 -11   12.05    8.53
  -5   1  11   -5.32   10.15
   5  -1 -11   -0.45    9.97
  -5   1  10  168.85   13.49
   5  -1 -10  167.81   13.49
  -5   1  10  185.27   16.38
   5  -1 -10  178.86   15.30
  -5   1   9    2.75    9.11
   5  -1  -9  -11.33    8.53
  -5   1   9   11.69   11.24
   5  -1  -9    4.33    8.71
  -5   1   8  739.10   35.87
   5  -1  -8  729.17   35.10
  -5   1   8  744.06   40.75
   5  -1  -8  671.41   36.73
  -5   1   7   -3.65    7.67
   5  -1  -7    7.40    8.35
  -5   1   7    6.90    8.98
   5  -1  -7    6.14    7.63
  -5   1   6  953.42   44.58
   5  -1  -6  967.86   44.94
  -5   1   6  954.78   49.99
   5  -1  -6  986.36   51.48
  -5   1   5  819.86   38.58
   5  -1  -5  817.16   38.44
  -5   1   5  812.64   42.87
   5  -1  -5  845.13   44.04
  -5   1   4  190.91   12.72
   5  -1  -4  188.16   13.00
  -5   1   4  173.63   12.32
   5  -1  -4  191.00   12.41
  -5   1   3   22.15    6.81
   5  -1  -3    5.14    6.63
  -5   1   3   15.93    5.50
   5  -1  -3    6.86    5.05
  -5   1   2   27.84    7.45
   5  -1  -2   45.62    7.67
  -5   1   2   42.55    5.73
   5  -1  -2   37.95    5.60
  -5   1   1 1715.53   75.71
   5  -1  -1 1750.28   77.20
  -5   1   1 1757.04   87.58
  -5   1   0  170.61   12.18
   5  -1   0  165.15   11.33
  -5   1   0  188.83   10.83
  -5   1  -1 3763.16  162.75
  -5   1  -2  118.85   10.15
  -5   1  -3   10.65    5.55
  -5   1  -4    0.68    6.27
  -5   1  -4    8.75    6.41
  -5   1  -5  204.22   12.86
  -5   1  -5  195.78   13.40
  -5   1  -6   10.02    6.14
   5  -1   6   18.27    6.68
  -5   1  -6   14.35    7.90
   5  -1   6    2.17    7.17
  -5   1  -7   14.53    7.49
   5  -1   7    5.96    6.41
  -5   1  -7    7.31    7.40
   5  -1   7   11.28    7.76
  -5   1  -8  316.89   17.78
   5  -1   8  296.41   17.15
  -5   1  -8  318.38   20.03
   5  -1   8  313.87   20.30
  -5   1  -9    2.12    7.26
   5  -1   9    4.96    6.59
  -5   1  -9   -6.54    7.67
   5  -1   9   -0.54    9.02
  -5   1 -10  313.37   18.09
   5  -1  10  366.75   19.94
  -5   1 -10  311.97   19.67
   5  -1  10  366.25   23.10
  -5   1 -11 1339.67   60.64
   5  -1  11 1379.83   62.22
  -5   1 -11 1498.50   77.25
   5  -1  11 1508.87   78.33
  -5   1 -12   25.13    8.71
   5  -1  12    1.62    7.26
  -5   1 -12    7.90   10.29
   5  -1  12   20.12   10.60
  -5   1 -13    9.30    8.12
   5  -1  13    9.07    7.08
  -5   1 -13    5.69   10.38
   5  -1  13   24.28   10.83
  -5   1 -14  200.25   13.99
   5  -1  14  199.08   13.40
  -5   1 -14  189.38   14.75
   5  -1  14  220.78   17.24
  -5   1 -15   -5.82    8.08
   5  -1  15   -1.22    7.17
  -5   1 -15    9.57    9.57
   5  -1  15   10.69   10.20
  -5   1 -16   18.73    8.57
   5  -1  16   19.13    6.72
  -5   1 -16    9.93    9.79
   5  -1  16   21.25   10.87
  -5   1 -17    1.35    7.85
   5  -1  17    3.34    7.26
  -5   1 -17    2.21    9.79
  -5   0  13   82.08   11.10
   5   0 -13   89.39   11.05
  -5   0  13  113.03   13.81
   5   0 -13   93.27   13.81
  -5   0  12   35.92   10.38
   5   0 -12   41.15    9.48
  -5   0  12   22.83   11.91
   5   0 -12   15.07    9.84
  -5   0  11   -3.47    8.21
   5   0 -11   -0.36    8.84
  -5   0  11   -1.35   10.20
   5   0 -11   11.91   10.83
  -5   0  10    3.61    7.90
   5   0 -10    5.05    9.02
  -5   0  10   10.87   11.78
   5   0 -10    3.25    9.61
  -5   0   9    6.32    7.17
   5   0  -9   14.44    8.89
  -5   0   9   -2.17    9.79
   5   0  -9    2.26    9.43
  -5   0   8   22.65    8.39
   5   0  -8   -7.99    8.35
  -5   0   8   16.29    8.80
   5   0  -8    7.85    8.57
  -5   0   7   22.38    8.35
   5   0  -7   15.57    8.71
  -5   0   7    4.56    9.57
   5   0  -7   27.57    8.12
  -5   0   6  393.28   21.12
   5   0  -6  372.39   20.17
  -5   0   6  363.91   22.20
   5   0  -6  412.73   24.10
  -5   0   5   21.34    8.03
   5   0  -5   19.49    6.72
  -5   0   5   25.18    8.12
   5   0  -5   23.01    7.40
  -5   0   4  787.83   37.05
   5   0  -4  762.56   35.92
  -5   0   4  780.61   40.88
   5   0  -4  753.99   39.44
  -5   0   3  117.45   10.02
   5   0  -3  109.01    9.84
  -5   0   3  109.60    9.48
   5   0  -3  100.53    8.57
  -5   0   2   70.89    8.44
   5   0  -2   67.32    7.76
  -5   0   2   84.42    8.12
   5   0  -2   66.69    7.13
  -5   0   1  126.57    9.43
   5   0  -1  144.25   10.60
  -5   0   1  143.31    9.93
   5   0  -1  146.01    9.79
  -5   0   0 3133.71  135.68
   5   0   0 3078.21  133.38
  -5   0   0 3255.09  161.45
  -5   0  -1 1558.06   68.86
  -5   0  -1 1451.57   72.87
  -5   0  -2 2015.59   88.26
  -5   0  -4  594.71   28.29
  -5   0  -4  566.28   30.10
  -5   0  -5   37.14    7.13
  -5   0  -5   45.57    7.58
  -5   0  -6  171.78   11.87
   5   0   6  163.52   11.60
  -5   0  -6  160.59   12.45
  -5   0  -7  172.37   11.78
   5   0   7  183.15   12.41
  -5   0  -7  186.49   13.58
  -5   0  -8  639.83   31.09
   5   0   8  623.58   29.78
  -5   0  -8  667.80   35.96
  -5   0  -9  650.66   31.50
   5   0   9  677.28   32.31
  -5   0  -9  709.32   38.58
   5   0   9  759.40   41.24
  -5   0 -10   57.39    8.98
   5   0  10   40.84    8.12
  -5   0 -10   73.91   10.96
   5   0  10   72.29   11.10
  -5   0 -11 1038.70   47.96
   5   0  11 1006.67   46.20
  -5   0 -11 1001.70   53.42
   5   0  11 1032.84   55.50
  -5   0 -12  614.11   30.05
   5   0  12  606.89   29.96
  -5   0 -12  619.07   34.88
   5   0  12  658.33   37.27
  -5   0 -13  749.92   35.78
   5   0  13  777.90   36.82
  -5   0 -13  828.44   44.58
   5   0  13  822.12   44.94
  -5   0 -14  116.23   10.87
   5   0  14  116.37   10.29
  -5   0 -14  105.36   12.59
   5   0  14   98.95   12.63
  -5   0 -15   -0.05    7.94
   5   0  15   11.78    6.59
  -5   0 -15    0.32    9.48
  -5   0 -16   -3.61    6.86
   5   0  16   14.30    7.35
  -5   0 -16   12.50   10.02
  -5   0 -17   10.96    8.57
   5   0  17   17.28    7.45
  -5   0 -17    6.54    9.70
  -5  -1  13   30.05    8.89
   5   1 -13   26.17    9.61
  -5  -1  13   37.32   11.87
   5   1 -13   32.31   12.45
  -5  -1  12   44.08    9.93
   5   1 -12   31.22    8.98
  -5  -1  12   16.92   11.51
   5   1 -12   38.26   10.60
  -5  -1  11   -0.50    9.70
   5   1 -11    9.07    9.25
  -5  -1  11   15.30    9.97
   5   1 -11   19.58   10.51
  -5  -1  10   13.81    7.72
   5   1 -10   -1.40    8.66
  -5  -1  10   -6.59   10.38
   5   1 -10    9.34    8.93
  -5  -1   9  149.26   13.27
   5   1  -9  177.96   13.58
  -5  -1   9  162.66   14.94
   5   1  -9  174.08   14.39
  -5  -1   8  133.61   12.77
   5   1  -8  161.31   13.00
  -5  -1   8  177.69   15.16
   5   1  -8  161.18   13.94
  -5  -1   7  672.77   33.16
   5   1  -7  685.40   33.48
  -5  -1   7  689.46   37.41
   5   1  -7  671.41   36.64
  -5  -1   6  161.54   11.60
   5   1  -6  159.14   12.14
  -5  -1   6  160.05   12.63
   5   1  -6  169.16   13.22
  -5  -1   5  651.11   31.45
   5   1  -5  622.68   30.10
  -5  -1   5  634.86   34.70
   5   1  -5  633.06   34.29
  -5  -1   4  183.87   12.00
   5   1  -4  205.98   13.49
  -5  -1   4  213.61   15.25
   5   1  -4  190.19   13.09
  -5  -1   3   35.10    7.35
   5   1  -3   49.36    7.72
  -5  -1   3   48.64    8.08
   5   1  -3   45.17    6.63
  -5  -1   2  129.82   10.24
   5   1  -2  131.53   10.02
  -5  -1   2  136.18   10.65
   5   1  -2  146.74   10.92
  -5  -1   1  164.38   11.64
   5   1  -1  149.94   10.56
  -5  -1   1  159.01   11.28
   5   1  -1  176.43   11.82
  -5  -1   0 3872.81  167.27
   5   1   0 4004.11  172.73
  -5  -1   0 3975.69  197.14
  -5  -1  -1 1003.51   45.30
  -5  -1  -1  993.58   50.81
  -5  -1  -2 2055.30   89.66
  -5  -1  -4  232.56   13.67
  -5  -1  -5   12.95    6.59
  -5  -1  -5    9.48    6.81
  -5  -1  -6  174.08   12.05
   5   1   6  188.25   12.23
  -5  -1  -6  202.82   14.21
  -5  -1  -7  712.93   33.93
   5   1   7  706.61   33.75
  -5  -1  -7  725.56   39.26
  -5  -1  -8   24.50    6.90
   5   1   8   19.00    7.58
  -5  -1  -8   12.14    7.81
  -5  -1  -9  267.21   16.15
   5   1   9  241.45   14.62
  -5  -1  -9  257.38   18.09
  -5  -1 -10 1107.29   50.76
   5   1  10 1212.42   55.18
  -5  -1 -10 1197.98   62.76
  -5  -1 -11  508.97   26.04
   5   1  11  436.24   22.79
  -5  -1 -11  490.47   28.65
  -5  -1 -12  427.76   22.83
   5   1  12  430.69   22.43
  -5  -1 -12  433.31   25.58
  -5  -1 -13 1420.44   64.03
   5   1  13 1531.89   68.45
  -5  -1 -13 1463.75   75.44
  -5  -1 -14    1.99    7.35
   5   1  14    1.17    6.50
  -5  -1 -14   -7.63    9.43
  -5  -1 -15   48.15    8.84
   5   1  15   63.76    8.75
  -5  -1 -15   39.93    9.61
  -5  -1 -16   34.70    8.75
   5   1  16   37.36    7.04
  -5  -1 -16   43.50   10.47
  -5  -1 -17   -7.76    9.07
   5   1  17   10.42    6.95
  -5  -1 -17   -3.97    9.70
  -5  -1 -18   27.89   10.83
   5   1  18   10.11    7.40
  -5  -1 -18   21.30   10.78
  -5  -2  13   -0.90    8.35
   5   2 -13  -16.70    9.34
  -5  -2  13   15.93   12.14
   5   2 -13   -1.26   10.42
  -5  -2  12   15.84    8.89
   5   2 -12  -13.00    8.57
  -5  -2  12   14.35   10.65
   5   2 -12   20.08    9.75
  -5  -2  11    9.97    8.57
   5   2 -11   16.83    9.20
  -5  -2  11    8.53   10.69
   5   2 -11   15.39    9.61
  -5  -2  10   71.07    9.48
   5   2 -10   76.12   10.29
  -5  -2  10   74.86   11.96
   5   2 -10   81.44   11.46
  -5  -2   9    1.99    7.81
   5   2  -9    7.04    8.66
  -5  -2   9  -10.74    9.39
   5   2  -9   11.69    9.25
  -5  -2   8  114.34   11.28
   5   2  -8  103.74   10.96
  -5  -2   8  103.19   12.18
   5   2  -8  118.17   12.00
  -5  -2   7  362.46   20.53
   5   2  -7  376.54   21.12
  -5  -2   7  366.93   22.83
   5   2  -7  387.69   23.64
  -5  -2   6  841.07   39.39
   5   2  -6  783.32   36.95
  -5  -2   6  800.46   43.14
   5   2  -6  844.23   45.08
  -5  -2   5  420.90   22.29
   5   2  -5  416.52   21.52
  -5  -2   5  365.89   22.29
   5   2  -5  400.73   23.46
  -5  -2   4    2.12    6.90
   5   2  -4    1.67    6.41
  -5  -2   4   -2.21    6.99
   5   2  -4   -5.23    6.27
  -5  -2   3  165.87   11.91
   5   2  -3  149.35   10.74
  -5  -2   3  166.09   12.81
   5   2  -3  167.90   12.50
  -5  -2   2  126.75    9.43
   5   2  -2  132.12   10.06
  -5  -2   2  133.34   10.69
   5   2  -2  137.22   10.87
  -5  -2   1 5360.47  230.35
   5   2  -1 5211.57  223.89
  -5  -2   1 5184.50  257.06
   5   2  -1 5044.62  250.16
  -5  -2   0  315.13   16.56
   5   2   0  309.36   16.33
  -5  -2   0  293.83   17.64
  -5  -2  -1  508.97   24.28
  -5  -2  -1  520.71   28.20
  -5  -2  -2 1483.61   65.43
  -5  -2  -3  411.83   20.58
  -5  -2  -4   87.81    8.44
  -5  -2  -5   11.87    6.45
  -5  -2  -6   47.96    7.58
   5   2   6   14.62    6.63
  -5  -2  -6   26.40    7.63
  -5  -2  -7  396.53   21.07
   5   2   7  405.42   21.03
  -5  -2  -7  451.67   26.31
  -5  -2  -8   87.54    9.52
   5   2   8   81.58    9.02
  -5  -2  -8  103.69   11.33
  -5  -2  -9  109.78   10.11
   5   2   9  101.89    8.98
  -5  -2  -9  103.28   11.73
  -5  -2 -10  271.41   16.60
   5   2  10  233.69   14.17
  -5  -2 -10  241.36   17.10
  -5  -2 -11   47.56    8.62
   5   2  11   55.27    8.03
  -5  -2 -11   67.77   10.24
  -5  -2 -12  587.04   29.42
   5   2  12  595.16   29.37
  -5  -2 -12  573.05   32.53
  -5  -2 -13   25.31    8.44
   5   2  13   35.42    7.72
  -5  -2 -13   44.54   10.74
  -5  -2 -14  105.04   10.60
   5   2  14  121.15   10.74
  -5  -2 -14  129.23   12.77
  -5  -2 -15   90.47    9.79
   5   2  15   80.68    9.20
  -5  -2 -15  106.80   12.54
  -5  -2 -16   10.96    7.22
   5   2  16   14.85    6.95
  -5  -2 -16    5.82    9.88
  -5  -2 -17    3.88    7.54
   5   2  17   23.78    7.76
  -5  -2 -17    8.66   10.60
  -5  -2 -18   58.07   10.15
   5   2  18   70.30    8.80
  -5  -2 -18   75.22   10.51
  -5  -3  13    0.50    8.26
   5   3 -13   17.55   10.15
  -5  -3  13    0.86   10.69
   5   3 -13   19.99   10.56
  -5  -3  12   30.95    9.25
   5   3 -12   19.40    9.02
  -5  -3  12   29.55   11.37
   5   3 -12   26.71    9.66
  -5  -3  11   23.37    9.16
   5   3 -11   22.06    9.57
  -5  -3  11   38.04   11.33
   5   3 -11   15.97    9.70
  -5  -3  10   31.31   10.02
   5   3 -10    9.84    8.12
  -5  -3  10   14.08   10.60
   5   3 -10   17.78    9.52
  -5  -3   9   21.43    9.61
   5   3  -9   15.66    8.48
  -5  -3   9   44.04   11.15
   5   3  -9   49.32   10.65
  -5  -3   8  253.99   16.56
   5   3  -8  226.02   15.25
  -5  -3   8  244.20   17.82
   5   3  -8  201.15   15.48
  -5  -3   7  129.91   11.69
   5   3  -7  140.06   11.96
  -5  -3   7  121.83   12.81
   5   3  -7  131.62   12.68
  -5  -3   6  199.75   12.90
   5   3  -6  223.49   14.80
  -5  -3   6  229.85   16.79
   5   3  -6  224.12   15.48
  -5  -3   5  175.16   12.05
   5   3  -5  167.09   11.82
  -5  -3   5  181.39   14.48
   5   3  -5  174.49   13.49
  -5  -3   4 1636.12   72.24
   5   3  -4 1583.78   70.25
  -5  -3   4 1520.15   78.20
   5   3  -4 1603.63   81.76
  -5  -3   3    7.63    6.68
   5   3  -3   13.04    6.09
  -5  -3   3   23.78    8.39
   5   3  -3   11.33    6.68
  -5  -3   2  142.04   10.15
   5   3  -2  117.72    9.34
  -5  -3   2  137.53   12.09
   5   3  -2  142.54   11.19
  -5  -3   1  309.17   16.83
   5   3  -1  307.55   16.11
  -5  -3   1  320.41   19.40
   5   3  -1  308.68   18.27
  -5  -3   0  322.62   17.06
   5   3   0  301.37   15.88
  -5  -3   0  306.15   18.59
  -5  -3  -1  464.30   22.29
  -5  -3  -1  486.41   27.12
  -5  -3  -2  111.86    8.12
  -5  -3  -3   48.55    6.27
  -5  -3  -4   -3.97    5.82
  -5  -3  -5  643.44   30.68
  -5  -3  -6   49.36    7.40
   5   3   6   42.23    7.08
  -5  -3  -7   97.60    9.48
   5   3   7   98.82    9.11
  -5  -3  -7   94.35   10.87
  -5  -3  -8   77.25    8.98
   5   3   8   90.65    9.07
  -5  -3  -8   87.63   10.38
  -5  -3  -9   71.34    9.07
   5   3   9   48.73    8.12
  -5  -3  -9   54.24    9.61
  -5  -3 -10   10.92    7.67
   5   3  10    1.90    7.35
  -5  -3 -10    5.91    9.34
  -5  -3 -11  687.21   33.48
   5   3  11  741.35   35.69
  -5  -3 -11  719.69   39.75
  -5  -3 -12  216.90   14.57
   5   3  12  188.38   13.81
  -5  -3 -12  193.17   15.57
  -5  -3 -13  113.08   11.10
   5   3  13  117.14   11.15
  -5  -3 -13   97.51   11.46
  -5  -3 -14  144.21   11.87
   5   3  14  171.42   12.63
  -5  -3 -14  158.78   14.03
  -5  -3 -15    7.58    7.90
   5   3  15    6.54    7.22
  -5  -3 -15    6.63    9.20
  -5  -3 -16    1.26    7.35
   5   3  16   14.39    7.85
  -5  -3 -16    3.43    9.70
  -5  -3 -17   -8.48    7.90
   5   3  17   -0.90    7.13
  -5  -3 -17    5.78    9.52
  -5  -3 -18   98.59   12.18
   5   3  18  104.86   10.20
  -5  -3 -18   97.10   13.36
  -5  -4  13    5.28    8.80
   5   4 -13   12.59    9.97
  -5  -4  13   -4.24   11.42
   5   4 -13    8.08    9.84
  -5  -4  12   12.95    9.25
   5   4 -12   11.96    9.30
  -5  -4  12    4.15   11.60
   5   4 -12    5.32    9.39
  -5  -4  11   25.90   10.06
   5   4 -11   31.63    9.39
  -5  -4  11   26.17   11.15
   5   4 -11   27.43    9.57
  -5  -4  10    6.09    8.98
   5   4 -10   -3.29    8.80
  -5  -4  10    9.07   11.05
   5   4 -10    6.68    8.98
  -5  -4   9  303.35   17.64
   5   4  -9  321.18   18.86
  -5  -4   9  306.11   20.53
   5   4  -9  273.53   18.82
  -5  -4   8   34.29    8.35
   5   4  -8   25.09    8.39
  -5  -4   8   19.04    9.70
   5   4  -8   22.56    8.75
  -5  -4   7  130.49   11.96
   5   4  -7  152.02   12.05
  -5  -4   7  127.47   13.49
   5   4  -7  162.80   14.03
  -5  -4   6  649.30   31.90
   5   4  -6  618.62   30.23
  -5  -4   6  585.68   33.12
   5   4  -6  567.63   32.04
  -5  -4   5  231.70   14.66
   5   4  -5  205.30   13.09
  -5  -4   5  268.88   18.59
   5   4  -5  224.84   15.79
  -5  -4   4  307.01   16.83
   5   4  -4  322.31   17.37
  -5  -4   4  304.48   19.31
   5   4  -4  293.29   18.59
  -5  -4   3   46.30    6.90
   5   4  -3   41.65    6.45
  -5  -4   3   47.78    8.53
   5   4  -3   83.88    9.61
  -5  -4   2   67.77    6.95
   5   4  -2   97.24    7.94
  -5  -4   2   85.96   10.38
   5   4  -2   82.12    9.07
  -5  -4   1  158.65   10.15
   5   4  -1  160.18   10.11
  -5  -4   1  166.77   12.36
   5   4  -1  166.23   12.23
  -5  -4   0 3166.20  136.76
   5   4   0 3170.71  136.85
  -5  -4   0 3052.49  152.51
  -5  -4  -1  175.12   10.69
  -5  -4  -1  187.48   13.54
  -5  -4  -2 1049.08   46.79
  -5  -4  -3   37.54    5.87
  -5  -4  -4  928.61   42.01
  -5  -4  -5   -0.36    6.32
  -5  -4  -6    2.12    5.96
   5   4   6   -3.97    6.09
  -5  -4  -7   90.15    9.11
   5   4   7   90.56    8.66
  -5  -4  -7   96.70    9.75
  -5  -4  -8    5.23    6.45
   5   4   8   11.05    6.63
  -5  -4  -8   10.24    8.44
  -5  -4  -9   57.85    8.84
   5   4   9   69.13    8.17
  -5  -4  -9   68.27   10.33
  -5  -4 -10  100.44   10.11
   5   4  10   79.46    9.20
  -5  -4 -10  117.18   12.68
  -5  -4 -11  676.83   32.71
   5   4  11  638.47   31.31
  -5  -4 -11  655.62   37.00
  -5  -4 -12   17.91    7.94
   5   4  12   21.52    7.81
  -5  -4 -12    9.61    8.39
  -5  -4 -13  323.66   18.23
   5   4  13  357.27   19.67
  -5  -4 -13  381.46   23.73
  -5  -4 -14   10.60    7.35
   5   4  14    2.48    6.41
  -5  -4 -14    6.05    9.48
  -5  -4 -15    0.09    7.35
   5   4  15    5.32    7.22
  -5  -4 -15    2.39    8.71
  -5  -4 -16    5.32    6.81
   5   4  16    7.26    7.72
  -5  -4 -16   12.86    9.48
  -5  -4 -17  116.55   10.74
   5   4  17  121.56   10.78
  -5  -4 -17  118.63   13.00
  -5  -4 -18   53.02   11.01
   5   4  18   38.13    8.62
  -5  -4 -18   48.15   11.64
  -5  -5  12   -2.17    9.79
   5   5 -12  -10.83    9.70
  -5  -5  12   -9.30   11.42
   5   5 -12    2.98    9.93
  -5  -5  11   29.28   10.69
   5   5 -11   35.56    9.39
  -5  -5  11   28.16   11.91
   5   5 -11   18.82    9.30
  -5  -5  10  151.70   13.63
   5   5 -10  218.25   15.30
  -5  -5  10  208.01   16.06
   5   5 -10  221.55   16.15
  -5  -5   9   -5.73    8.75
   5   5  -9    7.76    8.21
  -5  -5   9   16.56    9.84
   5   5  -9    0.59    8.53
  -5  -5   8  110.05   11.05
   5   5  -8   91.82   10.15
  -5  -5   8  109.47   13.09
   5   5  -8  141.91   13.00
  -5  -5   7  501.30   25.04
   5   5  -7  545.52   27.12
  -5  -5   7  543.72   31.86
   5   5  -7  524.77   29.87
  -5  -5   6   44.81    8.30
   5   5  -6   75.89    9.30
  -5  -5   6   51.66   11.10
   5   5  -6   79.10   10.78
  -5  -5   5  252.05   15.16
   5   5  -5  234.77   14.48
  -5  -5   5  210.49   15.84
   5   5  -5  240.68   16.74
  -5  -5   4   22.20    6.72
   5   5  -4   18.68    6.54
  -5  -5   4   17.42    8.66
   5   5  -4   34.92    8.57
  -5  -5   3  321.63   17.55
   5   5  -3  322.31   17.01
  -5  -5   3  344.78   21.21
   5   5  -3  336.47   20.80
  -5  -5   2   11.87    5.64
   5   5  -2    4.60    5.14
  -5  -5   2    9.84    7.54
   5   5  -2   10.83    7.08
  -5  -5   1 2618.42  113.44
   5   5  -1 2571.49  111.36
  -5  -5   1 2559.76  128.73
  -5  -5   0  454.83   21.48
  -5  -5   0  487.32   27.75
  -5  -5  -1 1204.30   52.79
  -5  -5  -1 1241.75   64.21
  -5  -5  -2  400.46   18.95
  -5  -5  -2  360.61   21.61
  -5  -5  -3  361.83   17.60
  -5  -5  -4   29.19    5.46
  -5  -5  -5   69.04    7.26
  -5  -5  -6  119.62    9.88
   5   5   6  127.88    9.43
  -5  -5  -7   -5.37    6.23
   5   5   7   -8.26    6.45
  -5  -5  -8  336.88   18.91
   5   5   8  343.65   18.55
  -5  -5  -8  318.06   20.80
  -5  -5  -9   92.91    9.43
   5   5   9   86.77    9.07
  -5  -5  -9  100.71   11.37
  -5  -5 -10  462.95   24.23
   5   5  10  490.02   24.82
  -5  -5 -10  464.30   27.16
  -5  -5 -11   15.21    7.67
   5   5  11   15.79    7.63
  -5  -5 -11    6.99    8.93
  -5  -5 -12  164.88   12.63
   5   5  12  151.65   11.91
  -5  -5 -12  182.52   15.16
  -5  -5 -13   95.34   10.51
   5   5  13  133.15   11.64
  -5  -5 -13  121.87   13.22
  -5  -5 -14   17.46    8.62
   5   5  14   15.34    7.45
  -5  -5 -14   16.79    8.89
  -5  -5 -15   15.16    8.75
   5   5  15   23.42    7.45
  -5  -5 -15   10.51    9.93
  -5  -5 -16   22.97    8.98
   5   5  16    7.90    7.35
  -5  -5 -16   24.95   10.83
  -5  -5 -17   60.51    9.70
   5   5  17   59.52    9.52
  -5  -5 -17   65.16   10.42
  -5  -6  12   14.85   10.38
   5   6 -12   15.57    9.39
  -5  -6  12   24.23   12.32
   5   6 -12   16.02    9.88
  -5  -6  11   -3.16    9.39
   5   6 -11   -2.30    9.20
  -5  -6  11  -14.08   10.15
   5   6 -11   14.35    9.20
  -5  -6  10   49.95   10.60
   5   6 -10   26.49    9.16
  -5  -6  10   34.74   11.64
   5   6 -10   34.43    9.48
  -5  -6   9   -2.66    9.43
   5   6  -9   14.57    8.48
  -5  -6   9    5.37    9.93
   5   6  -9   -2.80    8.93
  -5  -6   8   85.19    9.70
   5   6  -8   81.26    9.79
  -5  -6   8  119.71   13.45
   5   6  -8   80.00   10.87
  -5  -6   7    6.00    8.39
   5   6  -7    0.54    7.85
  -5  -6   7    1.67    9.52
   5   6  -7   -5.82    8.84
  -5  -6   6  174.08   13.04
   5   6  -6  168.30   11.96
  -5  -6   6  152.20   14.57
   5   6  -6  179.09   14.85
  -5  -6   5    0.09    7.49
   5   6  -5    9.16    6.72
  -5  -6   5    7.08    9.02
   5   6  -5    6.23    9.02
  -5  -6   4    2.98    5.46
   5   6  -4    6.90    6.14
  -5  -6   4   16.29    8.98
   5   6  -4   -6.72    7.58
  -5  -6   3  121.51    8.80
   5   6  -3  121.02    8.75
  -5  -6   3  161.22   13.67
   5   6  -3  138.84   12.18
  -5  -6   2  659.23   30.50
   5   6  -2  668.71   30.73
  -5  -6   2  676.38   37.09
   5   6  -2  730.52   39.39
  -5  -6   1 1378.02   60.96
   5   6  -1 1343.73   59.15
  -5  -6   1 1326.58   68.36
  -5  -6   0  945.30   42.28
  -5  -6   0  917.78   48.37
  -5  -6  -1 1091.50   48.15
  -5  -6  -1 1147.90   59.61
  -5  -6  -2    4.96    3.93
  -5  -6  -2    3.88    3.97
  -5  -6  -2   -4.38    7.13
  -5  -6  -3  610.95   27.98
  -5  -6  -3  644.34   29.19
  -5  -6  -4    1.44    5.01
  -5  -6  -5   -4.65    5.46
  -5  -6  -6  234.50   13.27
   5   6   6  221.32   12.86
  -5  -6  -7  550.49   26.94
   5   6   7  548.23   26.44
  -5  -6  -8  253.63   14.75
   5   6   8  274.43   15.66
  -5  -6  -9  765.27   36.10
   5   6   9  792.79   37.09
  -5  -6  -9  774.74   41.83
  -5  -6 -10  289.91   16.97
   5   6  10  237.16   14.53
  -5  -6 -10  238.65   17.01
  -5  -6 -11  261.57   16.15
   5   6  11  263.74   16.15
  -5  -6 -11  252.10   17.60
  -5  -6 -12  602.38   29.69
   5   6  12  657.43   32.13
  -5  -6 -12  637.12   35.92
  -5  -6 -13   77.65    9.93
   5   6  13   89.52    9.34
  -5  -6 -13   80.36   10.69
  -5  -6 -14    5.69    8.48
   5   6  14   18.73    7.22
  -5  -6 -14    0.54    9.75
  -5  -6 -15   29.65    8.89
   5   6  15   31.09    7.67
  -5  -6 -15   28.43    9.57
  -5  -6 -16    6.18    7.99
   5   6  16   18.14    8.03
  -5  -6 -16   13.31    9.84
  -5  -6 -17   27.80    9.66
   5   6  17    9.48    8.03
  -5  -6 -17   24.64   10.69
  -5  -7  12   11.87   12.09
  -5  -7  12   -3.70   12.00
   5   7 -12   22.20   10.11
  -5  -7  11   17.64   10.92
   5   7 -11   47.42   10.29
  -5  -7  11   50.63   11.73
   5   7 -11   43.63   10.51
  -5  -7  10   -8.80    9.39
   5   7 -10   -8.39    8.08
  -5  -7  10    2.35    9.84
   5   7 -10   -2.44    8.62
  -5  -7   9   46.61    9.88
   5   7  -9   48.91   10.06
  -5  -7   9   58.43   10.83
   5   7  -9   51.98    9.88
  -5  -7   8   70.25    9.88
   5   7  -8   33.93    8.62
  -5  -7   8   41.51   10.56
   5   7  -8   48.28   10.33
  -5  -7   7  138.89   11.37
   5   7  -7  131.80   11.15
  -5  -7   7  119.57   13.13
   5   7  -7  123.18   12.45
  -5  -7   6   49.14    7.90
   5   7  -6   38.90    8.12
  -5  -7   6   35.51   10.33
   5   7  -6   49.18    9.70
  -5  -7   5   30.82    8.03
   5   7  -5   17.78    6.77
  -5  -7   5   18.59    9.70
   5   7  -5   17.91    9.11
  -5  -7   4   81.35    8.44
   5   7  -4   66.55    7.40
  -5  -7   4   97.51   11.82
   5   7  -4   92.05   11.33
  -5  -7   3   17.33    5.64
   5   7  -3   -3.38    5.14
  -5  -7   3   -4.69    9.39
   5   7  -3    9.25    7.67
  -5  -7   2  407.95   19.49
   5   7  -2  440.39   21.21
  -5  -7   2  427.17   25.27
   5   7  -2  409.16   23.78
  -5  -7   1   14.80    4.65
   5   7  -1    9.11    3.97
  -5  -7   1   20.17    8.17
  -5  -7   0 1970.47   85.37
  -5  -7   0 1982.20  100.58
  -5  -7  -1  111.63    7.26
  -5  -7  -1  105.27   10.87
  -5  -7  -2  610.50   27.70
  -5  -7  -2  597.41   27.12
  -5  -7  -2  617.72   34.11
  -5  -7  -3   71.20    5.96
  -5  -7  -3   74.45    6.05
  -5  -7  -4  265.68   13.67
  -5  -7  -5  268.34   14.48
  -5  -7  -6  347.75   18.05
   5   7   6  377.40   18.95
  -5  -7  -7    8.35    5.73
   5   7   7    4.92    5.50
  -5  -7  -8  403.16   20.94
   5   7   8  368.46   19.49
  -5  -7  -9  193.26   12.86
   5   7   9  230.39   13.90
  -5  -7  -9  205.30   15.61
  -5  -7 -10   27.16    8.26
   5   7  10   37.14    7.67
  -5  -7 -10   34.29    9.88
  -5  -7 -11 1558.51   69.67
   5   7  11 1498.05   67.37
  -5  -7 -11 1445.70   74.41
  -5  -7 -12   13.22    8.39
   5   7  12    1.08    6.54
  -5  -7 -12    9.30    8.75
  -5  -7 -13  163.70   12.50
   5   7  13  155.08   11.51
  -5  -7 -13  155.44   14.48
  -5  -7 -14  108.25   11.01
   5   7  14  126.61   10.92
  -5  -7 -14  115.51   12.18
  -5  -7 -15  -13.54    8.03
   5   7  15   -1.58    7.04
  -5  -7 -15  -13.72    9.52
  -5  -7 -16    8.17    8.57
   5   7  16   15.75    7.94
  -5  -7 -16   24.32    9.66
  -5  -7 -17   27.84    9.02
   5   7  17   14.94    8.89
  -5  -7 -17    8.71    9.70
  -5  -8  11    7.49   11.15
   5   8 -11    1.04   10.33
  -5  -8  11   -8.84   10.69
   5   8 -11   -8.89   10.02
  -5  -8  10   14.66   10.29
   5   8 -10    2.08    8.89
  -5  -8  10   24.05    9.97
   5   8 -10   35.83    9.52
  -5  -8   9   41.20   10.24
   5   8  -9   52.48    8.84
  -5  -8   9   43.45   11.01
   5   8  -9   36.01    9.88
  -5  -8   8   63.98    9.84
   5   8  -8   86.81    9.75
  -5  -8   8   78.38   10.87
   5   8  -8   66.87   10.11
  -5  -8   7  156.98   12.09
   5   8  -7  202.60   13.40
  -5  -8   7  205.35   16.42
   5   8  -7  177.87   13.81
  -5  -8   6   77.74    9.48
   5   8  -6   58.43    8.26
  -5  -8   6   55.45   10.56
   5   8  -6   51.62    9.66
  -5  -8   5  407.00   20.67
   5   8  -5  348.12   18.59
  -5  -8   5  330.20   21.75
   5   8  -5  351.54   22.11
  -5  -8   4   -0.23    5.69
   5   8  -4    1.08    5.82
  -5  -8   4   -4.51    8.75
   5   8  -4  -10.33    8.48
  -5  -8   3  255.93   14.62
   5   8  -3  269.15   14.30
  -5  -8   3  235.49   16.51
   5   8  -3  279.08   18.73
  -5  -8   2   54.19    6.36
   5   8  -2   65.74    6.32
  -5  -8   2   47.24    9.57
  -5  -8   1  996.74   44.13
  -5  -8   1  946.66   50.27
  -5  -8   0  715.63   31.72
  -5  -8   0  724.66   39.39
  -5  -8  -1  861.83   37.90
  -5  -8  -1  785.12   34.56
  -5  -8  -1  871.30   46.52
  -5  -8  -2  757.60   33.53
  -5  -8  -2  743.61   32.80
  -5  -8  -2  760.75   41.29
  -5  -8  -3    5.05    4.02
  -5  -8  -3   -0.86    3.25
  -5  -8  -3   -5.14    7.72
  -5  -8  -4  809.49   36.50
  -5  -8  -5   56.81    5.91
  -5  -8  -6  450.32   21.84
  -5  -8  -7  151.65   10.51
   5   8   7  178.64   11.24
  -5  -8  -8  120.29    9.70
   5   8   8  106.49    9.07
  -5  -8  -9  201.88   13.54
   5   8   9  184.82   12.45
  -5  -8 -10  804.97   37.90
   5   8  10  764.36   36.05
  -5  -8 -10  751.28   40.61
  -5  -8 -11  132.25   10.87
   5   8  11  129.23   11.28
  -5  -8 -11  132.52   12.63
  -5  -8 -12   60.64    9.34
   5   8  12   40.75    8.08
  -5  -8 -12   55.36   10.60
  -5  -8 -13  223.04   14.39
   5   8  13  191.36   13.18
  -5  -8 -13  249.66   17.46
  -5  -8 -14   -8.03    7.63
   5   8  14   13.27    7.40
  -5  -8 -14   -2.35    9.30
  -5  -8 -15   -3.47    8.62
   5   8  15   -0.86    7.22
  -5  -8 -15    9.34    9.48
  -5  -8 -16   12.90    8.39
   5   8  16   10.78    6.86
  -5  -8 -16    0.54    9.25
  -5  -8 -17  183.92   13.31
   5   8  17  171.78   13.04
  -5  -8 -17  168.17   14.57
  -5  -9  10  146.47   15.21
   5   9 -10  151.02   14.08
  -5  -9  10  166.14   14.66
   5   9 -10  173.31   14.08
  -5  -9   9   16.15   10.33
   5   9  -9    2.44    8.35
  -5  -9   9   15.97    9.02
   5   9  -9    3.70    9.07
  -5  -9   8   76.89   10.24
   5   9  -8   73.95    9.25
  -5  -9   8   85.05   11.73
   5   9  -8   89.21   11.91
  -5  -9   7  159.37   12.41
   5   9  -7  157.20   12.05
  -5  -9   7  160.54   13.63
   5   9  -7  149.99   12.00
  -5  -9   6  342.38   18.86
   5   9  -6  365.22   19.13
  -5  -9   6  357.05   22.74
   5   9  -6  357.32   22.06
  -5  -9   5    8.53    6.54
   5   9  -5   11.78    6.14
  -5  -9   5   14.17    9.57
   5   9  -5   21.03    8.93
  -5  -9   4   10.06    6.68
   5   9  -4   12.18    5.91
  -5  -9   4   -0.68    8.93
   5   9  -4    6.77    9.16
  -5  -9   3  284.04   14.85
   5   9  -3  269.51   14.21
  -5  -9   3  233.14   16.70
   5   9  -3  254.62   17.42
  -5  -9   2   14.80    4.29
  -5  -9   2   20.08    8.44
  -5  -9   1  123.00    7.72
  -5  -9   1  128.87   12.18
  -5  -9   0    5.37    2.80
  -5  -9   0    3.02    3.29
  -5  -9   0   -4.65    7.49
  -5  -9  -1   10.74    2.89
  -5  -9  -1    6.27    2.93
  -5  -9  -1   17.19    8.35
  -5  -9  -2   34.20    3.65
  -5  -9  -2   31.95    3.47
  -5  -9  -2   40.02    9.16
  -5  -9  -3  366.25   17.06
  -5  -9  -3  403.61   18.45
  -5  -9  -3  406.64   24.23
  -5  -9  -4    5.10    3.56
  -5  -9  -4   14.57    4.02
  -5  -9  -4    3.07    7.13
  -5  -9  -5   13.00    4.78
  -5  -9  -6    6.77    5.01
  -5  -9  -7    1.53    5.91
   5   9   7    4.96    5.73
  -5  -9  -8  363.32   19.04
   5   9   8  386.74   19.76
  -5  -9  -9  292.93   16.47
   5   9   9  305.52   16.74
  -5  -9 -10  334.98   18.41
   5   9  10  277.41   15.97
  -5  -9 -10  313.24   20.35
  -5  -9 -11   22.56    8.17
   5   9  11   38.49    7.67
  -5  -9 -11   34.79    9.25
  -5  -9 -12  287.25   16.65
   5   9  12  306.65   17.19
  -5  -9 -12  308.90   20.08
  -5  -9 -13   -6.63    7.35
   5   9  13    0.59    6.54
  -5  -9 -13    0.36    8.57
  -5  -9 -14   -2.12    7.35
   5   9  14    7.54    6.90
  -5  -9 -14    3.34    9.61
  -5  -9 -15   15.34    8.71
   5   9  15   20.85    7.35
  -5  -9 -15    7.67    9.25
  -5  -9 -16   11.78    8.44
   5   9  16   -3.07    7.04
  -5  -9 -16    7.08    9.52
  -5 -10  10   17.73   11.51
   5  10 -10    4.51   11.24
  -5 -10  10    9.43   10.24
   5  10 -10   21.30    8.93
  -5 -10   9   46.66   11.42
   5  10  -9   44.04   10.29
  -5 -10   9   29.74   10.51
   5  10  -9   45.21    9.43
  -5 -10   8  107.84   11.73
   5  10  -8   77.52   10.56
  -5 -10   8   87.63   10.47
   5  10  -8   85.33   10.78
  -5 -10   7   58.03   10.29
   5  10  -7   78.83   10.24
  -5 -10   7   70.71   11.24
   5  10  -7   82.08   10.11
  -5 -10   6    4.69    7.40
   5  10  -6   -8.57    7.35
  -5 -10   6    2.08    9.02
   5  10  -6    6.68    7.90
  -5 -10   5   81.40    8.48
   5  10  -5  115.29    8.98
  -5 -10   5  104.55   11.69
   5  10  -5  126.52   12.18
  -5 -10   4   55.82    6.99
   5  10  -4   68.36    7.04
  -5 -10   4   72.69   11.46
   5  10  -4   56.40    9.97
  -5 -10   3   13.58    5.28
  -5 -10   3    2.30    8.62
  -5 -10   2  614.11   27.66
  -5 -10   2  625.84   34.74
  -5 -10   1   17.19    8.71
  -5 -10   0  686.75   37.95
  -5 -10  -1  132.21   12.00
  -5 -10  -2  199.48   14.66
  -5 -10  -3   35.29    8.57
  -5 -10  -4   50.49    4.60
  -5 -10  -4   61.55    5.01
  -5 -10  -4   69.58    9.66
  -5 -10  -5   -5.78    4.96
  -5 -10  -6   11.10    5.32
  -5 -10  -7  228.32   12.72
  -5 -10  -8   96.34    8.75
   5  10   8   72.51    8.08
  -5 -10  -9  439.80   22.15
   5  10   9  405.10   21.07
  -5 -10 -10   10.29    7.58
   5  10  10   17.82    6.86
  -5 -10 -10   18.82    8.30
  -5 -10 -11  150.08   11.37
   5  10  11  161.54   11.82
  -5 -10 -11  152.65   12.54
  -5 -10 -12   17.73    7.67
   5  10  12   15.66    7.31
  -5 -10 -12    2.66    8.75
  -5 -10 -13   13.45    8.12
   5  10  13   16.74    7.49
  -5 -10 -13   20.53    9.34
  -5 -10 -14   59.43    9.34
   5  10  14   53.20    8.44
  -5 -10 -14   43.36    9.75
  -5 -10 -15   48.15    9.79
   5  10  15   42.87    8.17
  -5 -10 -15   44.58   11.01
  -5 -10 -16   10.06   10.60
   5  10  16   10.60    8.03
  -5 -10 -16    8.17    9.97
  -5 -11   9   -9.75   12.05
   5  11  -9    4.74   11.69
  -5 -11   9   -1.62   11.33
   5  11  -9    0.32    8.44
  -5 -11   8   14.08   10.51
   5  11  -8   17.64   10.74
  -5 -11   8    7.72    9.88
   5  11  -8   10.51    8.66
  -5 -11   7    8.12    8.98
   5  11  -7   20.40    9.48
  -5 -11   7   27.12    9.11
   5  11  -7   10.06    7.85
  -5 -11   6   -2.98    7.31
   5  11  -6   -8.44    7.49
  -5 -11   6    1.80    8.75
   5  11  -6    8.71    8.48
  -5 -11   5   -3.07    6.27
   5  11  -5   -3.79    6.68
  -5 -11   5   -5.69    9.02
   5  11  -5    6.36    7.63
  -5 -11   4    3.25    5.46
  -5 -11   4   -5.28    8.57
  -5 -11   3   35.56    4.24
  -5 -11   3   51.57    9.66
  -5 -11   2  353.89   21.93
  -5 -11   1  377.26   22.83
  -5 -11   0  105.49   10.96
  -5 -11  -1  281.61   18.32
  -5 -11  -2  171.69   13.45
  -5 -11  -3    4.24    7.26
  -5 -11  -4   95.03   10.42
  -5 -11  -5   -7.08    3.38
  -5 -11  -5   -0.95    3.84
  -5 -11  -5    5.73    8.17
  -5 -11  -6  650.21   29.65
  -5 -11  -7   10.11    5.91
  -5 -11  -8  286.39   15.70
   5  11   8  286.25   15.57
  -5 -11  -9   99.13    9.07
   5  11   9   72.74    8.26
  -5 -11 -10  149.80   11.55
   5  11  10  156.89   11.42
  -5 -11 -11  175.43   12.81
   5  11  11  191.63   13.04
  -5 -11 -11  197.05   14.57
  -5 -11 -12    4.47    7.90
   5  11  12   -3.16    7.13
  -5 -11 -12   -1.76    8.53
  -5 -11 -13    5.28    8.48
   5  11  13   19.09    7.76
  -5 -11 -13    4.29    9.70
  -5 -11 -14   13.90    8.57
   5  11  14    2.98    7.49
  -5 -11 -14    0.32    9.34
  -5 -11 -15   10.92   10.02
   5  11  15   20.58    7.67
  -5 -11 -15   11.33    9.57
  -5 -12   8   35.83   10.83
   5  12  -8   51.84   11.46
  -5 -12   8   64.43   11.78
   5  12  -8   87.31    9.61
  -5 -12   7   -3.34    9.16
   5  12  -7    4.96   10.56
  -5 -12   7    6.41    8.93
   5  12  -7   11.51    8.62
  -5 -12   6   12.32    7.22
   5  12  -6    8.62    8.98
  -5 -12   6   10.78    9.30
   5  12  -6   -2.57    6.59
  -5 -12   5   10.69    5.46
  -5 -12   5   -0.68    8.21
  -5 -12   4   12.72    9.11
  -5 -12   3  270.55   18.00
  -5 -12   2   83.52   10.47
  -5 -12   1  693.07   37.86
  -5 -12   0    1.62    8.21
  -5 -12  -1  349.06   21.52
  -5 -12  -2   -1.17    8.57
  -5 -12  -3   50.85    8.98
  -5 -12  -4   71.83    9.52
  -5 -12  -5   -6.23    7.40
  -5 -12  -6   31.50    5.10
  -5 -12  -6   28.65    8.98
  -5 -12  -7  145.16    9.43
  -5 -12  -8  126.25    9.70
  -5 -12  -9   83.43    9.07
   5  12   9   63.76    7.99
  -5 -12 -10  195.24   13.13
   5  12  10  207.52   13.27
  -5 -12 -11    5.19    7.99
   5  12  11    8.89    7.45
  -5 -12 -11   23.10    7.94
  -5 -12 -12   18.50    8.39
   5  12  12   17.96    7.40
  -5 -12 -12   34.07    9.30
  -5 -12 -13   60.46    9.70
   5  12  13   43.45    9.66
  -5 -12 -13   61.55   10.60
  -5 -12 -14   -6.90    9.11
   5  12  14  -19.90    7.99
  -5 -12 -14  -14.71    9.34
  -5 -12 -15   28.47   10.56
   5  12  15   36.73   11.10
  -5 -12 -15   43.41   11.60
  -5 -13   7    7.08    7.54
  -5 -13   7   14.35    9.70
  -5 -13   6    4.78    9.11
  -5 -13   5    7.17    9.79
  -5 -13   4   75.26   10.92
  -5 -13   3  -10.65    8.62
  -5 -13   2  193.66   14.98
  -5 -13   1  296.68   19.09
  -5 -13   0  343.56   21.34
  -5 -13  -1  267.30   18.18
  -5 -13  -2    9.88    7.81
  -5 -13  -3  311.66   19.76
  -5 -13  -4   19.31    7.40
  -5 -13  -5   63.13    9.20
  -5 -13  -6    6.05    7.45
  -5 -13  -7  492.73   22.97
  -5 -13  -7  514.39   29.06
  -5 -13  -8   -3.38    6.36
  -5 -13  -9  572.14   27.57
  -5 -13 -10   20.26    8.53
   5  13  10   37.14    7.76
  -5 -13 -11  -12.18    8.35
   5  13  11    7.13    8.03
  -5 -13 -11   -0.41    7.63
  -5 -13 -12  111.23   12.14
   5  13  12  157.02   12.90
  -5 -13 -12  132.57   12.41
  -5 -13 -13   28.16    9.57
   5  13  13   29.33    9.20
  -5 -13 -13   44.45   10.69
  -5 -13 -14   27.48   10.83
   5  13  14   21.16   10.11
  -5 -13 -14   -6.86   10.06
  -5 -14   6    4.20    9.75
  -5 -14   5    2.98    9.48
  -5 -14   4   10.24    9.30
  -5 -14   3   28.56    9.75
  -5 -14   2  175.25   14.71
  -5 -14   1   84.38   11.42
  -5 -14   0   34.47    9.20
  -5 -14  -1   -0.81    9.25
  -5 -14  -2  309.85   19.99
  -5 -14  -3    3.29    7.54
  -5 -14  -4   16.06    7.40
  -5 -14  -5    4.02    6.72
  -5 -14  -6  250.56   16.83
  -5 -14  -7  104.68   10.56
  -5 -14  -8  351.32   17.82
  -5 -14  -8  397.30   23.37
  -5 -14  -9   62.18    8.53
  -5 -14 -10   38.62    8.89
  -5 -14 -11  100.17   12.18
   5  14  11   93.58   11.01
  -5 -14 -11  110.59   11.46
  -5 -14 -12  -10.56   11.24
   5  14  12   -0.36    9.07
  -5 -14 -12   13.31    8.17
  -5 -14 -13    3.70   11.82
   5  14  13   -5.55   10.02
  -5 -14 -13    8.30    8.93
  -5 -15   4   -5.55    9.70
  -5 -15   3   -3.16    8.62
  -5 -15   2   -4.24    8.44
  -5 -15   1   47.87    9.52
  -5 -15   0   12.09    9.30
  -5 -15  -1   34.65    9.43
  -5 -15  -2   -9.66    8.66
  -5 -15  -3    8.48    8.08
  -5 -15  -4    9.39    7.99
  -5 -15  -5    5.41    8.66
  -5 -15  -6  185.36   14.26
  -5 -15  -7  129.59   12.54
  -5 -15  -8  226.24   16.06
  -5 -15  -9   14.03    7.67
  -5 -15  -9    5.01    8.98
  -5 -15 -10  171.15   13.31
  -5 -15 -11   25.76   12.27
  -5 -15 -11   -0.99    8.71
  -5 -15 -12   18.95   15.30
  -5 -15 -12   39.30    9.79
  -5 -16   3   -3.02   11.05
  -5 -16   2   87.40   11.05
  -5 -16   1   70.89   10.65
  -5 -16   0   14.89    8.98
  -5 -16  -1  159.64   13.90
  -5 -16  -2   35.96    9.07
  -5 -16  -3   -7.22    8.62
  -5 -16  -4    4.83    8.66
  -5 -16  -5    6.45    9.11
  -5 -16  -6   19.31    8.57
  -5 -16  -7  397.84   23.82
  -5 -16  -8   -3.02    8.30
  -5 -16  -9   40.97    8.35
  -5 -16 -10   90.38   12.05
  -5 -16 -10   87.99   10.11
  -5 -17   0   82.26   11.28
  -5 -17  -1    6.68    8.80
  -5 -17  -2   60.82   10.87
  -5 -17  -3   26.85    9.79
  -5 -17  -4   12.45    9.16
  -5 -17  -5   85.24   10.42
  -5 -17  -6  233.05   16.38
  -5 -17  -7   29.78   10.15
  -6  16   2    4.06   10.06
  -6  16   2    9.11   10.78
  -6  16   1  304.17   18.18
  -6  16   1  296.45   19.13
   6 -16  -1  288.01   19.09
   6 -16  -1  292.16   20.62
  -6  16   0    6.63    9.79
  -6  16   0    3.02   10.83
   6 -16   0   -4.69   14.48
  -6  16  -1   34.47    9.88
  -6  16  -1   33.03   10.83
   6 -16   1   23.24   13.67
  -6  16  -2   22.79    9.30
  -6  16  -2   34.16   10.47
   6 -16   2   17.24   12.81
  -6  16  -3   12.50    8.93
  -6  16  -3   21.03    9.57
   6 -16   3   19.27   15.48
  -6  16  -4    6.68    8.66
  -6  16  -4    6.59    9.43
   6 -16   4   -0.81   17.33
  -6  15   5    7.63   10.42
  -6  15   4   19.90   10.20
  -6  15   3   64.84    9.88
  -6  15   2  184.28   13.40
  -6  15   1    0.41    8.35
  -6  15   1    6.63    8.75
   6 -15  -1    7.99    8.62
   6 -15  -1    2.39    9.88
  -6  15   0    6.99    8.57
  -6  15   0   14.21    9.16
   6 -15   0    3.52   10.69
  -6  15  -1   -0.68    8.35
  -6  15  -1   -3.88    8.80
   6 -15   1    6.27   11.82
  -6  15  -2   29.01    9.02
  -6  15  -2   13.13    9.61
   6 -15   2   -7.40   12.14
  -6  15  -3    4.33    9.20
  -6  15  -3    3.84    8.93
   6 -15   3   -2.93   13.49
  -6  15  -4   20.17    9.11
  -6  15  -4   18.95    9.66
   6 -15   4   30.46   13.94
  -6  15  -5   39.48    9.79
  -6  15  -5   16.47    9.39
   6 -15   5   20.03   13.49
  -6  15  -6   13.81    9.84
  -6  15  -6    0.63   10.42
   6 -15   6   39.17   16.02
  -6  15  -7   57.08   11.28
  -6  15  -7   67.73   13.85
   6 -15   7   37.81   18.00
  -6  14   7  107.34   12.18
   6 -14  -7  105.09   10.56
  -6  14   6  -10.96    9.43
   6 -14  -6   -4.29    7.99
  -6  14   5   19.45    9.16
  -6  14   4  246.05   15.75
  -6  14   3  161.13   12.41
  -6  14   2   45.84    8.80
  -6  14   1  106.22   10.24
   6 -14  -1   97.37    9.52
   6 -14  -1  114.97   10.69
  -6  14   0   47.42    8.44
  -6  14   0   53.56    8.44
   6 -14   0   40.97    9.66
  -6  14  -1   21.70    8.21
  -6  14  -1   21.48    8.12
   6 -14   1   17.60   10.11
  -6  14  -2   10.83    7.63
  -6  14  -2   10.74    7.45
   6 -14   2    6.41   10.65
  -6  14  -3   -1.31    7.85
  -6  14  -3    5.69    7.08
   6 -14   3   -5.50   11.82
  -6  14  -4   70.53    9.20
  -6  14  -4   86.27    9.16
   6 -14   4   84.56   14.39
  -6  14  -5   34.52    8.35
  -6  14  -5   54.15    8.98
   6 -14   5   18.64   13.13
  -6  14  -6  347.17   19.13
  -6  14  -6  327.49   18.45
   6 -14   6  325.55   23.69
  -6  14  -7   58.93   10.06
  -6  14  -7   72.96   10.47
   6 -14   7   52.97   15.61
  -6  14  -8   40.56    9.84
  -6  14  -8   53.38   11.51
  -6  14  -8   28.29   10.51
   6 -14   8   41.33   15.61
  -6  14  -9   16.42   11.96
  -6  14  -9   28.97   10.47
  -6  13   8   -2.03    9.11
   6 -13  -8   -5.28    9.11
  -6  13   7    9.48    8.80
   6 -13  -7   12.05    7.99
  -6  13   6   -4.87    9.34
   6 -13  -6    2.98    7.81
  -6  13   5   29.19    8.48
   6 -13  -5   24.19    8.26
  -6  13   4   43.86    8.98
  -6  13   3   22.47    8.08
  -6  13   2   36.37    8.48
  -6  13   1  612.75   29.42
   6 -13  -1  654.27   34.11
   6 -13  -1  697.13   36.37
  -6  13   0    1.94    6.95
   6 -13   0   15.97    7.17
  -6  13  -1   44.94    7.49
  -6  13  -1   42.10    7.04
   6 -13   1   49.50    8.66
  -6  13  -2    8.57    7.35
  -6  13  -2    7.49    6.41
   6 -13   2   -3.29    9.02
  -6  13  -3    3.79    6.27
  -6  13  -3    7.81    6.95
   6 -13   3    8.66    9.61
  -6  13  -4   91.55    9.39
  -6  13  -4   89.16    9.11
   6 -13   4   73.23   12.18
  -6  13  -5  152.20   11.33
  -6  13  -5  155.40   11.15
   6 -13   5  127.79   14.53
  -6  13  -6  504.46   24.91
  -6  13  -6  509.43   24.95
  -6  13  -6  515.29   29.37
   6 -13   6  578.91   33.57
  -6  13  -7   83.88    9.75
  -6  13  -7   68.40    9.16
  -6  13  -7   63.22   11.51
   6 -13   7   61.28   13.40
  -6  13  -8  171.73   15.03
   6 -13   8  199.21   19.13
  -6  13  -9    4.65    9.16
  -6  13  -9    1.13    9.34
  -6  13  -9   -9.75   11.46
   6 -13   9  -17.19   15.57
  -6  13 -10   14.35   10.47
  -6  13 -10  -10.69    9.48
  -6  13 -10    8.48   11.96
   6 -13  10    7.45   14.98
  -6  12   9    3.02    7.94
   6 -12  -9   11.82    9.88
  -6  12   8   13.18    7.85
   6 -12  -8    5.14    8.30
  -6  12   7   27.57    9.02
   6 -12  -7   24.46    8.30
  -6  12   6   94.30    9.93
   6 -12  -6   92.59    9.52
  -6  12   5   75.99    9.20
   6 -12  -5   72.51    9.07
  -6  12   4  241.63   14.94
   6 -12  -4  251.28   14.98
  -6  12   3    2.48    7.63
  -6  12   2   43.14    7.54
  -6  12   1  138.48   11.01
   6 -12  -1  143.13    9.57
   6 -12  -1  157.02   10.20
  -6  12   0   62.99    8.26
   6 -12   0   56.90    7.04
  -6  12  -1   37.63    6.86
  -6  12  -1   38.22    7.49
   6 -12   1   40.34    7.54
  -6  12  -2   -0.45    6.23
  -6  12  -2   -6.41    6.18
   6 -12   2    0.81    7.26
  -6  12  -3    7.13    6.59
  -6  12  -3   13.54    6.32
   6 -12   3    0.32    9.34
  -6  12  -4   -4.51    6.41
  -6  12  -4   -0.81    6.32
   6 -12   4   13.31   10.06
  -6  12  -5  563.57   27.16
  -6  12  -5  546.88   26.49
  -6  12  -5  577.56   32.13
   6 -12   5  578.46   32.71
  -6  12  -6   -4.78    6.54
  -6  12  -6    5.87    6.45
  -6  12  -6   10.20    8.39
   6 -12   6   -2.44   10.24
  -6  12  -7  725.11   33.89
  -6  12  -7  728.72   33.93
  -6  12  -7  772.94   41.78
   6 -12   7  770.68   42.55
  -6  12  -8    4.78    8.03
  -6  12  -8   19.09    8.35
  -6  12  -8    2.44   10.83
   6 -12   8    3.75   12.27
  -6  12  -9   37.32    9.11
  -6  12  -9   56.58    9.43
  -6  12  -9   33.62   10.96
   6 -12   9   34.74   13.18
  -6  12 -10   43.27    9.48
  -6  12 -10   22.38   11.28
   6 -12  10   37.54   13.76
  -6  12 -11    3.52    8.75
  -6  12 -11    0.77   11.33
   6 -12  11    1.31   13.04
  -6  11  10    0.68    7.58
   6 -11 -10    2.80    9.88
   6 -11 -10    4.29   12.23
  -6  11   9   18.86    7.85
   6 -11  -9   11.51    8.89
   6 -11  -9    7.76   10.42
   6 -11  -9   -1.22   10.11
  -6  11   8   15.43    8.84
   6 -11  -8    5.64    7.99
   6 -11  -8    0.59    7.04
   6 -11  -8    4.11    7.90
  -6  11   7    1.04    8.08
   6 -11  -7    7.67    7.45
  -6  11   6   75.44    9.20
   6 -11  -6   57.62    8.30
  -6  11   5  108.79   10.56
   6 -11  -5  111.45    9.57
  -6  11   4   34.88    8.53
   6 -11  -4   34.07    7.67
  -6  11   3   40.52    7.94
   6 -11  -3   52.57    7.54
  -6  11   2  302.95   17.46
  -6  11   1  221.32   13.85
  -6  11   0   13.94    6.09
   6 -11   0   22.56    5.41
  -6  11  -1   -4.78    6.50
   6 -11   1    2.57    6.05
  -6  11  -2   47.33    7.26
  -6  11  -2   34.43    6.23
   6 -11   2   46.20    7.63
  -6  11  -3   18.27    6.59
  -6  11  -3   24.73    6.54
   6 -11   3   27.89    8.39
  -6  11  -4  284.63   15.48
  -6  11  -4  326.82   17.33
   6 -11   4  326.05   20.40
  -6  11  -5  240.91   14.44
  -6  11  -5  223.94   13.13
  -6  11  -5  224.62   14.94
   6 -11   5  210.85   15.84
  -6  11  -6  231.70   13.90
  -6  11  -6  227.01   13.81
  -6  11  -6  245.64   16.42
   6 -11   6  241.85   18.27
  -6  11  -7  214.78   13.18
  -6  11  -7  239.10   14.30
  -6  11  -7  174.49   14.26
   6 -11   7  206.93   17.01
  -6  11  -8   36.82    7.63
  -6  11  -8   31.22    7.54
  -6  11  -8   42.46   10.74
   6 -11   8   43.27   12.14
  -6  11  -9   36.19    7.90
  -6  11  -9   36.77   10.02
   6 -11   9   55.27   12.63
  -6  11 -10   20.85    7.76
  -6  11 -10    7.63   10.42
   6 -11  10   26.62   12.90
  -6  11 -11    9.07    8.89
  -6  11 -11   21.52   11.64
   6 -11  11    1.08   13.00
  -6  11 -12    6.14    9.20
  -6  11 -12   20.85   11.33
   6 -11  12   -6.09   13.81
  -6  10  10   23.19    8.62
   6 -10 -10   21.12    8.35
   6 -10 -10   24.77   12.72
  -6  10   9   15.57    9.11
   6 -10  -9   13.00    8.03
   6 -10  -9   26.44   10.92
  -6  10   8   19.67    7.67
   6 -10  -8    9.79    7.31
   6 -10  -8    2.12    9.07
  -6  10   7  204.85   13.67
   6 -10  -7  211.98   13.49
   6 -10  -7  201.65   13.27
   6 -10  -7  201.74   12.36
  -6  10   6   13.31    7.72
   6 -10  -6   20.58    7.67
  -6  10   5   51.84    8.62
   6 -10  -5   57.67    8.39
  -6  10   4   -1.31    7.04
   6 -10  -4    5.78    6.81
  -6  10   3  182.38   13.09
   6 -10  -3  210.90   13.67
  -6  10   2    8.84    7.40
  -6  10   1  815.35   37.90
  -6  10   0  283.32   16.20
   6 -10   0  327.09   17.51
  -6  10  -1   81.26    7.99
   6 -10   1   86.54    7.76
  -6  10  -2  184.68   11.82
  -6  10  -2  207.29   12.50
   6 -10   2  182.83   12.50
  -6  10  -3   13.18    5.46
  -6  10  -3   25.27    6.86
   6 -10   3   23.55    7.85
  -6  10  -4  226.42   13.58
  -6  10  -4  243.88   14.53
  -6  10  -4  227.23   15.25
   6 -10   4  241.67   16.47
  -6  10  -5  145.47   12.68
   6 -10   5  135.23   12.77
  -6  10  -6  330.29   17.91
  -6  10  -6  372.39   19.31
  -6  10  -6  331.96   20.44
   6 -10   6  318.92   20.98
  -6  10  -7  123.77   10.15
  -6  10  -7  133.34   10.65
  -6  10  -7  120.84   12.50
   6 -10   7  108.43   13.13
  -6  10  -8   66.92    8.44
  -6  10  -8   77.20   10.92
   6 -10   8   94.03   12.63
  -6  10  -9    0.68    6.72
  -6  10  -9   -3.79    9.39
   6 -10   9   12.36   10.78
  -6  10 -10   35.10    8.44
  -6  10 -10   27.84   11.42
   6 -10  10   14.17   11.60
  -6  10 -11    1.40    8.30
  -6  10 -11   -4.02   11.46
   6 -10  11   -3.29   12.59
  -6  10 -12   42.37    9.52
  -6  10 -12   62.09   12.81
   6 -10  12   33.57   13.45
  -6  10 -13   20.76    8.80
  -6  10 -13    3.29   13.04
   6 -10  13    7.08   13.27
  -6   9  11    0.14    8.44
   6  -9 -11  -11.60    8.80
   6  -9 -11   11.51   11.82
  -6   9  10   43.77    9.07
   6  -9 -10   48.91    8.93
   6  -9 -10   30.46   11.78
  -6   9   9   11.46    8.26
   6  -9  -9    5.01    7.72
   6  -9  -9    6.05   10.92
  -6   9   8   35.29    8.75
   6  -9  -8   23.73    8.21
   6  -9  -8   39.21    9.30
  -6   9   7    6.72    7.58
   6  -9  -7   -7.72    7.40
   6  -9  -7    1.71    6.86
  -6   9   6  101.25   10.02
   6  -9  -6  109.83   10.69
  -6   9   5  130.85   11.24
   6  -9  -5  117.05   10.51
  -6   9   4  303.31   17.42
   6  -9  -4  343.02   18.77
  -6   9   3   14.44    7.45
   6  -9  -3   -5.46    7.08
  -6   9   2   70.39    8.57
   6  -9  -2   78.83    8.48
  -6   9   1  254.76   14.98
  -6   9   0   66.42    7.67
  -6   9  -1   38.04    6.99
   6  -9   1   34.70    5.01
  -6   9  -2    7.35    5.87
   6  -9   2   -0.18    5.46
  -6   9  -3   89.70    8.89
  -6   9  -3   99.40    8.98
   6  -9   3   76.84    8.66
  -6   9  -4  110.86    9.11
  -6   9  -4   99.04    9.07
  -6   9  -4  110.91    9.34
   6  -9   4   90.69    9.93
  -6   9  -5  908.75   41.51
  -6   9  -5  962.00   44.31
  -6   9  -5  984.11   51.08
   6  -9   5  987.72   51.62
  -6   9  -6    8.30    6.99
  -6   9  -6    6.18    7.17
  -6   9  -6   13.58    7.76
   6  -9   6    8.21    8.84
  -6   9  -7   93.00    9.93
  -6   9  -7  109.42   11.05
   6  -9   7   98.82   12.41
  -6   9  -8   22.11    7.40
  -6   9  -8   23.64    9.34
   6  -9   8   25.09   11.42
  -6   9  -9  121.56   10.42
  -6   9  -9  141.19   13.09
   6  -9   9   94.26   13.18
  -6   9 -10    9.97    7.81
  -6   9 -10    1.90    9.79
   6  -9  10   -2.84   10.83
  -6   9 -11    8.75    7.94
  -6   9 -11   -0.18   10.83
   6  -9  11    3.97   11.87
  -6   9 -12   57.71    9.52
  -6   9 -12   86.32   13.45
   6  -9  12   49.77   12.14
  -6   9 -13    1.71    8.98
  -6   9 -13  -16.06   12.50
   6  -9  13   -0.14   12.90
  -6   9 -14   24.37    8.80
  -6   9 -14   65.16   13.40
   6  -9  14   47.38   13.76
  -6   8  11    5.50    9.16
   6  -8 -11   -1.62    7.08
   6  -8 -11   11.37   12.18
  -6   8  10  -10.33    8.35
   6  -8 -10    2.12    8.75
   6  -8 -10   -9.93   11.60
  -6   8   9   15.25    8.89
   6  -8  -9    7.90    7.67
   6  -8  -9   -9.30   10.15
  -6   8   8   56.22    8.80
   6  -8  -8   59.06    9.16
   6  -8  -8   38.85    9.48
  -6   8   7  139.61   11.46
   6  -8  -7  126.88   10.87
   6  -8  -7  111.18    9.79
  -6   8   6  187.71   13.45
   6  -8  -6  211.94   13.58
   6  -8  -6  198.63   12.36
  -6   8   5    2.89    7.58
   6  -8  -5   11.64    6.81
  -6   8   4   -9.11    7.31
   6  -8  -4    0.99    6.77
  -6   8   3   37.36    8.03
   6  -8  -3   45.93    8.17
  -6   8   2   20.40    7.31
   6  -8  -2   28.43    6.68
  -6   8   1   13.31    6.86
  -6   8   0   -0.90    5.73
  -6   8  -1  132.48    9.57
   6  -8   1  101.61    6.63
  -6   8  -2   50.31    6.81
   6  -8   2   32.89    5.91
  -6   8  -3    3.20    5.46
  -6   8  -3   -4.87    6.09
  -6   8  -3    0.23    5.05
   6  -8   3    1.13    5.82
  -6   8  -4  578.91   27.84
  -6   8  -4  567.18   27.25
  -6   8  -4  635.77   34.16
   6  -8   4  646.60   34.61
  -6   8  -5  630.35   30.14
  -6   8  -5  661.94   31.40
  -6   8  -5  691.72   37.09
   6  -8   5  656.97   35.69
  -6   8  -6  303.40   17.19
  -6   8  -6  312.97   20.26
   6  -8   6  303.17   19.67
  -6   8  -7  409.66   21.34
  -6   8  -7  434.48   25.67
   6  -8   7  428.70   25.63
  -6   8  -8   24.73    7.13
  -6   8  -8   31.81    9.88
   6  -8   8   20.30    9.88
  -6   8  -9   10.06    7.54
  -6   8  -9    6.99    9.11
   6  -8   9   -0.32   10.60
  -6   8 -10   16.24    7.67
  -6   8 -10   46.75   11.64
   6  -8  10   16.47   11.46
  -6   8 -11   -0.90    7.99
  -6   8 -11   -0.86   10.02
   6  -8  11    8.89   11.51
  -6   8 -12    7.54    7.94
  -6   8 -12   10.29   11.01
   6  -8  12   19.81   12.72
  -6   8 -13   64.03    9.75
  -6   8 -13   53.88   11.78
   6  -8  13   45.44   12.45
   6  -8  14   14.62   13.00
  -6   8 -15   21.61   10.20
  -6   8 -15   23.28   10.24
   6  -8  15   17.06   12.68
  -6   7  12   35.10    8.57
   6  -7 -12   19.18    9.39
   6  -7 -12   31.72   14.17
  -6   7  11   35.56    9.88
   6  -7 -11   27.75    9.11
   6  -7 -11   25.31   12.36
  -6   7  10   14.85    9.25
   6  -7 -10   38.31    9.61
   6  -7 -10   13.63   11.24
  -6   7   9   13.67    7.67
   6  -7  -9   15.93    8.80
   6  -7  -9   27.30   10.96
  -6   7   8   -4.74    8.53
   6  -7  -8   19.58    8.80
   6  -7  -8    4.60    8.48
  -6   7   7  416.29   22.34
   6  -7  -7  390.66   20.98
   6  -7  -7  310.30   18.55
  -6   7   6   70.93    9.48
   6  -7  -6   86.09    9.93
   6  -7  -6   80.59    7.76
  -6   7   5  669.16   32.35
   6  -7  -5  622.23   30.41
   6  -7  -5  645.69   33.12
  -6   7   4   10.69    7.94
   6  -7  -4   -9.93    7.58
  -6   7   3  308.90   17.55
   6  -7  -3  317.16   17.64
  -6   7   2  223.71   14.21
   6  -7  -2  192.81   12.86
  -6   7   1 1166.85   52.88
   6  -7  -1 1118.12   50.72
  -6   7   0   -3.29    6.68
  -6   7  -1   16.24    6.18
  -6   7  -2   96.70    8.66
   6  -7   2   93.45    7.04
  -6   7  -3   20.85    6.63
  -6   7  -3   32.94    5.28
   6  -7   3   24.64    5.60
  -6   7  -4 1377.12   61.37
  -6   7  -4 1406.90   62.72
  -6   7  -4 1345.08   67.86
   6  -7   4 1410.51   71.56
  -6   7  -5  109.74    9.43
  -6   7  -5   98.23    8.48
  -6   7  -5   99.04    9.34
   6  -7   5  111.68   10.11
  -6   7  -6  932.22   42.91
  -6   7  -6  943.50   49.05
   6  -7   6  852.35   45.26
  -6   7  -7  141.37   11.28
  -6   7  -7  148.81   12.63
   6  -7   7  152.24   14.08
  -6   7  -8  949.36   43.77
  -6   7  -8 1041.86   54.55
   6  -7   8 1067.13   56.27
  -6   7  -9   -0.41    7.58
  -6   7  -9   -4.06    8.17
   6  -7   9   16.51   10.38
  -6   7 -10   20.89    7.67
  -6   7 -10   16.42    8.71
   6  -7  10   11.73   11.51
  -6   7 -11    5.91    7.54
  -6   7 -11    3.47    8.84
   6  -7  11    2.98    9.97
  -6   7 -12   59.11    9.61
  -6   7 -12   49.54   10.96
   6  -7  12   50.99   13.40
  -6   7 -13   31.04    8.93
  -6   7 -13   44.54   11.28
   6  -7  13   34.29   13.31
  -6   7 -14   99.81   10.74
   6  -7  14   87.81    8.57
  -6   7 -14   83.34   12.72
   6  -7  14   70.21   13.67
  -6   7 -15   35.10    8.35
   6  -7  15   61.46    9.30
  -6   7 -15   38.22   10.47
   6  -7  15   39.57   13.81
  -6   6  12  177.83   13.36
   6  -6 -12  177.92   13.54
   6  -6 -12  151.61   18.18
  -6   6  11   10.96    9.79
   6  -6 -11    3.75    8.57
   6  -6 -11    4.20   10.33
  -6   6  10   54.82    9.07
   6  -6 -10   49.36    8.71
   6  -6 -10   42.91   11.24
  -6   6   9    6.09    8.53
   6  -6  -9   -6.63    8.39
   6  -6  -9   13.09    9.57
  -6   6   8    5.82    9.07
   6  -6  -8   29.46    8.80
   6  -6  -8    9.61    8.62
  -6   6   7  409.57   22.43
   6  -6  -7  423.69   22.56
   6  -6  -7  392.24   22.20
  -6   6   6  298.48   18.00
   6  -6  -6  264.73   16.24
   6  -6  -6  231.29   14.21
  -6   6   5   -4.74    7.76
   6  -6  -5   -7.35    7.54
   6  -6  -5   -1.62    4.24
  -6   6   4   32.49    8.39
   6  -6  -4   22.11    7.40
   6  -6  -4   26.13    3.43
  -6   6   3  516.19   25.99
   6  -6  -3  582.07   28.83
  -6   6   2  342.25   18.82
   6  -6  -2  313.82   17.33
  -6   6   1  173.49   11.96
   6  -6  -1  164.69   11.78
  -6   6   0   76.93    8.44
  -6   6  -1    6.45    6.00
  -6   6  -2   87.76    8.48
  -6   6  -2   84.20    5.91
   6  -6   2   88.98    6.32
  -6   6  -3  515.74   25.04
  -6   6  -3  565.38   29.28
   6  -6   3  555.00   29.19
  -6   6  -4   94.44    8.66
  -6   6  -4  121.51    9.43
  -6   6  -4  106.26    8.71
   6  -6   4  118.26    9.84
  -6   6  -5 1374.41   61.41
  -6   6  -5 1331.09   67.41
   6  -6   5 1357.72   69.35
  -6   6  -6  674.57   32.04
  -6   6  -6  580.72   31.54
   6  -6   6  632.61   34.43
  -6   6  -7  305.20   17.19
  -6   6  -7  297.80   18.68
   6  -6   7  333.86   21.30
  -6   6  -8  102.34   10.47
  -6   6  -8   80.45   10.78
   6  -6   8  112.26   12.86
  -6   6  -9   62.18    8.75
  -6   6  -9   61.82   10.42
   6  -6   9   42.37   11.51
  -6   6 -10   11.37    7.81
  -6   6 -10    2.71   10.51
   6  -6  10    3.07   11.05
  -6   6 -11   26.49    7.58
  -6   6 -11   35.15   11.60
   6  -6  11   13.67   10.38
  -6   6 -12  320.77   18.18
   6  -6  12  336.83   18.64
  -6   6 -12  321.63   21.84
   6  -6  12  344.32   23.46
  -6   6 -13   -1.13    7.67
   6  -6  13    0.90    7.90
  -6   6 -13   -8.57   10.11
   6  -6  13   -0.36   11.10
  -6   6 -14   97.96   10.15
   6  -6  14  101.43    9.79
  -6   6 -14   70.48   11.91
   6  -6  14   65.43   13.72
  -6   6 -15   12.05    7.72
   6  -6  15    9.25    7.58
  -6   6 -15   -4.02    9.93
   6  -6  15    2.44   11.87
  -6   6 -16   68.36   10.15
   6  -6  16   79.69    9.02
  -6   6 -16   57.85   11.10
   6  -6  16   71.43   13.13
  -6   5  12   -1.04    9.02
   6  -5 -12    6.32    9.02
   6  -5 -12   -1.76   13.31
  -6   5  11   52.48    9.30
   6  -5 -11   20.49    8.71
   6  -5 -11   44.22   11.28
  -6   5  10   32.98    9.48
   6  -5 -10   16.11    9.34
   6  -5 -10   16.42   10.11
  -6   5   9   55.77    8.98
   6  -5  -9   57.49    9.25
   6  -5  -9   67.95   10.60
  -6   5   8  173.49   13.18
   6  -5  -8  188.97   13.67
   6  -5  -8  185.36   14.21
  -6   5   7  496.79   25.31
   6  -5  -7  482.80   24.91
   6  -5  -7  504.46   27.75
  -6   5   6   10.33    8.35
   6  -5  -6   26.94    7.40
   6  -5  -6   17.15    5.82
  -6   5   5    6.50    8.26
   6  -5  -5   11.01    7.81
   6  -5  -5    8.75    4.92
  -6   5   4  524.77   26.31
   6  -5  -4  482.35   24.82
   6  -5  -4  490.02   25.45
  -6   5   3  377.53   20.40
   6  -5  -3  386.78   20.85
  -6   5   2   21.70    7.58
   6  -5  -2    6.77    6.45
  -6   5   1   95.75    9.20
   6  -5  -1   96.43    9.30
  -6   5   0  169.61   11.51
   6  -5   0  184.82   12.45
  -6   5  -1  183.38   12.27
  -6   5  -2  220.19   13.22
  -6   5  -2  214.10   11.60
  -6   5  -3   97.87    8.93
  -6   5  -3  115.60    8.12
   6  -5   3  122.28    8.48
  -6   5  -4  956.58   43.59
  -6   5  -4  930.41   42.55
  -6   5  -4  966.96   49.68
   6  -5   4  945.75   48.55
  -6   5  -5  813.10   37.77
  -6   5  -5  793.24   41.42
   6  -5   5  893.41   46.43
  -6   5  -6   68.13    8.08
  -6   5  -6   89.66    9.97
   6  -5   6   50.90    8.80
  -6   5  -7  403.48   21.12
  -6   5  -7  409.84   23.87
   6  -5   7  431.73   25.36
  -6   5  -8   -0.14    6.54
  -6   5  -8   11.10    8.80
   6  -5   8   -5.73    9.70
  -6   5  -9   28.20    7.58
  -6   5  -9   21.93   10.47
   6  -5   9   33.35   10.56
  -6   5 -10   44.22    8.53
   6  -5  10   38.67    6.95
  -6   5 -10   54.73   10.92
   6  -5  10   31.40   12.00
  -6   5 -11  149.67   11.55
   6  -5  11  193.57   12.86
  -6   5 -11  145.16   13.90
   6  -5  11  163.07   15.43
  -6   5 -12   13.94    7.81
   6  -5  12   27.43    8.26
  -6   5 -12   14.48    9.93
   6  -5  12   37.23   12.09
  -6   5 -13  272.81   16.11
   6  -5  13  252.32   15.07
  -6   5 -13  269.83   18.59
   6  -5  13  271.18   20.08
  -6   5 -14  236.66   14.80
   6  -5  14  234.86   14.12
  -6   5 -14  233.60   17.64
   6  -5  14  239.42   18.91
  -6   5 -15  172.46   13.27
   6  -5  15  178.05   12.50
  -6   5 -15  157.11   14.53
   6  -5  15  173.22   16.83
  -6   5 -16   60.15    8.89
   6  -5  16   51.48    8.08
  -6   5 -16   43.41   11.60
   6  -5  16   50.72   12.59
  -6   4  13   23.42    8.93
   6  -4 -13   24.59    9.39
   6  -4 -13   38.76   13.81
  -6   4  12   -0.99    8.98
   6  -4 -12    6.05    9.16
   6  -4 -12    0.99   10.29
  -6   4  11   71.97    9.16
   6  -4 -11   77.25   10.51
   6  -4 -11   82.03   12.72
  -6   4  10   23.55    9.43
   6  -4 -10   51.30   10.06
   6  -4 -10   27.21   10.38
  -6   4   9   75.76    9.48
   6  -4  -9   67.68    8.98
  -6   4   9   58.34    9.61
   6  -4  -9   54.37    9.93
  -6   4   8   80.86    9.93
   6  -4  -8   86.14   10.56
  -6   4   8   63.31    9.70
   6  -4  -8   88.84   10.33
  -6   4   7  285.62   17.24
   6  -4  -7  303.53   17.51
  -6   4   7  285.80   17.96
   6  -4  -7  309.54   18.91
  -6   4   6   -4.20    8.53
   6  -4  -6    4.02    7.85
  -6   4   6    1.67    6.45
   6  -4  -6   -3.75    6.05
  -6   4   5  121.65   11.28
   6  -4  -5  103.42   10.33
   6  -4  -5   95.61    8.35
  -6   4   4   11.82    8.21
   6  -4  -4   13.09    7.13
   6  -4  -4    6.36    4.29
  -6   4   3  442.46   23.10
   6  -4  -3  434.97   22.74
   6  -4  -3  346.67   18.05
  -6   4   2  118.08   10.11
   6  -4  -2  122.60    9.93
  -6   4   1  215.64   13.49
   6  -4  -1  218.07   13.76
  -6   4   0  280.75   15.93
   6  -4   0  302.36   17.06
  -6   4  -1   13.04    6.59
  -6   4  -2   14.44    6.18
  -6   4  -2   23.82    3.02
  -6   4  -3  453.93   22.92
  -6   4  -3  550.04   28.61
  -6   4  -4    3.34    6.05
  -6   4  -4    5.41    5.14
   6  -4   4    4.56    5.28
  -6   4  -5    4.92    6.09
  -6   4  -5   -0.14    6.32
   6  -4   5    3.43    6.68
  -6   4  -6  540.11   26.35
  -6   4  -6  494.08   27.61
   6  -4   6  511.23   28.83
  -6   4  -7    0.90    6.86
  -6   4  -7    9.16    8.08
   6  -4   7  -13.99    7.58
  -6   4  -8  522.06   26.04
  -6   4  -8  539.66   31.09
   6  -4   8  484.61   27.98
  -6   4  -9   11.73    7.22
   6  -4   9   14.62    5.96
  -6   4  -9   16.15    8.93
   6  -4   9   -1.13   10.24
  -6   4 -10   -5.19    7.58
   6  -4  10    1.99    6.95
  -6   4 -10    4.38    8.53
   6  -4  10   17.46   10.56
  -6   4 -11   48.46    9.30
   6  -4  11   44.76    7.72
  -6   4 -11   58.79   10.06
   6  -4  11   39.71   12.05
  -6   4 -12   92.54    9.07
   6  -4  12   88.44    9.16
  -6   4 -12   72.06   11.28
   6  -4  12   89.66   13.04
  -6   4 -13  223.58   14.08
   6  -4  13  198.81   13.27
  -6   4 -13  209.95   16.38
   6  -4  13  225.88   17.82
  -6   4 -14   37.54    7.90
   6  -4  14   41.20    7.81
  -6   4 -14   50.90   11.15
   6  -4  14   43.95   12.09
  -6   4 -15  260.35   15.52
   6  -4  15  253.18   14.75
  -6   4 -15  274.79   19.13
   6  -4  15  270.60   20.08
  -6   4 -16   36.59    8.71
   6  -4  16   22.92    7.13
  -6   4 -16   22.20   11.05
   6  -4  16   41.24   11.01
  -6   4 -17   22.25    8.93
   6  -4  17   35.33    8.17
  -6   4 -17   25.45   10.83
   6  -4  17    2.80   10.87
  -6   3  13    1.17    8.48
   6  -3 -13    1.26    8.26
   6  -3 -13   -6.27   13.31
  -6   3  12   18.73    8.93
   6  -3 -12   19.09    9.70
  -6   3  12   28.65   10.92
   6  -3 -12   20.35   11.64
  -6   3  11    0.36    8.89
   6  -3 -11   -2.48    8.71
  -6   3  11   12.36    9.66
   6  -3 -11   11.24   10.78
  -6   3  10   17.91    8.35
   6  -3 -10    1.99    9.02
  -6   3  10    0.18    8.39
   6  -3 -10    7.04    9.57
  -6   3   9    5.23    7.90
   6  -3  -9    5.69    7.58
  -6   3   9  -14.48    8.30
   6  -3  -9    8.44    8.35
  -6   3   8   -6.63    8.75
   6  -3  -8  -14.98    8.26
  -6   3   8   -0.95    9.20
   6  -3  -8   -5.19    7.58
  -6   3   7  103.46   11.69
   6  -3  -7  101.66   10.69
  -6   3   7  109.74   11.10
   6  -3  -7  109.60   10.51
  -6   3   6   11.87    8.84
   6  -3  -6   33.16    8.62
  -6   3   6   20.40    7.76
   6  -3  -6   11.96    6.81
  -6   3   5  169.61   13.09
   6  -3  -5  172.37   13.13
  -6   3   5  154.14   11.37
   6  -3  -5  152.74   11.01
  -6   3   4  296.81   17.15
   6  -3  -4  302.81   17.46
  -6   3   4  294.83   17.01
   6  -3  -4  306.06   17.33
  -6   3   3  151.79   11.42
   6  -3  -3  128.55   10.15
  -6   3   3  116.46    8.12
   6  -3  -3  116.78    7.90
  -6   3   2    7.85    7.22
   6  -3  -2    2.80    6.59
  -6   3   2    3.29    2.98
  -6   3   1  187.44   12.54
   6  -3  -1  206.25   13.36
  -6   3   0    6.23    6.68
   6  -3   0    0.68    6.95
  -6   3  -1  155.35   11.10
  -6   3  -2   11.69    6.14
  -6   3  -2    5.23    3.07
  -6   3  -3   21.12    7.35
  -6   3  -3   18.59    4.65
  -6   3  -4  823.02   37.99
  -6   3  -4  760.30   39.08
  -6   3  -5  494.54   24.68
  -6   3  -5  496.34   26.98
   6  -3   5  532.44   28.79
  -6   3  -6  239.73   14.53
  -6   3  -6  221.73   14.17
   6  -3   6  224.26   15.34
  -6   3  -7    6.36    6.54
  -6   3  -7    4.42    6.99
   6  -3   7    8.53    7.67
  -6   3  -8  147.05   11.55
  -6   3  -8  136.58   11.69
   6  -3   8  121.15   12.14
  -6   3  -9    4.15    7.31
   6  -3   9   -4.11    6.81
  -6   3  -9    3.02    7.54
   6  -3   9   -0.81    9.93
  -6   3 -10   89.79   10.11
   6  -3  10   81.94    9.61
  -6   3 -10   73.64   10.56
   6  -3  10  109.87   14.08
  -6   3 -11    5.87    7.67
   6  -3  11    0.36    7.13
  -6   3 -11    3.02    9.93
   6  -3  11    9.20   10.33
  -6   3 -12   36.28    8.80
   6  -3  12   78.06    9.30
  -6   3 -12   57.58   11.24
   6  -3  12   53.33   12.14
  -6   3 -13   42.10    8.75
   6  -3  13   21.61    7.08
  -6   3 -13   24.00   10.92
   6  -3  13   33.53   11.87
  -6   3 -14  456.18   23.78
   6  -3  14  406.05   21.52
  -6   3 -14  379.66   23.19
   6  -3  14  412.23   25.81
  -6   3 -15    1.99    7.94
   6  -3  15    6.00    6.63
  -6   3 -15    6.50   10.42
   6  -3  15    2.80   10.47
  -6   3 -16    1.31    7.22
   6  -3  16    2.57    7.04
  -6   3 -16    9.93   10.56
   6  -3  16   -5.01   10.47
  -6   3 -17   30.73    9.57
   6  -3  17   47.56    8.57
  -6   3 -17   31.59   12.00
   6  -3  17   30.28   11.01
  -6   2  13   26.13   10.38
   6  -2 -13   31.27   10.15
  -6   2  13   18.86   12.09
   6  -2 -13   27.12   12.41
  -6   2  12    3.84    8.62
   6  -2 -12   -9.07    8.44
  -6   2  12    7.40   11.01
   6  -2 -12   -1.62   11.28
  -6   2  11   10.83    8.71
   6  -2 -11   15.34    8.35
  -6   2  11   24.19   12.09
   6  -2 -11   24.05   10.65
  -6   2  10    1.04    8.71
   6  -2 -10    7.72    8.35
  -6   2  10   22.61    9.88
   6  -2 -10  -10.78    9.66
  -6   2   9   29.15    8.80
   6  -2  -9   28.65    8.17
  -6   2   9   35.65   10.15
   6  -2  -9   43.90    9.79
  -6   2   8  296.00   17.55
   6  -2  -8  318.97   18.73
  -6   2   8  297.35   19.45
   6  -2  -8  307.78   19.27
  -6   2   7   25.36    8.75
   6  -2  -7    1.31    7.90
  -6   2   7    9.79    9.34
   6  -2  -7   11.69    7.54
  -6   2   6   47.51    8.71
   6  -2  -6   55.18    9.11
  -6   2   6   42.14    8.93
   6  -2  -6   37.23    8.12
  -6   2   5    6.59    7.13
   6  -2  -5    7.31    7.67
  -6   2   5   -3.43    6.59
   6  -2  -5    6.18    6.18
  -6   2   4  122.96   11.10
   6  -2  -4  137.89   10.83
  -6   2   4  111.81    9.20
   6  -2  -4  108.65    8.62
  -6   2   3   15.75    7.58
   6  -2  -3   15.48    6.63
  -6   2   3   12.32    5.50
   6  -2  -3   10.60    4.83
  -6   2   2  218.75   14.08
   6  -2  -2  201.38   13.31
  -6   2   2  207.92   12.09
   6  -2  -2  204.40   11.73
  -6   2   1    8.12    6.54
   6  -2  -1    0.09    6.59
  -6   2   1    3.84    3.43
  -6   2   0   -4.20    7.04
   6  -2   0   -3.75    6.68
  -6   2   0    2.75    2.89
  -6   2  -1    6.77    6.32
  -6   2  -1    5.96    2.89
  -6   2  -1    6.00    2.84
  -6   2  -2  154.05   11.01
  -6   2  -2  179.31   10.47
  -6   2  -3  166.68   11.55
  -6   2  -3  167.45   10.78
  -6   2  -4  282.42   15.75
  -6   2  -4  265.59   15.39
  -6   2  -5 1466.46   65.29
  -6   2  -5 1471.42   74.63
  -6   2  -6   76.57    8.62
  -6   2  -6   86.36    8.80
  -6   2  -7  364.00   19.63
  -6   2  -7  429.70   24.59
   6  -2   7  404.52   23.82
  -6   2  -8    1.58    7.22
   6  -2   8   12.14    6.99
  -6   2  -8   13.72    7.54
   6  -2   8    6.18    8.84
  -6   2  -9    3.16    7.54
   6  -2   9    8.44    6.77
  -6   2  -9    0.05    8.21
   6  -2   9    3.75    8.21
  -6   2 -10   -1.99    7.45
   6  -2  10    2.08    6.09
  -6   2 -10    1.49    8.93
   6  -2  10    9.48   10.33
  -6   2 -11   12.50    8.39
   6  -2  11   24.19    7.26
  -6   2 -11   18.23   10.60
   6  -2  11   11.05   10.42
  -6   2 -12  256.34   16.24
   6  -2  12  277.50   15.61
  -6   2 -12  269.42   19.27
   6  -2  12  234.45   18.41
  -6   2 -13  234.32   15.30
   6  -2  13  212.21   13.27
  -6   2 -13  222.45   16.56
   6  -2  13  212.84   16.88
  -6   2 -14   -7.63    7.85
   6  -2  14    0.05    6.72
  -6   2 -14    0.00    9.61
   6  -2  14   21.93   11.37
  -6   2 -15   15.70    7.76
   6  -2  15   28.97    7.31
  -6   2 -15   38.17   10.69
   6  -2  15   18.41   10.24
  -6   2 -16   94.08   10.56
   6  -2  16  119.71   10.92
  -6   2 -16   99.09   11.96
   6  -2  16  101.89   13.18
  -6   2 -17   15.75    8.53
   6  -2  17   22.43    7.31
  -6   2 -17   51.17   10.83
  -6   1  13   53.60   10.65
   6  -1 -13   66.33   10.92
  -6   1  13   63.80   11.87
   6  -1 -13   50.40   13.81
  -6   1  12   14.17    8.80
   6  -1 -12    9.30    9.70
  -6   1  12   13.49   11.10
   6  -1 -12   25.95   11.69
  -6   1  11   11.28    8.89
   6  -1 -11   32.85    8.93
  -6   1  11   23.42   11.51
   6  -1 -11   32.94   10.51
  -6   1  10   28.79    9.25
   6  -1 -10   24.55    9.11
  -6   1  10   15.52   11.42
   6  -1 -10   30.55    9.61
  -6   1   9  324.74   19.18
   6  -1  -9  320.32   19.04
  -6   1   9  309.67   21.30
   6  -1  -9  319.06   20.58
  -6   1   8    6.09    9.16
   6  -1  -8    6.45    7.26
  -6   1   8   12.23    9.88
   6  -1  -8  -13.85    8.80
  -6   1   7  992.23   46.34
   6  -1  -7  951.62   44.17
  -6   1   7  956.13   50.72
   6  -1  -7  976.44   51.08
  -6   1   6  381.87   21.48
   6  -1  -6  313.60   18.59
  -6   1   6  396.12   23.78
   6  -1  -6  373.61   22.34
  -6   1   5  807.68   38.49
   6  -1  -5  787.83   37.36
  -6   1   5  737.74   39.12
   6  -1  -5  746.32   39.35
  -6   1   4  721.05   34.25
   6  -1  -4  745.86   35.47
  -6   1   4  729.17   38.35
   6  -1  -4  718.34   37.63
  -6   1   3 1401.94   62.90
   6  -1  -3 1331.55   59.83
  -6   1   3 1378.47   69.53
   6  -1  -3 1475.03   74.36
  -6   1   2   32.26    7.17
   6  -1  -2   19.27    7.04
  -6   1   2   38.26    5.46
   6  -1  -2   36.55    5.50
  -6   1   1   75.08    8.75
   6  -1  -1   69.71    8.35
  -6   1   1   77.16    6.36
  -6   1   0   12.05    7.04
   6  -1   0    7.13    6.90
  -6   1   0    3.11    3.79
  -6   1  -1  228.63   14.03
  -6   1  -1  260.89   14.35
  -6   1  -2 3038.96  131.94
  -6   1  -3  -11.15    6.77
  -6   1  -3    5.37    5.23
  -6   1  -4 1359.52   60.69
  -6   1  -4 1321.17   66.96
  -6   1  -5  387.55   20.03
  -6   1  -5  357.23   21.12
  -6   1  -6 1679.43   74.50
  -6   1  -6 1715.53   86.72
  -6   1  -7   11.42    7.40
  -6   1  -7   13.00    7.72
  -6   1  -8   30.14    7.90
   6  -1   8   22.02    7.17
  -6   1  -8   15.61    8.98
  -6   1  -9  106.76   10.29
   6  -1   9  135.41   11.01
  -6   1  -9  125.66   12.68
   6  -1   9   92.27   11.42
  -6   1 -10    4.20    7.31
   6  -1  10   -5.73    7.58
  -6   1 -10    0.50    8.71
   6  -1  10    7.35    8.93
  -6   1 -11    5.91    7.54
   6  -1  11   12.59    7.54
  -6   1 -11    7.40    9.70
   6  -1  11   16.70   10.96
  -6   1 -12  218.16   15.34
   6  -1  12  300.38   17.69
  -6   1 -12  309.81   20.21
   6  -1  12  297.49   20.98
  -6   1 -13  312.20   18.09
   6  -1  13  327.63   18.55
  -6   1 -13  253.99   18.27
   6  -1  13  304.17   20.85
  -6   1 -14   17.28    8.21
   6  -1  14   31.45    7.81
  -6   1 -14    6.14   10.15
   6  -1  14   37.50   11.01
  -6   1 -15  297.49   16.88
   6  -1  15  299.70   16.70
  -6   1 -15  272.27   17.91
  -6   1 -16   76.03    9.97
   6  -1  16   83.61    9.07
  -6   1 -16   90.60   11.33
  -6   1 -17   16.38    7.13
   6  -1  17   -0.41    7.22
  -6   1 -17    7.13    9.25
  -6   0  13   -2.53    8.84
   6   0 -13    1.67    8.48
  -6   0  13   15.88   10.06
   6   0 -13   -6.23   10.38
  -6   0  12   16.65    8.53
   6   0 -12    9.34    9.30
  -6   0  12    4.42   11.46
   6   0 -12   10.33   11.64
  -6   0  11   11.87    9.93
   6   0 -11   15.25    7.99
  -6   0  11   25.36   11.55
   6   0 -11   10.24    9.93
  -6   0  10  129.59   11.37
   6   0 -10   97.64   10.92
  -6   0  10  110.23   14.03
   6   0 -10  149.44   13.67
  -6   0   9   19.76    8.30
   6   0  -9   22.70    8.53
  -6   0   9    6.36   10.29
   6   0  -9   34.65    9.48
  -6   0   8   32.67    8.80
   6   0  -8   20.26    8.44
  -6   0   8   32.26   10.15
   6   0  -8   23.42    9.70
  -6   0   7  104.59   10.20
   6   0  -7  127.20   11.60
  -6   0   7   83.75   11.73
   6   0  -7  117.00   11.91
  -6   0   6   24.68    8.26
   6   0  -6   10.51    7.17
  -6   0   6   24.32    8.44
   6   0  -6   10.74    7.58
  -6   0   5  239.96   15.30
   6   0  -5  249.12   15.21
  -6   0   5  250.25   16.38
   6   0  -5  218.16   14.80
  -6   0   4  521.16   26.26
   6   0  -4  553.64   27.12
  -6   0   4  470.17   26.31
   6   0  -4  478.74   26.35
  -6   0   3  104.14   10.24
   6   0  -3   95.16    9.66
  -6   0   3  113.93   10.02
   6   0  -3  102.65    8.80
  -6   0   2    7.90    7.04
   6   0  -2    9.75    6.50
  -6   0   2    1.99    5.60
   6   0  -2    1.13    5.14
  -6   0   1  190.32   12.86
   6   0  -1  173.54   11.42
  -6   0   1  176.70   11.46
  -6   0   0  337.65   17.91
   6   0   0  348.07   18.45
  -6   0   0  360.07   19.85
  -6   0  -1  983.20   44.45
  -6   0  -1  985.46   50.22
  -6   0  -2  615.46   29.01
  -6   0  -3  313.28   16.38
  -6   0  -4 2076.51   91.01
  -6   0  -4 1897.82   95.61
  -6   0  -5  298.30   16.83
  -6   0  -5  312.47   19.18
  -6   0  -6   52.88    7.90
  -6   0  -6   54.69    8.62
  -6   0  -7    0.95    6.99
   6   0   7   21.79    6.59
  -6   0  -7   29.78    8.80
  -6   0  -8  139.20   11.37
   6   0   8  131.80   10.83
  -6   0  -8  151.02   12.81
  -6   0  -9  198.36   13.18
   6   0   9  164.88   11.82
  -6   0  -9  169.25   14.08
  -6   0 -10  288.28   17.19
   6   0  10  317.43   17.60
  -6   0 -10  302.81   19.49
  -6   0 -11  716.53   34.74
   6   0  11  758.50   35.60
  -6   0 -11  697.58   37.90
  -6   0 -12  391.07   21.25
   6   0  12  389.13   20.49
  -6   0 -12  371.13   22.70
  -6   0 -13  236.12   14.80
   6   0  13  218.21   13.58
  -6   0 -13  198.08   16.60
  -6   0 -14  375.86   20.17
   6   0  14  386.38   20.17
  -6   0 -14  390.76   24.05
  -6   0 -15   73.19    9.48
   6   0  15   72.74    8.53
  -6   0 -15   45.66   10.47
  -6   0 -16    3.56    8.17
   6   0  16   -2.80    7.04
  -6   0 -16   -6.54    8.93
  -6   0 -17   43.81    8.26
   6   0  17   43.54    7.85
  -6   0 -17   37.41   10.56
  -6   0 -18    1.13   10.02
   6   0  18    8.26    6.95
  -6   0 -18   10.87   10.02
  -6  -1  13   17.24   10.24
   6   1 -13   22.15    9.57
  -6  -1  13   25.36   11.42
   6   1 -13   22.83   10.87
  -6  -1  12   20.80    8.98
   6   1 -12   29.01    9.75
  -6  -1  12   11.51   13.13
   6   1 -12   23.82   11.05
  -6  -1  11   45.71    9.75
   6   1 -11   18.36    8.21
  -6  -1  11   17.51   10.65
   6   1 -11   50.94   10.69
  -6  -1  10   13.58    9.02
   6   1 -10   13.90    9.02
  -6  -1  10  -11.42    9.57
   6   1 -10   -9.75   10.15
  -6  -1   9   -1.17    8.98
   6   1  -9    9.75    8.08
  -6  -1   9    8.84   10.24
   6   1  -9    1.04    9.66
  -6  -1   8   30.37    9.75
   6   1  -8   43.50    9.25
  -6  -1   8   44.45   11.10
   6   1  -8   17.42    8.89
  -6  -1   7   15.57    9.48
   6   1  -7   -1.22    7.99
  -6  -1   7   16.47    9.48
   6   1  -7    8.17    8.57
  -6  -1   6  215.41   14.53
   6   1  -6  202.87   14.08
  -6  -1   6  231.25   16.42
   6   1  -6  218.12   15.34
  -6  -1   5   99.58    9.79
   6   1  -5   99.63   10.02
  -6  -1   5  122.46   11.82
   6   1  -5  100.76   10.29
  -6  -1   4  312.83   17.73
   6   1  -4  333.04   18.18
  -6  -1   4  348.34   21.30
   6   1  -4  327.63   19.76
  -6  -1   3    7.54    6.36
   6   1  -3    0.32    6.68
  -6  -1   3   12.23    6.86
   6   1  -3   -4.02    6.41
  -6  -1   2  167.04   11.64
   6   1  -2  169.61   11.51
  -6  -1   2  160.90   11.33
   6   1  -2  157.70   11.05
  -6  -1   1   32.76    7.45
   6   1  -1   49.68    7.26
  -6  -1   1   41.87    6.81
  -6  -1   0  208.24   13.09
   6   1   0  199.44   12.86
  -6  -1   0  239.10   14.44
  -6  -1  -1  289.19   16.02
  -6  -1  -1  272.99   16.15
  -6  -1  -2  617.72   29.55
  -6  -1  -4   30.68    6.23
  -6  -1  -5 1733.58   76.66
  -6  -1  -5 1701.09   86.09
  -6  -1  -6  115.15   10.29
  -6  -1  -6  104.86   10.15
  -6  -1  -7   32.76    7.08
   6   1   7   36.05    7.54
  -6  -1  -7   34.11    8.03
  -6  -1  -8   30.14    8.03
   6   1   8   43.72    8.12
  -6  -1  -8   35.60    8.93
  -6  -1  -9   -4.87    7.17
   6   1   9   -6.81    6.36
  -6  -1  -9    2.93    8.03
  -6  -1 -10   64.66    9.57
   6   1  10   47.42    8.84
  -6  -1 -10   83.79   10.65
  -6  -1 -11  274.70   16.56
   6   1  11  313.37   17.64
  -6  -1 -11  253.68   17.82
  -6  -1 -12  419.27   22.92
   6   1  12  421.03   22.43
  -6  -1 -12  416.61   25.49
  -6  -1 -13  610.50   30.14
   6   1  13  676.83   32.58
  -6  -1 -13  636.67   35.69
  -6  -1 -14  511.23   26.08
   6   1  14  444.95   23.28
  -6  -1 -14  505.82   28.83
  -6  -1 -15   20.40    7.76
   6   1  15   38.67    8.26
  -6  -1 -15   48.37   11.01
  -6  -1 -16  206.88   13.94
   6   1  16  185.27   12.14
  -6  -1 -16  217.67   16.24
  -6  -1 -17   -4.02    8.98
   6   1  17   10.11    6.63
  -6  -1 -17    2.62   10.42
  -6  -1 -18    1.49    9.70
   6   1  18    7.94    6.41
  -6  -1 -18   -5.23    9.52
  -6  -2  12   -5.10    8.39
   6   2 -12  -14.12    8.48
  -6  -2  12   13.22   10.69
   6   2 -12    9.88   10.56
  -6  -2  11   25.22    9.75
   6   2 -11   17.10    8.53
  -6  -2  11   14.85   10.06
   6   2 -11   22.97    9.70
  -6  -2  10   -1.31    7.58
   6   2 -10    7.94    8.75
  -6  -2  10    0.59    9.97
   6   2 -10    0.18    9.75
  -6  -2   9    7.08    8.12
   6   2  -9   17.69    8.26
  -6  -2   9   21.03   10.20
   6   2  -9    9.16    8.75
  -6  -2   8   -0.14    7.99
   6   2  -8   -2.44    7.40
  -6  -2   8    0.32   10.06
   6   2  -8   -6.32    8.53
  -6  -2   7  370.09   20.49
   6   2  -7  348.52   19.54
  -6  -2   7  341.53   21.66
   6   2  -7  313.78   20.26
  -6  -2   6   -7.49    8.12
   6   2  -6    2.17    7.58
  -6  -2   6   -0.54    8.89
   6   2  -6   -2.12    8.03
  -6  -2   5  185.68   13.04
   6   2  -5  166.73   11.91
  -6  -2   5  136.81   12.72
   6   2  -5  197.99   13.99
   6   2  -4  468.82   23.78
   6   2  -4  429.56   24.68
  -6  -2   3   72.56    8.80
   6   2  -3   82.62    8.62
  -6  -2   3   72.87    9.20
   6   2  -3   77.79    9.11
  -6  -2   2  658.33   31.77
   6   2  -2  668.71   31.63
  -6  -2   2  657.43   35.42
   6   2  -2  579.82   31.36
  -6  -2   1   -2.35    6.09
   6   2  -1    4.78    5.87
  -6  -2   1   -1.99    6.50
  -6  -2   0   23.51    6.36
   6   2   0   37.77    7.04
  -6  -2   0   26.40    6.95
  -6  -2  -1   32.44    6.18
  -6  -2  -1   40.79    7.49
  -6  -2  -2 2225.41   97.01
  -6  -2  -3  599.67   28.25
  -6  -2  -4 1028.78   46.57
  -6  -2  -5  390.94   20.08
  -6  -2  -6  543.27   26.71
  -6  -2  -6  533.34   29.28
  -6  -2  -7  357.05   19.40
   6   2   7  371.08   19.63
  -6  -2  -7  358.94   21.48
  -6  -2  -8   -9.30    7.35
   6   2   8   -6.77    6.95
  -6  -2  -8    1.62    7.49
  -6  -2  -9    3.84    7.49
   6   2   9   15.75    7.26
  -6  -2  -9    8.53    8.80
  -6  -2 -10  155.35   12.41
   6   2  10  158.96   11.96
  -6  -2 -10  167.40   14.44
  -6  -2 -11  528.38   26.89
   6   2  11  481.90   24.23
  -6  -2 -11  490.93   28.79
  -6  -2 -12   65.20    9.88
   6   2  12   71.97    8.66
  -6  -2 -12   50.45   10.06
  -6  -2 -13  912.36   42.87
   6   2  13  982.75   45.08
  -6  -2 -13  975.99   51.48
  -6  -2 -14   11.55    6.99
   6   2  14   -5.82    6.77
  -6  -2 -14   12.77    9.61
  -6  -2 -15  246.86   15.43
   6   2  15  249.93   15.21
  -6  -2 -15  272.04   18.41
  -6  -2 -16   18.27    7.76
   6   2  16   15.16    6.50
  -6  -2 -16    6.27    9.88
  -6  -2 -17   26.40    8.53
   6   2  17   13.99    7.94
  -6  -2 -17   17.10    9.39
  -6  -2 -18   13.85    8.30
   6   2  18    2.08    6.41
  -6  -2 -18   -1.26   10.87
  -6  -3  12    2.98    9.30
   6   3 -12   16.42    9.25
  -6  -3  12    4.87   11.73
   6   3 -12    8.08   10.38
  -6  -3  11   -1.44    9.16
   6   3 -11    8.12    8.35
  -6  -3  11    4.83   10.78
   6   3 -11  -10.51    9.57
  -6  -3  10   -1.80    8.84
   6   3 -10    7.72    8.53
  -6  -3  10    9.93   10.15
   6   3 -10   11.24    9.39
  -6  -3   9    4.20    8.39
   6   3  -9   10.60    7.81
  -6  -3   9   12.68    9.93
   6   3  -9   10.06    9.34
  -6  -3   8   -6.54    9.43
  -6  -3   8    2.89    8.80
  -6  -3   7  207.74   14.71
   6   3  -7  171.15   13.18
  -6  -3   7  188.07   15.25
   6   3  -7  203.18   15.70
  -6  -3   6  154.99   12.27
   6   3  -6  198.67   13.58
  -6  -3   6  186.58   15.25
   6   3  -6  194.61   14.80
  -6  -3   5  196.37   12.77
   6   3  -5  213.11   13.81
  -6  -3   5  189.38   15.21
   6   3  -5  223.76   16.38
  -6  -3   4    0.81    6.63
   6   3  -4    3.61    6.59
  -6  -3   4    3.97    7.99
   6   3  -4   17.96    8.17
  -6  -3   3  908.75   41.29
   6   3  -3  941.69   43.27
  -6  -3   3  991.33   52.03
   6   3  -3  979.60   51.30
  -6  -3   2   24.95    6.95
   6   3  -2   42.32    6.81
  -6  -3   2   31.18    8.35
   6   3  -2   30.28    7.54
  -6  -3   1  170.38   11.51
   6   3  -1  186.44   11.96
  -6  -3   1  195.47   13.76
  -6  -3   0    6.50    6.27
   6   3   0    6.32    6.00
  -6  -3   0    4.42    6.41
  -6  -3  -1   61.55    7.58
  -6  -3  -1   51.71    8.44
  -6  -3  -2    0.32    5.69
  -6  -3  -3   93.31    8.53
  -6  -3  -4    1.49    5.64
  -6  -3  -5   13.36    6.45
  -6  -3  -6   -5.50    6.36
  -6  -3  -7  205.62   13.49
   6   3   7  206.93   13.18
  -6  -3  -7  211.94   15.48
  -6  -3  -8   69.17    7.94
   6   3   8   62.72    7.99
  -6  -3  -8   50.45   10.20
  -6  -3  -9   19.45    7.81
   6   3   9   16.24    7.35
  -6  -3  -9   11.37    8.71
  -6  -3 -10   14.71    8.03
   6   3  10   -1.44    7.26
  -6  -3 -10   25.04    9.48
  -6  -3 -11  127.83   11.15
   6   3  11  123.90   11.10
  -6  -3 -11  129.64   12.59
  -6  -3 -12  287.52   17.01
   6   3  12  292.39   17.37
  -6  -3 -12  268.47   17.96
  -6  -3 -13   92.50   10.33
   6   3  13   72.60    9.66
  -6  -3 -13   98.19   11.96
  -6  -3 -14  134.73   11.46
   6   3  14  141.14   11.33
  -6  -3 -14  115.60   12.41
  -6  -3 -15   55.59    9.16
   6   3  15   61.28    7.94
  -6  -3 -15   62.31   10.47
  -6  -3 -16   39.80    8.48
   6   3  16    8.12    7.67
  -6  -3 -16   12.68    9.11
  -6  -3 -17    5.05    7.35
   6   3  17    4.83    7.49
  -6  -3 -17   11.37   10.15
  -6  -3 -18   15.25    9.02
   6   3  18   24.64    9.02
  -6  -3 -18   23.10   10.87
  -6  -4  12   23.82    9.57
   6   4 -12   15.03    8.75
  -6  -4  12   21.12   10.87
   6   4 -12   10.74    9.48
  -6  -4  11  -13.94    9.79
   6   4 -11   -6.95    8.53
  -6  -4  11   -1.26   10.96
   6   4 -11   -6.59    9.16
  -6  -4  10   10.20    9.84
   6   4 -10   13.45    9.11
  -6  -4  10   31.99   10.92
   6   4 -10   17.73    8.84
  -6  -4   9  126.70   11.96
   6   4  -9  128.33   11.73
  -6  -4   9  129.82   13.31
   6   4  -9  138.16   12.95
  -6  -4   8  258.50   16.24
   6   4  -8  242.67   15.48
  -6  -4   8  263.24   18.45
   6   4  -8  284.22   19.13
  -6  -4   7   -5.46    8.35
   6   4  -7    8.75    7.58
  -6  -4   7    5.23    9.02
   6   4  -7   13.76    8.84
  -6  -4   6   54.33    9.84
   6   4  -6   83.88    9.79
  -6  -4   6   88.08   12.14
   6   4  -6   71.74   11.15
  -6  -4   5   95.97   11.01
   6   4  -5   83.97    9.57
  -6  -4   5   79.01   10.60
   6   4  -5   68.81    9.57
  -6  -4   4 1025.17   47.24
   6   4  -4  932.22   42.82
  -6  -4   4  977.79   51.44
   6   4  -4  992.23   52.25
  -6  -4   3    7.72    6.86
   6   4  -3   13.27    6.77
  -6  -4   3    1.67    7.26
   6   4  -3    0.14    6.86
  -6  -4   2   34.34    6.81
   6   4  -2   25.58    6.54
  -6  -4   2   37.45    9.25
   6   4  -2   36.19    7.45
  -6  -4   1   15.30    5.46
   6   4  -1   20.08    5.82
  -6  -4   1   26.04    8.17
  -6  -4   0  257.56   14.03
   6   4   0  267.89   14.62
  -6  -4   0  293.20   18.18
  -6  -4  -1  565.83   26.85
  -6  -4  -1  590.19   32.17
  -6  -4  -2  196.69   11.91
  -6  -4  -2  206.97   14.26
  -6  -4  -3   36.37    6.72
  -6  -4  -3   26.80    5.69
  -6  -4  -4   97.82    8.35
  -6  -4  -5  175.84   11.46
  -6  -4  -6    7.58    6.23
  -6  -4  -7    0.81    6.77
   6   4   7    0.50    6.18
  -6  -4  -8   16.83    7.08
   6   4   8   15.34    6.50
  -6  -4  -8    3.56    8.39
  -6  -4  -9  225.38   14.89
   6   4   9  223.04   14.44
  -6  -4  -9  234.95   16.92
  -6  -4 -10  164.02   12.36
   6   4  10  127.97   10.65
  -6  -4 -10  155.81   13.13
  -6  -4 -11  118.54   11.28
   6   4  11  156.39   11.73
  -6  -4 -11  119.89   11.73
  -6  -4 -12    7.90    7.99
   6   4  12    6.14    7.72
  -6  -4 -12   12.81    8.98
  -6  -4 -13   72.42    9.30
   6   4  13   58.16    8.62
  -6  -4 -13   78.02   11.46
  -6  -4 -14  305.75   17.82
   6   4  14  242.12   14.85
  -6  -4 -14  239.73   16.88
  -6  -4 -15   22.02    8.12
   6   4  15    8.71    6.95
  -6  -4 -15   -2.39    9.52
  -6  -4 -16    3.93    7.22
   6   4  16   10.74    6.45
  -6  -4 -16    0.72    9.57
  -6  -4 -17   30.28    7.85
   6   4  17   26.35    8.21
  -6  -4 -17   21.57    9.79
  -6  -4 -18   29.51    9.34
   6   4  18   27.93    8.35
  -6  -4 -18   10.65    9.39
  -6  -5  12   -3.97   10.60
   6   5 -12   -6.63   10.24
  -6  -5  12   -5.82   10.96
   6   5 -12  -13.54    9.97
  -6  -5  11    6.59    9.75
   6   5 -11    2.62    8.53
  -6  -5  11    6.27   11.64
   6   5 -11    5.28   10.20
  -6  -5  10   20.35   10.56
   6   5 -10   10.24    8.98
  -6  -5  10   33.21   12.09
   6   5 -10   27.39    9.75
  -6  -5   9  106.58   10.92
   6   5  -9  123.18   11.78
  -6  -5   9   92.05   12.09
   6   5  -9  136.04   12.63
  -6  -5   8    8.21    8.44
   6   5  -8   -1.85    8.03
  -6  -5   8   -0.36    9.61
   6   5  -8   24.86    9.57
  -6  -5   7  139.83   12.14
   6   5  -7  173.85   13.27
  -6  -5   7  152.47   14.17
   6   5  -7  139.88   13.31
  -6  -5   6  242.35   14.89
   6   5  -6  262.43   15.57
  -6  -5   6  240.50   17.82
   6   5  -6  266.58   17.82
  -6  -5   5  270.23   16.02
   6   5  -5  268.29   15.88
  -6  -5   5  268.38   18.59
   6   5  -5  276.51   18.18
  -6  -5   4  459.34   23.42
   6   5  -4  467.01   23.55
  -6  -5   4  398.74   24.10
   6   5  -4  387.01   23.24
  -6  -5   3   -6.72    6.00
   6   5  -3    3.75    5.60
  -6  -5   3    2.39    9.30
   6   5  -3    0.68    7.40
  -6  -5   2  332.59   18.05
   6   5  -2  335.53   17.33
  -6  -5   2  327.90   20.80
   6   5  -2  322.71   19.85
  -6  -5   1   11.42    5.96
   6   5  -1   19.54    5.96
  -6  -5   1   34.29    8.57
  -6  -5   0  803.62   36.55
  -6  -5   0  809.03   43.09
  -6  -5  -1   46.16    5.87
  -6  -5  -1   53.42    9.39
  -6  -5  -2 1243.56   54.96
  -6  -5  -2 1296.80   66.92
  -6  -5  -3  294.28   15.34
  -6  -5  -3  295.41   15.30
  -6  -5  -4   72.60    6.95
  -6  -5  -5  441.16   22.02
  -6  -5  -6   66.51    8.35
  -6  -5  -7  405.33   21.03
   6   5   7  402.62   20.62
  -6  -5  -8   31.68    7.81
   6   5   8   30.82    7.13
  -6  -5  -9   11.51    6.86
   6   5   9   43.18    8.12
  -6  -5  -9   30.32    8.93
  -6  -5 -10   71.47    9.48
   6   5  10   58.12    8.66
  -6  -5 -10   56.81   10.51
  -6  -5 -11   25.36    7.85
   6   5  11   15.97    7.49
  -6  -5 -11   15.97    9.61
  -6  -5 -12    8.71    8.12
   6   5  12   -4.11    7.35
  -6  -5 -12    1.31    8.48
  -6  -5 -13  698.94   33.66
   6   5  13  712.93   33.98
  -6  -5 -13  708.86   38.85
  -6  -5 -14   -8.84    7.63
   6   5  14    1.53    6.45
  -6  -5 -14    5.23    9.88
  -6  -5 -15   63.89    9.75
   6   5  15   55.50    8.30
  -6  -5 -15   48.51    9.48
  -6  -5 -16   21.57    9.07
   6   5  16   14.17    7.81
  -6  -5 -16   18.32    9.93
  -6  -5 -17   13.63    8.26
   6   5  17    8.44    7.81
  -6  -5 -17   -0.63    8.66
  -6  -5 -18    9.25   11.87
  -6  -6  11    3.47    9.84
   6   6 -11  -10.20    9.61
  -6  -6  11    1.31   11.10
   6   6 -11   -1.94   10.24
  -6  -6  10   -2.39    9.84
   6   6 -10   12.72    9.34
  -6  -6  10   13.04   11.55
   6   6 -10   -0.05    8.84
  -6  -6   9    2.84    8.80
   6   6  -9    8.71    9.16
  -6  -6   9    0.14   10.38
   6   6  -9    0.59    9.48
  -6  -6   8   -2.84    8.80
   6   6  -8    3.38    7.99
  -6  -6   8    0.99    9.61
   6   6  -8   -1.22    7.67
  -6  -6   7  119.35   10.78
   6   6  -7   98.95   10.47
  -6  -6   7   98.82   12.00
   6   6  -7  123.18   12.63
  -6  -6   6   90.47   10.83
   6   6  -6   70.89    9.48
  -6  -6   6   76.66   11.73
   6   6  -6   82.89   10.51
  -6  -6   5  214.64   14.53
   6   6  -5  216.86   13.63
  -6  -6   5  177.37   15.48
   6   6  -5  207.74   15.61
  -6  -6   4  132.39   11.05
   6   6  -4  134.37   10.42
  -6  -6   4  126.66   12.59
   6   6  -4  107.12   11.78
  -6  -6   3  258.37   14.03
   6   6  -3  297.31   16.38
  -6  -6   3  310.21   20.03
   6   6  -3  258.19   17.01
  -6  -6   2   -1.17    5.55
   6   6  -2   -3.75    5.60
  -6  -6   2    5.37    7.81
   6   6  -2    6.00    5.60
  -6  -6   1   46.39    6.18
   6   6  -1   53.79    6.45
  -6  -6   1   51.03    9.30
  -6  -6   0  509.88   24.41
  -6  -6   0  462.95   26.44
  -6  -6  -1  343.96   17.78
  -6  -6  -1  368.19   22.25
  -6  -6  -2 2187.96   95.43
  -6  -6  -2 2174.42  109.87
  -6  -6  -3  113.03    8.53
  -6  -6  -3  112.22    8.57
  -6  -6  -4  492.28   23.73
  -6  -6  -5  -10.56    5.46
  -6  -6  -6  159.10   11.01
  -6  -6  -7  113.26    9.48
   6   6   7  113.89    9.07
  -6  -6  -8   19.18    6.90
   6   6   8   13.18    6.59
  -6  -6  -9  113.71   10.02
   6   6   9  114.16   10.02
  -6  -6  -9  101.34   12.18
  -6  -6 -10   16.11    7.76
   6   6  10    9.61    6.95
  -6  -6 -10   -0.63    9.11
  -6  -6 -11  753.99   36.10
   6   6  11  709.32   34.20
  -6  -6 -11  689.91   37.77
  -6  -6 -12  291.31   17.10
   6   6  12  246.14   15.34
  -6  -6 -12  271.27   18.91
  -6  -6 -13  673.67   32.58
   6   6  13  699.84   33.66
  -6  -6 -13  748.12   41.15
  -6  -6 -14   86.59   10.15
   6   6  14   75.53    9.02
  -6  -6 -14   71.11   10.60
  -6  -6 -15  120.88   10.92
   6   6  15  120.16    9.66
  -6  -6 -15  119.03   13.00
  -6  -6 -16   -6.95    8.03
   6   6  16   -7.76    6.59
  -6  -6 -16   -6.32    9.93
  -6  -6 -17    7.40    8.71
   6   6  17   -2.57    7.54
  -6  -6 -17    6.18    9.16
  -6  -7  11  -16.51   11.15
   6   7 -11   -6.18    9.97
  -6  -7  11  -12.50   10.60
   6   7 -11    9.52   11.01
  -6  -7  10    8.26    9.70
   6   7 -10   -9.39    8.93
  -6  -7  10    5.41   10.74
   6   7 -10   -7.49    9.61
  -6  -7   9   -8.12    9.30
   6   7  -9    7.17    8.12
  -6  -7   9    1.58   10.02
   6   7  -9   -3.65    8.66
  -6  -7   8   85.24   11.24
   6   7  -8   82.21   10.06
  -6  -7   8   95.93   11.91
   6   7  -8   96.97   10.42
  -6  -7   7  -13.85    7.94
   6   7  -7   -0.36    7.40
  -6  -7   7   -5.64    9.39
   6   7  -7   13.22    8.21
  -6  -7   6  196.51   13.31
   6   7  -6  170.38   12.27
  -6  -7   6  170.06   14.66
   6   7  -6  168.58   13.81
  -6  -7   5   39.98    8.21
   6   7  -5   26.71    7.94
  -6  -7   5   31.77   10.24
   6   7  -5   26.80    9.30
  -6  -7   4  287.74   16.70
   6   7  -4  277.86   15.70
  -6  -7   4  273.48   18.73
   6   7  -4  291.98   19.36
  -6  -7   3    9.02    7.17
   6   7  -3   11.24    6.27
  -6  -7   3   11.64    8.53
   6   7  -3   23.28    8.44
  -6  -7   2   71.07    7.72
   6   7  -2   60.82    7.13
  -6  -7   2   77.61   10.42
  -6  -7   1  555.90   25.99
  -6  -7   1  589.74   32.89
  -6  -7   0  146.42    9.02
  -6  -7   0  170.02   13.99
  -6  -7  -1 1022.46   45.35
  -6  -7  -1  988.17   52.12
  -6  -7  -2   51.08    5.64
  -6  -7  -2   44.90    5.19
  -6  -7  -2   46.84    9.02
  -6  -7  -3  304.89   15.21
  -6  -7  -3  281.56   14.44
  -6  -7  -3  316.17   19.85
  -6  -7  -4  155.85    9.79
  -6  -7  -5  385.48   19.40
  -6  -7  -6   20.17    6.41
  -6  -7  -7  339.32   17.87
  -6  -7  -8   61.23    7.99
   6   7   8   73.46    7.94
  -6  -7  -9   -1.67    6.81
   6   7   9    6.18    6.63
  -6  -7 -10   60.73    9.34
   6   7  10   77.02    8.93
  -6  -7 -10   78.65   10.56
  -6  -7 -11   98.37   10.15
   6   7  11   99.76   10.38
  -6  -7 -11   75.08   10.83
  -6  -7 -12  595.61   29.46
   6   7  12  599.22   29.33
  -6  -7 -12  556.35   32.13
  -6  -7 -13   39.80    9.02
   6   7  13   53.38    8.62
  -6  -7 -13   42.91   10.20
  -6  -7 -14  673.67   32.67
   6   7  14  632.61   30.82
  -6  -7 -14  656.07   36.28
  -6  -7 -15   13.40    7.99
   6   7  15   10.65    7.22
  -6  -7 -15   11.46    9.75
  -6  -7 -16   74.90   10.06
   6   7  16   64.39    9.25
  -6  -7 -16   85.05   10.83
  -6  -7 -17    8.48    9.16
   6   7  17    5.50    7.67
  -6  -7 -17    1.67    9.84
  -6  -8  10   -3.29   10.96
   6   8 -10  -11.87    9.66
  -6  -8  10    5.60   10.02
   6   8 -10    3.11    9.07
  -6  -8   9    9.52    9.11
   6   8  -9    7.45    8.66
  -6  -8   9   -2.08    9.57
   6   8  -9   -7.94    8.35
  -6  -8   8    6.41    9.79
   6   8  -8    8.26    7.67
  -6  -8   8   29.83   10.56
   6   8  -8   19.13    9.39
  -6  -8   7  133.11   12.68
   6   8  -7  114.84   11.28
  -6  -8   7  141.73   12.72
   6   8  -7  123.86   11.55
  -6  -8   6  115.51   10.15
   6   8  -6  127.83   10.69
  -6  -8   6  120.39   12.77
   6   8  -6  122.91   12.23
  -6  -8   5   19.90    7.81
   6   8  -5    2.12    6.77
  -6  -8   5   10.51    9.25
   6   8  -5   10.02    9.25
  -6  -8   4  963.35   43.77
   6   8  -4  956.58   43.59
  -6  -8   4  981.40   51.98
   6   8  -4  938.08   49.50
  -6  -8   3  172.05   11.01
   6   8  -3  165.96   11.19
  -6  -8   3  157.29   13.58
   6   8  -3  169.16   13.81
  -6  -8   2  158.06   10.74
   6   8  -2  151.29   10.11
  -6  -8   2  154.41   13.63
  -6  -8   1  352.67   17.82
  -6  -8   1  353.76   21.97
  -6  -8   0  226.02   12.14
  -6  -8   0  225.56   16.20
  -6  -8  -1  856.41   38.26
  -6  -8  -1  837.01   37.50
  -6  -8  -1  832.50   44.85
  -6  -8  -2 1820.67   79.32
  -6  -8  -2 1860.82   80.81
  -6  -8  -2 1876.17   95.66
  -6  -8  -3  478.74   22.79
  -6  -8  -3  462.50   21.52
  -6  -8  -3  447.11   26.13
  -6  -8  -4   24.00    5.46
  -6  -8  -4   19.99    4.51
  -6  -8  -5 1023.36   45.71
  -6  -8  -6  222.99   12.81
  -6  -8  -7   13.63    6.68
  -6  -8  -8   15.39    7.04
   6   8   8    0.45    5.82
  -6  -8  -9   13.09    8.08
   6   8   9   20.26    7.26
  -6  -8 -10   47.38    9.16
   6   8  10   34.02    7.85
  -6  -8 -10   35.10    9.34
  -6  -8 -11  642.53   31.00
   6   8  11  655.17   31.90
  -6  -8 -11  640.73   35.69
  -6  -8 -12    3.20    7.85
   6   8  12   14.75    7.31
  -6  -8 -12    1.90    8.53
  -6  -8 -13  598.77   29.10
   6   8  13  621.78   30.19
  -6  -8 -13  629.00   35.15
  -6  -8 -14   92.23   10.38
   6   8  14   82.57    9.16
  -6  -8 -14  108.83   11.60
  -6  -8 -15   87.85   10.42
   6   8  15   83.97    9.66
  -6  -8 -15   75.35   11.87
  -6  -8 -16    0.50    7.67
   6   8  16    3.52    7.04
  -6  -8 -16    7.22    8.53
  -6  -8 -17   37.81   10.38
   6   8  17   54.33    9.30
  -6  -8 -17   50.90   11.15
  -6  -9  10   17.24   11.73
   6   9 -10   -1.31   12.54
  -6  -9  10   -7.31   11.10
   6   9 -10    9.20    9.52
  -6  -9   9   32.17   11.60
   6   9  -9    4.92    9.16
  -6  -9   9    4.11   10.74
   6   9  -9   14.03    8.93
  -6  -9   8   27.21   10.74
   6   9  -8    7.54    9.07
  -6  -9   8   10.60    8.89
   6   9  -8   20.44    8.89
  -6  -9   7   46.52   10.51
   6   9  -7   53.24    8.80
  -6  -9   7   44.58   10.33
   6   9  -7   42.05    8.84
  -6  -9   6   32.76    9.30
   6   9  -6   40.20    8.17
  -6  -9   6   31.86    9.48
   6   9  -6   21.88    8.57
  -6  -9   5  532.44   26.31
   6   9  -5  504.01   24.68
  -6  -9   5  555.90   31.68
   6   9  -5  532.44   30.05
  -6  -9   4   69.76    7.81
   6   9  -4   64.84    7.63
  -6  -9   4   74.32   11.19
   6   9  -4   71.16   10.60
  -6  -9   3    0.59    6.36
   6   9  -3   -0.50    5.60
  -6  -9   3    1.85    8.44
  -6  -9   2  819.86   37.09
  -6  -9   2  948.91   50.54
  -6  -9   1  433.98   20.53
  -6  -9   1  405.15   24.37
  -6  -9   0  107.62    7.31
  -6  -9   0  102.83   11.01
  -6  -9  -1  551.84   25.27
  -6  -9  -1  542.36   24.86
  -6  -9  -1  469.27   26.94
  -6  -9  -2   46.57    4.96
  -6  -9  -2   36.68    5.23
  -6  -9  -2   23.46    8.75
  -6  -9  -3   15.03    4.65
  -6  -9  -3   14.21    4.06
  -6  -9  -3    7.13    7.67
  -6  -9  -4   16.02    4.65
  -6  -9  -4   18.86    4.65
  -6  -9  -4   20.80    7.81
  -6  -9  -5   34.65    5.82
  -6  -9  -6    0.27    5.32
  -6  -9  -7   44.67    7.13
  -6  -9  -8   -4.56    6.72
   6   9   8   -0.59    5.78
  -6  -9  -9    1.53    6.54
   6   9   9   16.79    7.22
  -6  -9 -10   87.27    9.52
   6   9  10  122.24   10.06
  -6  -9 -10  108.38   11.46
  -6  -9 -11   53.92    9.07
   6   9  11   65.83    8.53
  -6  -9 -11   45.66    9.02
  -6  -9 -12   62.49    9.34
   6   9  12   65.65    8.26
  -6  -9 -12   85.42   11.24
  -6  -9 -13  372.48   19.99
   6   9  13  365.08   19.45
  -6  -9 -13  375.14   22.97
  -6  -9 -14   29.06    8.53
   6   9  14   39.08    8.17
  -6  -9 -14   31.63    9.70
  -6  -9 -15   -2.80    8.71
   6   9  15  -14.17    7.45
  -6  -9 -15   -2.17    9.48
  -6  -9 -16   24.05    9.79
   6   9  16   13.90    7.81
  -6  -9 -16   21.12   10.42
  -6 -10   9   19.31   12.90
   6  10  -9    2.66   11.87
  -6 -10   9    4.69   10.15
   6  10  -9   13.63    8.84
  -6 -10   8   27.30   11.51
   6  10  -8   11.46    9.88
  -6 -10   8   14.12    9.20
   6  10  -8   14.85    8.57
  -6 -10   7   97.73   12.36
   6  10  -7   86.99   11.01
  -6 -10   7   74.63   10.20
   6  10  -7   67.41    9.39
  -6 -10   6  267.80   16.79
   6  10  -6  253.13   15.21
  -6 -10   6  282.06   18.36
   6  10  -6  206.25   15.12
  -6 -10   5   86.18    9.79
   6  10  -5   81.67    8.89
  -6 -10   5   80.27   11.05
   6  10  -5   97.10   10.33
  -6 -10   4   26.89    7.49
   6  10  -4    5.64    6.59
  -6 -10   4   13.90    8.75
  -6 -10   3   57.44    7.58
  -6 -10   3   67.46   10.65
  -6 -10   2   10.15    5.19
  -6 -10   2   11.37    8.62
  -6 -10   1  396.85   18.95
  -6 -10   1  389.00   23.51
  -6 -10   0   87.90   11.46
  -6 -10  -1  441.29   20.17
  -6 -10  -1  451.22   20.44
  -6 -10  -1  428.12   25.27
  -6 -10  -2  154.09    7.99
  -6 -10  -2  145.70    7.99
  -6 -10  -2  150.12   12.72
  -6 -10  -3   83.39    5.64
  -6 -10  -3   87.09    5.91
  -6 -10  -3   83.25   10.51
  -6 -10  -4   14.44    7.45
  -6 -10  -5    0.95    5.05
  -6 -10  -5   -1.49    4.02
  -6 -10  -5   -3.88    6.81
  -6 -10  -6    5.32    5.87
  -6 -10  -7   22.56    6.27
  -6 -10  -8   35.29    7.35
  -6 -10  -9   23.15    6.95
   6  10   9   28.29    7.04
  -6 -10 -10   42.37    8.44
   6  10  10   33.93    8.03
  -6 -10 -11   11.87    7.81
   6  10  11   21.43    7.81
  -6 -10 -11   -0.77    8.39
  -6 -10 -12  368.83   19.85
   6  10  12  372.71   19.67
  -6 -10 -12  337.96   20.89
  -6 -10 -13    8.66    7.85
   6  10  13    2.53    6.90
  -6 -10 -13   -1.58    8.98
  -6 -10 -14   60.28    9.43
   6  10  14   78.74    9.30
  -6 -10 -14   45.71    9.97
  -6 -10 -15   43.05    9.61
   6  10  15   51.75    8.71
  -6 -10 -15   37.63   10.51
  -6 -10 -16   19.99   11.64
   6  10  16   10.87    7.67
  -6 -10 -16   12.27    9.43
  -6 -11   8   38.40   13.04
   6  11  -8   56.00   12.14
  -6 -11   8   37.59   11.33
   6  11  -8   49.86    9.11
  -6 -11   7   35.56   10.92
   6  11  -7   18.45   10.33
  -6 -11   7   33.89    9.61
   6  11  -7   23.46    9.43
  -6 -11   6   29.69    9.88
   6  11  -6   37.72    9.39
  -6 -11   6   44.45    9.30
   6  11  -6   42.19    9.11
  -6 -11   5    6.81    7.63
   6  11  -5    2.62    8.30
  -6 -11   5   -1.35    8.48
  -6 -11   4  135.19    9.79
  -6 -11   4  102.52   11.87
  -6 -11   3    8.66    5.23
  -6 -11   3    5.46    8.39
  -6 -11   2   32.53    4.47
  -6 -11   2   32.80    8.80
  -6 -11   1   25.76    8.93
  -6 -11   0   93.54   11.01
  -6 -11  -1  470.62   27.21
  -6 -11  -2  289.95   18.64
  -6 -11  -3  108.16   10.56
  -6 -11  -4   15.03    3.65
  -6 -11  -4   16.83    3.52
  -6 -11  -4   21.16    7.63
  -6 -11  -5  431.91   20.35
  -6 -11  -5  423.38   19.85
  -6 -11  -5  432.99   25.31
  -6 -11  -6   44.40    6.09
  -6 -11  -7   52.12    6.81
  -6 -11  -8   12.59    6.86
  -6 -11  -9   12.32    6.99
  -6 -11 -10  233.05   14.71
   6  11  10  218.25   13.72
  -6 -11 -11  310.30   17.64
   6  11  11  325.15   17.73
  -6 -11 -11  317.16   19.76
  -6 -11 -12   11.33    8.12
   6  11  12   18.59    7.72
  -6 -11 -12   17.69    9.11
  -6 -11 -13   45.26    9.30
   6  11  13   39.08    8.17
  -6 -11 -13   49.72   10.33
  -6 -11 -14  118.99   11.64
   6  11  14  118.04   11.15
  -6 -11 -14  108.34   11.78
  -6 -11 -15   -7.85    9.02
   6  11  15    0.27    7.94
  -6 -11 -15   19.94   10.06
  -6 -12   7   53.24   10.78
   6  12  -7   41.56   11.64
  -6 -12   7   91.82   12.05
  -6 -12   6    2.30    9.11
  -6 -12   6    4.51    8.89
  -6 -12   5   94.71    8.93
  -6 -12   5   86.95   11.24
  -6 -12   4   23.78    5.46
  -6 -12   4   35.47    9.48
  -6 -12   3  -21.70    8.30
  -6 -12   2    6.14    8.66
  -6 -12   1    6.00    8.53
  -6 -12   0  521.16   29.60
  -6 -12  -1    7.81    8.08
  -6 -12  -2  566.28   31.36
  -6 -12  -3    4.06    7.49
  -6 -12  -4  184.68   13.81
  -6 -12  -5   83.93   10.06
  -6 -12  -6   61.14    6.05
  -6 -12  -6   54.42    5.87
  -6 -12  -6   72.83    9.57
  -6 -12  -7   -6.23    5.46
  -6 -12  -8    2.30    6.00
  -6 -12  -9   13.58    7.22
  -6 -12 -10  130.31   11.33
   6  12  10  140.78   11.37
  -6 -12 -11   90.60   10.56
   6  12  11   75.44    9.52
  -6 -12 -11   67.01    9.48
  -6 -12 -12   87.36    9.57
   6  12  12   66.96    9.52
  -6 -12 -12   74.50    9.70
  -6 -12 -13  110.68   11.28
   6  12  13  112.71   11.78
  -6 -12 -13   91.19   11.24
  -6 -12 -14    1.67    9.39
   6  12  14  -19.54    8.35
  -6 -12 -14   -6.59    9.48
  -6 -12 -15    0.09   10.15
   6  12  15   12.09   10.33
  -6 -12 -15   19.90   10.11
  -6 -13   6   -2.48    6.77
  -6 -13   6    7.90    9.97
  -6 -13   5   66.92   10.78
  -6 -13   4   13.27    9.34
  -6 -13   3    4.69    8.57
  -6 -13   2   -9.25    9.02
  -6 -13   1  241.90   16.74
  -6 -13   0   88.57   10.38
  -6 -13  -1  804.97   43.05
  -6 -13  -2  102.02   10.56
  -6 -13  -3   89.88    9.84
  -6 -13  -4  129.09   11.10
  -6 -13  -5   55.14    8.66
  -6 -13  -6   23.91    7.81
  -6 -13  -7    7.40    4.96
  -6 -13  -7   13.04    5.37
  -6 -13  -7   20.94    8.21
  -6 -13  -8   11.87    7.22
  -6 -13  -9   15.57    7.90
  -6 -13 -10  231.34   14.44
  -6 -13 -11   13.49    8.62
  -6 -13 -11   -2.66    7.90
  -6 -13 -12  155.40   13.31
   6  13  12  115.02   11.42
  -6 -13 -12  141.73   12.81
  -6 -13 -13   80.36   11.73
   6  13  13   98.82   11.51
  -6 -13 -13   80.59   11.01
  -6 -13 -14   42.46   11.05
   6  13  14   50.27   10.15
  -6 -13 -14   72.47   10.56
  -6 -14   5   -2.84    9.93
  -6 -14   4   17.46    8.98
  -6 -14   3   -1.40    8.08
  -6 -14   2   51.89    9.52
  -6 -14   1   54.55   10.24
  -6 -14   0  181.43   14.62
  -6 -14  -1  374.60   22.65
  -6 -14  -2   11.60    8.35
  -6 -14  -3  203.50   14.98
  -6 -14  -4   -5.96    7.45
  -6 -14  -5   60.73    8.71
  -6 -14  -6    1.71    8.21
  -6 -14  -7   33.25    8.21
  -6 -14  -8   38.08    6.90
  -6 -14  -8   45.17    5.96
  -6 -14  -8   48.60    9.34
  -6 -14  -9  165.64   11.69
  -6 -14 -10    4.96    9.07
  -6 -14 -11   98.00   12.27
  -6 -14 -11  103.51   10.78
  -6 -14 -12  165.19   15.61
  -6 -14 -12  149.44   12.23
  -6 -14 -13   37.59   12.45
   6  14  13   35.24   10.42
  -6 -14 -13   36.41    9.61
  -6 -15   3   24.77    9.07
  -6 -15   2    1.13    7.94
  -6 -15   1   17.78    8.53
  -6 -15   0   14.44    8.93
  -6 -15  -1    4.60    8.62
  -6 -15  -2  101.39   11.01
  -6 -15  -3   -5.50    9.07
  -6 -15  -4   25.99    8.26
  -6 -15  -5   48.91    9.11
  -6 -15  -6    1.80    8.35
  -6 -15  -7   25.27    8.62
  -6 -15  -8    7.17    8.08
  -6 -15  -9   19.90    7.31
  -6 -15  -9   21.70    6.09
  -6 -15  -9   54.82    9.34
  -6 -15 -10   27.07    9.66
  -6 -15 -10   30.28    8.17
  -6 -15 -11  102.88   14.03
  -6 -15 -11  106.94    9.48
  -6 -16   1   87.94   11.05
  -6 -16   0   15.66    9.07
  -6 -16  -1  113.66   11.87
  -6 -16  -2   34.43   10.51
  -6 -16  -3    9.66    9.43
  -6 -16  -4   26.08   10.24
  -6 -16  -5    3.84    8.62
  -6 -16  -6   49.45    9.70
  -6 -16  -7   19.00    9.79
  -6 -16  -8   29.55    9.25
  -6 -16  -9    5.10    7.76
  -6 -16 -10   89.16   10.29
  -6 -17  -2  -11.28   10.11
  -6 -17  -3   93.49   12.68
  -6 -17  -4   -2.26    9.11
  -6 -17  -5    2.35    8.98
  -6 -17  -6    9.93    9.02
  -6 -17  -7    1.90    9.16
  -7  15   3    3.52   10.83
  -7  15   2   12.68   11.19
  -7  15   1  451.22   23.69
  -7  15   1  456.63   23.91
  -7  15   0    5.14    9.57
  -7  15   0    0.59    9.25
  -7  15  -1   42.78   10.02
  -7  15  -1   12.32    9.75
   7 -15   1   27.93    8.93
  -7  15  -2   92.00   11.01
  -7  15  -2   84.87   10.74
   7 -15   2   90.29   15.12
  -7  15  -3   82.48   10.96
  -7  15  -3   99.00   12.09
   7 -15   3   78.29   14.17
  -7  15  -4   -9.30    9.61
  -7  15  -4    7.99   10.69
   7 -15   4  -24.28   13.63
  -7  15  -5    8.84   10.74
  -7  15  -5    4.96    9.97
   7 -15   5   -7.58   14.08
  -7  15  -6   20.08   12.05
  -7  15  -6   17.15   10.92
   7 -15   6    3.70   16.83
  -7  14   5  -19.36   10.20
  -7  14   4   -0.05    8.03
  -7  14   3  107.21   11.73
  -7  14   2  255.89   15.84
  -7  14   1  101.52   10.69
  -7  14   0   21.12    8.39
  -7  14   0    9.02    9.11
  -7  14  -1  258.59   15.48
  -7  14  -1  276.42   16.15
   7 -14   1  268.43   16.29
  -7  14  -2  156.98   12.27
  -7  14  -2  183.65   12.77
   7 -14   2  168.71   14.26
  -7  14  -3    2.57    8.30
  -7  14  -3    2.80    6.72
   7 -14   3   -4.69   10.60
  -7  14  -4   -3.70    8.48
  -7  14  -4   -3.07    6.90
   7 -14   4   -4.96   11.96
  -7  14  -5   13.72    8.84
  -7  14  -5   12.59    9.11
   7 -14   5   18.27   13.99
  -7  14  -6   19.49    9.57
  -7  14  -6   17.37    9.30
   7 -14   6   11.28   14.30
  -7  14  -7  207.47   14.71
  -7  14  -7  180.22   13.85
   7 -14   7  190.14   18.86
  -7  14  -8    0.63   10.87
  -7  14  -8   17.60   11.05
  -7  14  -8   16.20   11.46
   7 -14   8   -4.92   16.02
  -7  13   7   27.70   10.42
   7 -13  -7   -5.50    8.84
  -7  13   6   28.83    9.16
   7 -13  -6   29.24    8.35
  -7  13   5   19.45    8.17
  -7  13   4   -5.69    8.71
  -7  13   3   13.04    7.94
  -7  13   2   76.30    8.80
  -7  13   1   66.37    9.39
  -7  13   0  195.33   13.31
  -7  13  -1   26.22    7.35
  -7  13  -1   12.68    7.81
   7 -13   1   14.03    6.14
  -7  13  -2   46.97    8.17
  -7  13  -2   47.15    8.21
   7 -13   2   32.44    8.71
  -7  13  -3   -4.02    6.95
  -7  13  -3   -1.22    7.22
   7 -13   3   -2.98    9.34
  -7  13  -4   15.07    7.26
  -7  13  -4   13.63    7.49
   7 -13   4    7.72   10.56
  -7  13  -5   18.86    7.40
  -7  13  -5   12.77    8.80
   7 -13   5   13.36   12.32
  -7  13  -6   99.00   10.65
  -7  13  -6   97.28    9.66
   7 -13   6   92.54   14.21
  -7  13  -7  194.43   13.31
  -7  13  -7  183.74   13.81
  -7  13  -7  192.99   16.11
   7 -13   7  199.89   18.59
  -7  13  -8   60.06    9.97
  -7  13  -8   42.01    8.80
  -7  13  -8   65.47   12.45
   7 -13   8   61.41   15.12
  -7  13  -9   77.20   10.96
  -7  13  -9   72.19   11.55
  -7  13  -9   71.88   12.32
   7 -13   9   45.98   17.15
  -7  13 -10   25.27   10.56
  -7  13 -10   42.10   11.10
  -7  13 -10   21.39   13.13
   7 -13  10   13.85   15.88
  -7  12   8   21.75    8.30
   7 -12  -8    9.66    9.43
  -7  12   7   36.73    8.12
   7 -12  -7   28.79    8.71
  -7  12   6   -4.83    8.12
   7 -12  -6    1.35    7.76
  -7  12   5   14.75    8.89
   7 -12  -5    5.05    7.76
  -7  12   4   -5.10    7.81
  -7  12   3  140.69   11.42
  -7  12   2   34.47    8.26
  -7  12   1  761.66   35.74
  -7  12   0   26.04    7.26
  -7  12  -1  110.64    9.57
   7 -12   1  116.14    8.21
  -7  12  -2   44.49    7.22
  -7  12  -2   52.21    8.08
   7 -12   2   44.81    8.30
  -7  12  -3   19.76    7.08
  -7  12  -3   17.24    7.13
   7 -12   3   25.18    8.35
  -7  12  -4   -0.09    6.99
  -7  12  -4    7.45    6.81
   7 -12   4   -3.75    9.75
  -7  12  -5   -2.84    6.95
  -7  12  -5  -13.31    7.26
   7 -12   5    2.17   10.20
  -7  12  -6  285.31   16.33
  -7  12  -6  286.25   16.15
  -7  12  -6  288.55   19.22
   7 -12   6  300.47   20.80
  -7  12  -7   12.27    7.40
  -7  12  -7   22.43    7.94
  -7  12  -7   22.70   10.29
   7 -12   7   23.42   12.72
  -7  12  -8  201.97   13.67
  -7  12  -8  206.57   13.94
  -7  12  -8  208.28   16.92
   7 -12   8  183.15   17.91
  -7  12  -9   29.01    8.35
  -7  12  -9   19.27    9.02
  -7  12  -9   -0.59   11.64
   7 -12   9    7.58   14.80
  -7  12 -10  207.24   14.03
  -7  12 -10  217.94   15.07
  -7  12 -10  187.21   16.97
   7 -12  10  182.92   20.30
  -7  12 -11   24.50    8.80
  -7  12 -11   26.71   10.92
  -7  12 -11   24.55   12.36
   7 -12  11   41.33   15.48
  -7  11   9    6.36    7.72
   7 -11  -9   17.10    9.79
  -7  11   8    2.84    7.81
   7 -11  -8   16.06    9.20
  -7  11   7    6.77    8.57
   7 -11  -7    9.20    8.12
  -7  11   6   41.60    8.89
   7 -11  -6   15.75    7.99
  -7  11   5   36.64    8.39
   7 -11  -5   40.93    8.03
  -7  11   4   18.09    7.72
   7 -11  -4    5.23    7.58
  -7  11   3   18.77    8.26
  -7  11   2   31.22    7.85
  -7  11   1  471.52   24.10
  -7  11   0    0.36    6.95
  -7  11  -1  330.16   18.23
   7 -11   2   -3.11    5.50
  -7  11  -3  138.52   10.47
  -7  11  -3  145.43   10.56
   7 -11   3  140.96   11.24
  -7  11  -4   16.33    7.58
  -7  11  -4   32.22    7.40
   7 -11   4   19.99    8.98
  -7  11  -5   22.79    7.58
  -7  11  -5   35.83    7.54
  -7  11  -5   21.66    8.08
   7 -11   5   31.95   10.15
  -7  11  -6   14.57    7.54
  -7  11  -6   39.44    7.90
  -7  11  -6   29.83    8.30
   7 -11   6   27.89   10.02
  -7  11  -7   76.03    9.39
  -7  11  -7   88.08    9.30
  -7  11  -7   76.21   10.42
   7 -11   7   64.03   11.91
  -7  11  -8  353.35   19.04
  -7  11  -8  396.35   20.49
  -7  11  -8  373.16   23.01
   7 -11   8  371.35   24.00
  -7  11  -9   25.22    7.99
  -7  11  -9   16.38    7.81
  -7  11  -9   25.85   10.78
   7 -11   9   45.71   13.18
  -7  11 -10   14.03    8.35
  -7  11 -10   -7.72   10.65
   7 -11  10   23.24   14.62
  -7  11 -11    2.30    8.03
  -7  11 -11   -2.03   11.01
   7 -11  11   10.65   14.39
  -7  11 -12   47.78   10.02
  -7  11 -12   12.77   11.24
   7 -11  12   42.64   15.16
  -7  10   9   56.31    8.66
   7 -10  -9   59.06    9.61
  -7  10   8   28.70    8.66
   7 -10  -8   64.57    9.11
  -7  10   7   -0.27    7.76
   7 -10  -7   -0.90    7.76
  -7  10   6    2.48    7.54
   7 -10  -6   19.90    8.17
  -7  10   5    0.59    7.45
   7 -10  -5    8.12    6.95
  -7  10   4    3.88    7.90
   7 -10  -4    2.08    6.63
  -7  10   3   -1.40    7.17
   7 -10  -3    0.36    6.68
  -7  10   2  339.72   18.82
  -7  10   1   92.77    9.57
  -7  10   0    6.54    6.36
  -7  10  -1  354.16   19.18
  -7  10  -2  635.77   30.50
   7 -10   2  636.67   32.89
  -7  10  -3  118.67    9.70
  -7  10  -3  139.07   10.56
   7 -10   3  121.65    9.79
  -7  10  -4   22.88    7.54
  -7  10  -4   30.46    7.04
   7 -10   4   29.46    8.57
  -7  10  -5  249.52   14.98
  -7  10  -5  243.70   14.44
  -7  10  -5  238.15   15.03
   7 -10   5  253.68   17.42
  -7  10  -6   41.87    8.48
  -7  10  -6   24.05    7.76
  -7  10  -6   34.61    8.08
   7 -10   6   45.84   10.42
  -7  10  -7  184.59   12.90
  -7  10  -7  180.22   12.41
  -7  10  -7  182.34   14.35
   7 -10   7  184.01   15.66
  -7  10  -8  515.29   25.72
  -7  10  -8  508.97   25.40
  -7  10  -8  577.11   32.76
   7 -10   8  542.36   31.63
  -7  10  -9   77.70    9.20
  -7  10  -9   80.09   11.60
   7 -10   9   67.01   12.45
  -7  10 -10    9.20    7.90
  -7  10 -10    7.67   11.33
   7 -10  10   17.06   12.45
  -7  10 -11   54.28    9.39
  -7  10 -11   44.90   11.33
   7 -10  11   63.35   14.08
  -7  10 -12    7.17    8.03
  -7  10 -12  -17.33   12.77
   7 -10  12   16.56   13.58
  -7  10 -13   -3.11    8.48
  -7  10 -13   -8.39   12.14
   7 -10  13    0.68   13.58
  -7   9  10   38.67    7.94
   7  -9 -10   31.04    8.84
   7  -9 -10   21.30   13.36
  -7   9   9  102.11   10.78
   7  -9  -9  138.43   11.05
   7  -9  -9   88.94   10.60
  -7   9   8   -0.81    7.76
   7  -9  -8   -8.44    7.58
   7  -9  -8   -1.67    5.28
  -7   9   7    1.67    8.08
   7  -9  -7   -1.22    8.08
  -7   9   6   22.02    8.30
   7  -9  -6   32.89    7.40
  -7   9   5   -1.49    7.49
   7  -9  -5   -9.70    7.58
  -7   9   4   96.02   10.29
   7  -9  -4   86.95    9.52
  -7   9   3  359.35   19.90
   7  -9  -3  326.86   18.00
  -7   9   2   17.73    7.49
   7  -9  -2   18.64    6.86
  -7   9   1  670.06   32.31
  -7   9   0  515.29   25.54
  -7   9  -1  267.21   15.43
  -7   9  -2    2.98    6.05
   7  -9   2    4.78    3.93
  -7   9  -3   46.88    7.54
  -7   9  -3   49.63    7.45
   7  -9   3   45.66    6.77
  -7   9  -4   -2.21    6.72
  -7   9  -4    6.23    6.41
  -7   9  -4    7.04    5.82
   7  -9   4   -2.57    7.31
  -7   9  -5   58.79    8.80
  -7   9  -5   56.76    7.54
  -7   9  -5   60.82    8.39
   7  -9   5   44.13    9.43
  -7   9  -6  510.78   25.58
  -7   9  -6  569.89   27.80
  -7   9  -6  476.49   27.39
   7  -9   6  485.96   27.98
  -7   9  -7   16.60    7.85
  -7   9  -7   16.33    7.94
  -7   9  -7   19.99    8.80
   7  -9   7   28.25   11.19
  -7   9  -8  147.73   11.42
  -7   9  -8  148.63   13.90
   7  -9   8  116.55   13.94
  -7   9  -9   33.84    7.94
  -7   9  -9   29.51   10.60
   7  -9   9   29.10   11.82
  -7   9 -10  145.74   11.37
  -7   9 -10  155.35   13.99
   7  -9  10  142.36   15.48
  -7   9 -11  -12.36    7.94
  -7   9 -11    5.82   10.06
   7  -9  11   30.50   12.86
  -7   9 -12   17.60    8.80
  -7   9 -12    1.58   10.69
   7  -9  12   -4.51   12.81
  -7   9 -13   -4.33    8.03
  -7   9 -13  -16.33   12.27
   7  -9  13    4.92   13.40
  -7   9 -14    1.49    8.21
  -7   9 -14   -4.42   10.87
   7  -9  14    7.31   13.18
  -7   8  11    5.19   10.02
   7  -8 -11    1.58    8.66
   7  -8 -11   -8.44   13.40
  -7   8  10  188.70   13.45
   7  -8 -10  173.81   12.81
   7  -8 -10  169.93   16.56
  -7   8   9   -0.27    9.48
   7  -8  -9   -3.52    7.45
   7  -8  -9    0.95    9.75
  -7   8   8   -3.65    7.13
   7  -8  -8   11.24    7.35
   7  -8  -8    8.35    7.90
  -7   8   7    9.34    7.63
   7  -8  -7   -3.29    7.08
   7  -8  -7   -2.08    5.23
  -7   8   6   15.48    7.63
   7  -8  -6   -5.37    7.17
  -7   8   5   49.14    8.84
   7  -8  -5   48.42    8.17
  -7   8   4   49.32    8.75
   7  -8  -4   39.03    7.99
  -7   8   3  222.54   14.48
   7  -8  -3  248.08   14.80
  -7   8   2   30.32    8.21
   7  -8  -2   29.10    7.26
  -7   8   1  837.01   39.21
  -7   8   0   97.42    9.79
  -7   8  -1  151.88   11.01
  -7   8  -2   -7.58    5.82
  -7   8  -3   74.14    8.26
   7  -8   3   81.81    7.35
  -7   8  -4  105.49    9.75
  -7   8  -4  135.46   10.56
  -7   8  -4  114.93    9.16
   7  -8   4  120.97   10.42
  -7   8  -5  362.37   19.04
  -7   8  -5  368.51   19.76
  -7   8  -5  341.17   19.54
   7  -8   5  389.49   22.65
  -7   8  -6  274.52   17.06
   7  -8   6  313.19   19.90
  -7   8  -7  513.49   25.76
  -7   8  -7  653.82   35.15
   7  -8   7  623.13   34.56
  -7   8  -8  420.22   22.25
  -7   8  -8  397.25   23.28
   7  -8   8  342.88   22.74
  -7   8  -9   12.18    7.63
  -7   8  -9    7.90    8.80
   7  -8   9    6.00   10.87
  -7   8 -10  195.24   13.31
  -7   8 -10  160.45   13.99
   7  -8  10  138.61   15.21
  -7   8 -11   -8.84    7.67
  -7   8 -11   -8.84    9.30
   7  -8  11  -12.41   11.55
  -7   8 -12    5.64    8.08
  -7   8 -12    3.47   11.10
   7  -8  12    4.96   11.69
  -7   8 -13   27.57    8.80
  -7   8 -13   17.69   10.51
   7  -8  13   16.47   13.67
  -7   8 -14    8.12    8.30
  -7   8 -14    0.50   11.05
   7  -8  14   13.90   13.04
  -7   8 -15   12.32   10.78
  -7   7  11   39.21    9.66
   7  -7 -11   21.93    8.62
   7  -7 -11   19.58   14.12
  -7   7  10   50.27   10.02
   7  -7 -10   56.63    9.66
   7  -7 -10   50.31   11.87
  -7   7   9   47.02    9.34
   7  -7  -9   61.68    9.66
   7  -7  -9   46.79   10.33
  -7   7   8    3.52    8.30
   7  -7  -8    3.29    8.12
   7  -7  -8   10.29    8.12
  -7   7   7    5.60    7.90
   7  -7  -7   -7.99    7.67
   7  -7  -7  -15.97    6.45
  -7   7   6  201.15   14.12
   7  -7  -6  170.33   12.68
   7  -7  -6  159.55    9.57
  -7   7   5    4.92    7.31
   7  -7  -5    1.08    7.17
  -7   7   4  820.32   38.71
   7  -7  -4  822.12   38.31
  -7   7   3    1.99    7.31
   7  -7  -3    8.35    6.90
  -7   7   2  438.86   22.97
   7  -7  -2  385.25   20.08
  -7   7   1  104.46   10.06
   7  -7  -1   79.64    8.53
  -7   7   0   62.31    7.90
  -7   7  -1   64.34    8.30
  -7   7  -2  146.92   11.05
  -7   7  -3   27.39    6.68
  -7   7  -3   23.46    4.65
   7  -7   3   16.24    5.05
  -7   7  -4   90.24    8.84
  -7   7  -4   77.02    8.30
  -7   7  -4   62.76    6.86
   7  -7   4   66.96    8.08
  -7   7  -5  582.52   28.34
  -7   7  -5  601.02   28.97
  -7   7  -5  576.66   31.40
   7  -7   5  607.34   32.85
  -7   7  -6  197.05   13.09
  -7   7  -6  236.75   15.93
   7  -7   6  217.85   15.21
  -7   7  -7 1359.07   61.05
  -7   7  -7 1375.76   70.89
   7  -7   7 1352.30   69.85
  -7   7  -8   82.30    9.61
  -7   7  -8   66.15   10.33
   7  -7   8   73.10   12.68
  -7   7  -9   24.73    7.94
  -7   7  -9   -1.99    8.98
   7  -7   9   -9.16   10.33
  -7   7 -10    7.17    7.49
  -7   7 -10   12.41    9.57
   7  -7  10   -9.57   10.69
  -7   7 -11  135.09   11.15
  -7   7 -11  124.54   13.58
   7  -7  11  106.89   13.94
  -7   7 -12   36.68    8.71
  -7   7 -12   25.67   11.19
   7  -7  12   29.01   12.68
  -7   7 -13   23.73    8.62
  -7   7 -13   28.07   11.73
   7  -7  13   40.02   13.67
  -7   7 -14   18.00    8.08
  -7   7 -14    6.18   11.28
   7  -7  14   15.39   12.77
  -7   7 -15   23.37    7.85
  -7   7 -15   13.09   10.29
   7  -7  15   43.23   12.90
  -7   6  11   48.24    9.66
   7  -6 -11   58.88    9.25
   7  -6 -11   57.89   14.66
  -7   6  10    7.99    9.52
   7  -6 -10   14.75    8.75
   7  -6 -10    7.67   10.60
  -7   6   9  145.11   11.64
   7  -6  -9  151.88   12.23
   7  -6  -9  160.72   14.71
  -7   6   8   13.72    8.75
   7  -6  -8   10.96    8.35
   7  -6  -8   -2.80    8.35
  -7   6   7   21.84    8.89
   7  -6  -7   -2.21    7.94
   7  -6  -7   12.77    6.77
  -7   6   6   16.97    8.75
   7  -6  -6   13.54    7.94
   7  -6  -6    4.20    5.19
  -7   6   5  108.16   10.83
   7  -6  -5  117.54   10.60
   7  -6  -5   87.09    6.14
  -7   6   4   -0.54    7.17
   7  -6  -4   -4.74    6.68
  -7   6   3  110.14   10.42
   7  -6  -3  106.44   10.60
  -7   6   2   99.90   10.06
   7  -6  -2   86.45    9.75
  -7   6   1  766.62   36.37
   7  -6  -1  850.10   39.84
  -7   6   0  165.28   11.64
  -7   6  -1   68.13    8.21
  -7   6  -2  260.44   15.25
  -7   6  -3   48.55    7.49
  -7   6  -3   43.18    4.42
  -7   6  -4  189.20   12.54
  -7   6  -4  199.80   12.95
  -7   6  -4  213.11   13.00
   7  -6   4  202.46   12.86
  -7   6  -5   -7.08    6.32
  -7   6  -5   -2.89    6.18
  -7   6  -5    2.08    6.00
   7  -6   5    0.36    7.04
  -7   6  -6 1372.16   61.50
  -7   6  -6 1509.33   76.93
   7  -6   6 1380.73   70.80
  -7   6  -7   49.09    8.44
  -7   6  -7   46.88    9.07
   7  -6   7   60.64   10.47
  -7   6  -8  663.29   32.31
  -7   6  -8  662.39   36.28
   7  -6   8  602.38   33.84
  -7   6  -9   97.96    9.93
  -7   6  -9   89.07   11.24
   7  -6   9  111.99   13.49
  -7   6 -10  178.73   12.81
  -7   6 -10  180.40   15.03
   7  -6  10  164.29   15.43
  -7   6 -11   45.39    8.30
  -7   6 -11   34.20   10.24
   7  -6  11   56.13   12.14
  -7   6 -12   40.20    8.26
  -7   6 -12   19.22   10.78
   7  -6  12   13.90   11.64
  -7   6 -13   30.14    8.80
  -7   6 -13   31.22   10.47
   7  -6  13   27.98   13.09
  -7   6 -14   -0.14    8.30
  -7   6 -14    6.45   10.96
   7  -6  14    8.62   13.13
  -7   6 -15   45.66    8.21
  -7   6 -15   56.09   11.69
   7  -6  15   58.57   13.90
  -7   6 -16    8.98    8.26
  -7   6 -16   -5.78   10.33
   7  -6  16   21.30   12.45
  -7   5  12  137.22   11.82
   7  -5 -12  127.47   13.00
   7  -5 -12  106.13   18.23
  -7   5  11   11.69    8.89
   7  -5 -11    6.45    8.48
   7  -5 -11    7.45   14.08
  -7   5  10   45.80   10.42
   7  -5 -10   49.32    9.16
   7  -5 -10   61.19   11.28
  -7   5   9  141.86   11.91
   7  -5  -9  148.90   12.09
   7  -5  -9  143.17   13.22
  -7   5   8   51.94    8.89
   7  -5  -8   54.51    9.02
   7  -5  -8   27.30    8.75
  -7   5   7    8.66    8.53
   7  -5  -7   -0.63    8.08
   7  -5  -7  -13.63    7.17
  -7   5   6   69.17    9.66
   7  -5  -6   85.82    9.70
   7  -5  -6   68.72    7.54
  -7   5   5   26.94    8.03
   7  -5  -5   54.28    8.89
   7  -5  -5   41.69    5.50
  -7   5   4    5.96    7.99
   7  -5  -4    9.11    7.94
   7  -5  -4    6.99    2.80
  -7   5   3  263.56   15.93
   7  -5  -3  248.40   15.79
  -7   5   2   -2.53    7.49
   7  -5  -2    8.08    7.40
  -7   5   1 1168.66   53.20
   7  -5  -1 1105.49   50.76
  -7   5   0  177.42   12.41
  -7   5  -1  712.93   33.93
  -7   5  -2    7.90    6.59
  -7   5  -3  129.91   10.06
  -7   5  -3  106.04    7.22
  -7   5  -4    3.07    6.36
  -7   5  -4    2.35    6.36
  -7   5  -4    4.83    4.78
  -7   5  -5  223.98   13.81
  -7   5  -5  241.18   14.48
   7  -5   5  234.32   14.75
  -7   5  -6  546.88   27.07
  -7   5  -6  631.71   33.66
   7  -5   6  633.06   34.20
  -7   5  -7   83.43    9.07
  -7   5  -7   81.94    8.98
   7  -5   7   61.95   10.92
  -7   5  -8  978.69   45.44
  -7   5  -8  944.85   49.54
   7  -5   8 1041.86   55.09
  -7   5  -9   33.25    8.62
  -7   5  -9   22.92    9.61
   7  -5   9   46.88   11.69
  -7   5 -10  363.05   19.99
  -7   5 -10  338.10   21.93
   7  -5  10  326.91   21.93
  -7   5 -11   -5.01    7.54
  -7   5 -11   23.60    9.75
   7  -5  11   10.29   11.51
  -7   5 -12   33.03    8.08
  -7   5 -12   25.85   11.05
   7  -5  12   37.36   11.91
  -7   5 -13   -1.40    8.17
   7  -5  13    7.72    5.82
  -7   5 -13    5.41   10.51
   7  -5  13    7.40   12.27
  -7   5 -14   41.38    9.11
   7  -5  14   55.45    7.81
  -7   5 -14   23.06   10.69
   7  -5  14   29.24   12.41
  -7   5 -15   48.37    9.34
   7  -5  15   53.24    8.93
  -7   5 -15   56.72   11.37
   7  -5  15   51.98   12.81
  -7   5 -16   84.15    9.39
   7  -5  16   89.79    9.16
  -7   5 -16   81.22   11.55
   7  -5  16   77.70   12.45
  -7   4  12   25.40    8.53
   7  -4 -12   15.12    9.61
   7  -4 -12   10.69   15.88
  -7   4  11   23.19    8.93
   7  -4 -11   14.94    8.75
   7  -4 -11    5.14   11.51
  -7   4  10  277.54   16.88
   7  -4 -10  362.46   20.08
   7  -4 -10  342.97   22.06
  -7   4   9   29.96    9.11
   7  -4  -9   38.13    8.12
   7  -4  -9   28.07    9.20
  -7   4   8   11.96    7.63
   7  -4  -8   12.59    7.22
   7  -4  -8   30.14    9.11
  -7   4   7   30.41    8.98
   7  -4  -7   27.21    8.12
  -7   4   7   25.81    7.81
   7  -4  -7   44.40    8.30
  -7   4   6   12.63    8.71
   7  -4  -6   25.54    8.21
  -7   4   6    9.97    6.99
   7  -4  -6   15.16    6.09
  -7   4   5   22.29    8.62
   7  -4  -5   20.30    8.17
   7  -4  -5   35.47    5.73
  -7   4   4  170.61   13.31
   7  -4  -4  185.63   13.40
   7  -4  -4  185.95   11.01
  -7   4   3    0.95    7.45
   7  -4  -3   18.59    7.35
  -7   4   2   35.15    8.26
   7  -4  -2   42.78    8.17
  -7   4   1  676.38   32.44
   7  -4  -1  703.45   33.75
  -7   4   0  336.88   18.68
   7  -4   0  341.53   18.36
  -7   4  -1  160.32   11.37
  -7   4  -2   69.85    8.35
  -7   4  -3 1132.11   51.12
  -7   4  -3 1155.57   58.16
  -7   4  -4    6.86    6.72
  -7   4  -4    5.87    4.83
  -7   4  -5  413.95   21.43
  -7   4  -5  346.40   19.76
  -7   4  -6  229.76   14.30
  -7   4  -6  251.28   15.88
   7  -4   6  225.47   15.30
  -7   4  -7  857.32   40.11
  -7   4  -7  883.03   46.70
   7  -4   7  824.38   44.04
  -7   4  -8    8.48    6.95
  -7   4  -8    8.75    8.12
   7  -4   8   12.90   10.38
  -7   4  -9   61.14    9.25
  -7   4  -9   56.22   10.11
   7  -4   9   65.74   12.27
  -7   4 -10   23.15    8.75
  -7   4 -10   16.56    9.48
   7  -4  10   32.76   11.37
  -7   4 -11   23.91    8.98
  -7   4 -11   23.87   10.29
   7  -4  11   36.14   11.10
  -7   4 -12    4.92    7.81
   7  -4  12   -1.58    6.27
  -7   4 -12    4.60   10.29
   7  -4  12   15.52   11.33
  -7   4 -13   56.31    9.25
   7  -4  13   49.63    7.72
  -7   4 -13   30.50   10.29
   7  -4  13   36.05   12.86
  -7   4 -14   80.77   10.02
   7  -4  14   84.65    8.35
  -7   4 -14   72.10   10.83
   7  -4  14   92.14   13.36
  -7   4 -15   18.91    8.21
   7  -4  15    3.02    7.08
  -7   4 -15   13.67   10.06
   7  -4  15   21.66   11.64
  -7   4 -16  108.74   10.33
   7  -4  16   96.92    8.71
  -7   4 -16  101.43   12.41
   7  -4  16   59.83   12.23
  -7   4 -17   17.06    8.57
   7  -4  17    7.35    7.22
  -7   4 -17   25.49   10.69
   7  -4  17   20.44   12.90
  -7   3  12   -0.27    8.75
   7  -3 -12   -1.53    8.89
  -7   3  12    8.84   11.69
   7  -3 -12   15.39   14.17
  -7   3  11  123.41   11.33
   7  -3 -11  130.04   12.86
  -7   3  11  119.08   14.48
   7  -3 -11  147.68   14.26
  -7   3  10   12.63    8.53
   7  -3 -10    6.63    8.30
  -7   3  10    5.10    9.97
   7  -3 -10    8.53   10.33
  -7   3   9  109.10   10.42
   7  -3  -9  128.42   11.64
  -7   3   9  108.61   11.96
   7  -3  -9  130.09   12.90
  -7   3   8   -0.32    8.44
   7  -3  -8   11.42    7.58
  -7   3   8    0.68    8.21
   7  -3  -8   21.88    8.80
  -7   3   7   53.47    9.30
   7  -3  -7   48.33    7.94
  -7   3   7   62.45   10.15
   7  -3  -7   52.93    9.02
  -7   3   6  109.96   11.60
   7  -3  -6  113.39   11.01
  -7   3   6  137.53   11.51
   7  -3  -6   99.09    9.11
  -7   3   5  525.22   27.12
   7  -3  -5  566.28   28.34
  -7   3   5  579.36   31.13
   7  -3  -5  564.93   30.10
  -7   3   4   -2.03    8.48
   7  -3  -4   -2.44    7.58
  -7   3   4   -0.86    4.87
   7  -3  -4   -4.60    4.56
  -7   3   3    7.76    7.17
   7  -3  -3    7.63    7.08
  -7   3   3    4.56    4.42
   7  -3  -3    0.77    3.70
  -7   3   2  727.36   34.47
   7  -3  -2  739.55   35.06
  -7   3   2  717.44   36.32
  -7   3   1  875.36   40.47
   7  -3  -1  867.24   40.47
  -7   3   0  208.69   13.31
   7  -3   0  227.78   14.21
  -7   3  -1   30.46    7.54
  -7   3  -2  191.09   12.50
  -7   3  -2  185.41   10.38
  -7   3  -3  279.30   16.02
  -7   3  -3  283.91   15.88
  -7   3  -4  376.36   19.72
  -7   3  -4  394.59   21.75
  -7   3  -5   66.83    8.30
  -7   3  -5   57.80    7.76
  -7   3  -6 1083.38   49.36
  -7   3  -6 1034.64   53.65
  -7   3  -7  421.26   21.88
  -7   3  -7  422.52   24.86
   7  -3   7  412.46   24.00
  -7   3  -8  716.99   34.25
  -7   3  -8  738.19   40.07
   7  -3   8  642.08   35.51
  -7   3  -9   -1.13    7.08
  -7   3  -9   -6.41    8.12
   7  -3   9   16.15   10.74
  -7   3 -10   49.05    8.17
  -7   3 -10   30.23    9.70
   7  -3  10   30.41   10.96
  -7   3 -11   77.25    9.84
   7  -3  11   58.52    8.89
  -7   3 -11   53.60   10.42
   7  -3  11   51.44   12.63
  -7   3 -12    6.72    8.57
   7  -3  12    4.69    6.23
  -7   3 -12    7.40    8.98
   7  -3  12   -1.22   10.69
  -7   3 -13  172.00   12.77
   7  -3  13  153.82   12.00
  -7   3 -13  123.27   13.00
   7  -3  13  146.51   14.53
  -7   3 -14    6.14    8.44
   7  -3  14    2.39    6.50
  -7   3 -14   -2.26    9.39
   7  -3  14   12.90   10.83
  -7   3 -15   72.92    9.57
   7  -3  15   51.57    8.21
  -7   3 -15   58.88   10.87
   7  -3  15   76.48   12.63
  -7   3 -16   23.15    7.67
   7  -3  16   10.92    7.13
  -7   3 -16   25.13   10.47
   7  -3  16   16.51   11.28
  -7   3 -17   75.76    9.70
   7  -3  17   36.23    7.67
  -7   3 -17   45.21   10.92
  -7   2  12  115.02   11.19
   7  -2 -12   82.21   10.92
  -7   2  12   98.91   13.36
   7  -2 -12  108.70   14.66
  -7   2  11    3.61    8.62
   7  -2 -11    0.77    7.81
  -7   2  11   -4.74   12.23
   7  -2 -11   -6.54    9.43
  -7   2  10   16.65    8.48
   7  -2 -10    4.20    7.31
  -7   2  10    3.43   10.56
   7  -2 -10   19.04    9.88
  -7   2   9   16.20    9.07
   7  -2  -9    3.43    8.80
  -7   2   9  -13.18    9.93
   7  -2  -9   -2.21    8.57
  -7   2   8    7.67    8.26
   7  -2  -8    3.25    7.54
  -7   2   8   18.77    9.11
   7  -2  -8   25.81    9.02
  -7   2   7  433.21   22.65
   7  -2  -7  436.87   23.06
  -7   2   7  447.07   26.44
   7  -2  -7  420.49   24.64
  -7   2   6  190.55   13.58
   7  -2  -6  164.06   12.72
  -7   2   6  168.26   14.30
   7  -2  -6  202.82   13.90
  -7   2   5    8.57    7.17
   7  -2  -5   -8.71    7.54
  -7   2   5   17.82    7.22
   7  -2  -5    7.31    6.86
  -7   2   4  210.63   14.62
   7  -2  -4  211.22   14.35
  -7   2   4  197.45   13.31
   7  -2  -4  204.67   12.86
  -7   2   3  884.84   41.33
   7  -2  -3  836.56   39.12
  -7   2   3  904.69   46.34
   7  -2  -3  837.01   42.91
  -7   2   2  162.98   12.36
   7  -2  -2  179.90   12.41
  -7   2   2  155.13    9.75
  -7   2   1  656.07   31.68
   7  -2  -1  608.24   29.46
  -7   2   1  527.47   27.16
  -7   2   0    6.72    7.35
   7  -2   0   17.01    6.99
  -7   2   0   11.42    3.34
  -7   2  -1   40.29    7.26
  -7   2  -1   31.18    3.88
  -7   2  -2   45.12    7.67
  -7   2  -2   30.19    4.47
  -7   2  -3  144.57   10.51
  -7   2  -3  157.52   10.29
  -7   2  -4  186.58   12.05
  -7   2  -5  753.08   35.38
  -7   2  -5  787.38   41.29
  -7   2  -6 1011.18   46.52
  -7   2  -6  992.68   51.39
  -7   2  -7   71.88    9.25
  -7   2  -7   96.24   10.65
  -7   2  -8  949.81   44.04
  -7   2  -8 1244.01   64.07
  -7   2  -9   -5.82    7.08
  -7   2  -9   -2.08    7.54
  -7   2 -10   99.67   10.56
   7  -2  10   95.61    9.57
  -7   2 -10   77.84   10.69
   7  -2  10  101.79   13.36
  -7   2 -11    8.57    7.76
   7  -2  11   19.85    6.99
  -7   2 -11    0.81    9.39
   7  -2  11   17.10   11.01
  -7   2 -12    2.98    8.98
   7  -2  12    2.62    6.63
  -7   2 -12   -0.18    9.11
   7  -2  12   -2.03   10.15
  -7   2 -13   25.13    8.80
   7  -2  13   27.39    7.72
  -7   2 -13   29.83   10.56
   7  -2  13    8.89   10.74
  -7   2 -14    7.76    7.13
   7  -2  14   18.27    6.63
  -7   2 -14   27.30   10.60
   7  -2  14   10.20    8.66
  -7   2 -15   65.97    9.75
   7  -2  15   95.21    9.88
  -7   2 -15   74.90   11.19
  -7   2 -16   -0.63    8.17
   7  -2  16   10.15    7.67
  -7   2 -16   24.05    9.16
  -7   2 -17   31.99    8.53
   7  -2  17    7.76    7.94
  -7   2 -17   17.96   10.20
  -7   1  12   46.79    9.25
   7  -1 -12   42.91    9.61
  -7   1  12   67.59   12.41
   7  -1 -12   52.43   12.36
  -7   1  11   24.28    9.88
   7  -1 -11   22.88    9.57
  -7   1  11   15.52   11.82
   7  -1 -11   31.27   11.55
  -7   1  10   19.40    8.30
   7  -1 -10   17.42    8.84
  -7   1  10   38.85   12.18
   7  -1 -10   21.84   10.69
  -7   1   9   10.83    7.67
   7  -1  -9    0.54    8.17
  -7   1   9    7.40   11.51
   7  -1  -9    5.96    9.16
  -7   1   8    6.81    7.67
   7  -1  -8   17.06    8.80
  -7   1   8   12.86    9.11
   7  -1  -8   12.86    8.57
  -7   1   7   24.91    8.89
   7  -1  -7   43.14    9.30
  -7   1   7   19.81    8.66
   7  -1  -7   16.29    8.17
  -7   1   6 1115.86   51.66
   7  -1  -6 1126.69   51.53
  -7   1   6 1156.47   59.92
   7  -1  -6 1191.67   61.46
  -7   1   5  287.52   17.91
   7  -1  -5  280.07   16.65
  -7   1   5  302.81   19.00
   7  -1  -5  317.25   19.22
  -7   1   4  571.24   28.52
   7  -1  -4  549.58   27.25
  -7   1   4  544.62   29.46
   7  -1  -4  493.18   26.76
  -7   1   3  520.25   26.35
   7  -1  -3  490.47   24.64
  -7   1   3  511.68   27.61
   7  -1  -3  563.57   30.10
  -7   1   2  577.56   28.43
   7  -1  -2  555.45   27.34
  -7   1   2  623.58   32.76
  -7   1   1  459.79   23.15
   7  -1  -1  446.84   22.83
  -7   1   1  408.31   21.97
  -7   1   0    1.80    6.54
   7  -1   0   11.42    7.40
  -7   1   0   11.10    4.06
  -7   1  -1   19.40    7.04
  -7   1  -1   22.15    4.20
  -7   1  -2   84.11    9.11
  -7   1  -3   24.10    7.22
  -7   1  -3   23.37    4.92
  -7   1  -4  182.88   12.00
  -7   1  -5 1598.67   71.02
  -7   1  -5 1794.04   90.38
  -7   1  -6  246.77   15.12
  -7   1  -6  205.67   13.90
  -7   1  -7 1339.67   60.28
  -7   1  -7 1345.53   68.95
  -7   1  -8  192.81   13.49
  -7   1  -8  208.82   14.21
  -7   1  -9   68.36    9.43
  -7   1  -9   71.20    9.97
  -7   1 -10  210.13   13.90
   7  -1  10  152.02   12.59
  -7   1 -10  195.11   15.21
  -7   1 -11    8.12    8.03
   7  -1  11   11.96    7.81
  -7   1 -11   -1.26    9.07
  -7   1 -12   -1.90    9.02
   7  -1  12   -9.34    7.72
  -7   1 -12    5.55    9.52
  -7   1 -13   71.16    9.16
   7  -1  13   76.53    9.43
  -7   1 -13   71.56   12.00
  -7   1 -14  190.41   13.18
   7  -1  14  186.49   13.04
  -7   1 -14  187.75   14.80
  -7   1 -15  133.43   11.46
   7  -1  15  125.75   10.06
  -7   1 -15  124.45   13.81
  -7   1 -16   34.52    8.93
   7  -1  16   34.47    7.58
  -7   1 -16   32.67   10.15
  -7   1 -17   -7.22    7.67
   7  -1  17    5.41    6.86
  -7   1 -17   24.23   10.06
  -7   0  12    0.32    8.53
   7   0 -12   12.68    9.39
  -7   0  12   23.19   11.60
   7   0 -12   14.35   11.64
  -7   0  11   88.80   10.83
   7   0 -11   93.22   11.55
  -7   0  11   99.85   13.67
   7   0 -11   53.88   11.24
  -7   0  10   70.98   10.60
   7   0 -10   35.92    9.57
  -7   0  10   47.92   12.63
   7   0 -10   40.38   10.29
  -7   0   9  215.59   14.12
   7   0  -9  196.14   13.94
  -7   0   9  198.85   16.42
   7   0  -9  129.91   12.90
  -7   0   8   14.08    8.03
   7   0  -8   18.59    8.75
  -7   0   8   24.10    9.70
   7   0  -8   18.95    9.34
  -7   0   7  261.71   15.84
   7   0  -7  258.14   16.33
  -7   0   7  266.76   18.41
   7   0  -7  255.89   17.37
  -7   0   6   -5.50    7.58
   7   0  -6    1.13    7.63
  -7   0   6    2.44    8.44
   7   0  -6    0.27    7.72
  -7   0   5    0.68    7.76
   7   0  -5   -1.13    7.45
  -7   0   5   -0.86    7.85
   7   0  -5   10.96    7.72
  -7   0   4  122.28   10.38
   7   0  -4  139.70   11.55
  -7   0   4  111.63   10.29
   7   0  -4   93.67    9.11
  -7   0   3   15.21    7.67
   7   0  -3   19.22    6.99
  -7   0   3   27.39    7.26
   7   0  -3   25.67    5.96
  -7   0   2   28.61    8.08
   7   0  -2   33.80    7.72
  -7   0   2   25.85    6.72
  -7   0   1   24.82    7.54
   7   0  -1   22.70    6.50
  -7   0   1   25.45    5.55
  -7   0   0  748.57   35.24
   7   0   0  781.96   36.64
  -7   0   0  668.25   34.61
  -7   0  -1   -0.63    6.86
  -7   0  -1    1.40    4.60
  -7   0  -2   66.69    7.63
  -7   0  -3  115.47    9.93
  -7   0  -5 1346.89   60.33
  -7   0  -5 1306.73   66.37
  -7   0  -6 1971.82   86.99
  -7   0  -6 1952.87   98.32
  -7   0  -7 1711.92   76.03
  -7   0  -7 1691.62   86.14
  -7   0  -8  388.05   20.85
  -7   0  -8  433.62   25.04
  -7   0  -9   19.76    7.76
   7   0   9    1.22    6.23
  -7   0  -9    2.08    9.02
  -7   0 -10    3.11    8.35
   7   0  10    1.85    7.26
  -7   0 -10    2.26    9.11
  -7   0 -11   -7.63    8.48
   7   0  11   10.42    7.72
  -7   0 -11   -9.93    8.80
  -7   0 -12  136.72   12.14
   7   0  12  132.52   10.87
  -7   0 -12  132.12   13.36
   7   0  13  348.39   18.45
  -7   0 -14  205.67   14.21
   7   0  14  204.09   13.18
  -7   0 -14  196.73   15.57
  -7   0 -15  125.84   11.01
   7   0  15  117.23   10.38
  -7   0 -15  122.91   12.81
  -7   0 -16   82.80    9.93
   7   0  16   62.90    7.17
  -7   0 -16   67.91   11.15
  -7   0 -17   54.33    9.43
   7   0  17   43.41    7.67
  -7   0 -17   38.40   11.46
  -7   0 -18   -1.44    9.84
   7   0  18    1.58    7.85
  -7   0 -18  -13.49   10.11
  -7  -1  12   52.48    9.34
   7   1 -12   45.12    9.34
  -7  -1  12   34.74   13.49
   7   1 -12   41.15   11.01
  -7  -1  11  116.87   11.82
   7   1 -11  125.08   12.32
  -7  -1  11  158.38   16.11
   7   1 -11  126.79   13.90
  -7  -1  10   32.17    9.48
   7   1 -10   37.14    9.25
  -7  -1  10   33.48   11.69
   7   1 -10   38.85    9.93
  -7  -1   9   18.05    8.89
   7   1  -9   19.76    8.80
  -7  -1   9   22.11   10.29
   7   1  -9   19.18    9.70
  -7  -1   8   79.96   11.10
   7   1  -8   80.32   10.42
  -7  -1   8   89.70   12.36
   7   1  -8   83.66   11.73
  -7  -1   7   40.07    9.75
   7   1  -7   47.87    9.48
  -7  -1   7   48.42    9.84
   7   1  -7   37.05    9.16
  -7  -1   6   -2.35    8.89
   7   1  -6   13.90    7.76
  -7  -1   6   -8.66    8.21
   7   1  -6  -16.29    8.93
  -7  -1   5  290.72   17.82
   7   1  -5  282.15   16.74
  -7  -1   5  274.66   18.27
   7   1  -5  326.23   20.30
  -7  -1   4   44.58    7.81
   7   1  -4   44.17    8.08
  -7  -1   4   46.84    8.80
   7   1  -4   35.92    7.94
  -7  -1   3   35.06    7.49
   7   1  -3   48.05    7.72
  -7  -1   3   70.39    8.80
   7   1  -3   45.62    7.40
  -7  -1   2  240.00   14.94
   7   1  -2  242.26   14.66
  -7  -1   2  258.05   16.06
   7   1  -2  264.77   15.84
  -7  -1   1  917.33   42.05
   7   1  -1  942.14   43.27
  -7  -1   1  968.31   50.09
  -7  -1   0   18.41    6.99
   7   1   0   20.21    7.22
  -7  -1   0   17.51    6.00
  -7  -1  -1   -5.50    6.90
  -7  -1  -1    9.25    5.73
  -7  -1  -2   68.09    8.35
  -7  -1  -3  419.77   22.02
  -7  -1  -5  749.92   35.24
  -7  -1  -6 1795.85   79.37
  -7  -1  -6 1849.09   93.67
  -7  -1  -7  105.63   10.29
  -7  -1  -7  101.61   10.78
  -7  -1  -8 1160.98   52.70
  -7  -1  -8 1201.14   62.81
  -7  -1  -9    1.53    6.32
   7   1   9    5.46    6.45
  -7  -1  -9   -2.98    8.44
  -7  -1 -10   -3.52    8.62
   7   1  10   -3.97    7.08
  -7  -1 -10   -2.57    8.75
  -7  -1 -11  155.63   12.59
   7   1  11  121.20   10.87
  -7  -1 -11  142.18   13.09
  -7  -1 -12    5.28    8.57
   7   1  12   10.78    7.76
  -7  -1 -12    7.04    8.66
  -7  -1 -13  574.85   28.52
   7   1  13  602.38   29.69
  -7  -1 -13  537.85   30.95
  -7  -1 -14  395.99   21.48
   7   1  14  409.35   21.79
  -7  -1 -14  362.91   23.19
  -7  -1 -15  134.51   11.55
   7   1  15  156.26   11.55
  -7  -1 -15  134.73   12.72
  -7  -1 -16   42.23    9.07
   7   1  16   51.12    7.04
  -7  -1 -16   45.84   10.29
  -7  -1 -17  175.16   12.95
   7   1  17  256.56   14.53
  -7  -1 -17  243.61   17.82
  -7  -1 -18   15.84    9.25
   7   1  18   -2.44    7.22
  -7  -1 -18   -1.58    9.61
  -7  -2  12   51.84   10.38
   7   2 -12   45.71    9.93
  -7  -2  12   35.92   13.09
   7   2 -12   44.54   11.60
  -7  -2  11   -5.41    8.80
   7   2 -11    7.94    8.21
  -7  -2  11    0.72   11.10
   7   2 -11    2.39   11.37
  -7  -2  10   22.34    9.57
   7   2 -10   27.12    8.26
  -7  -2  10   31.18   10.65
   7   2 -10   38.90    9.57
  -7  -2   9    4.92    7.94
   7   2  -9    7.31    7.26
  -7  -2   9   12.32   10.65
   7   2  -9   19.94   10.20
  -7  -2   8   57.62    9.34
   7   2  -8   47.06    8.89
  -7  -2   8   61.23   11.42
   7   2  -8   66.19   10.47
  -7  -2   7   83.39   10.02
   7   2  -7   91.73   10.60
  -7  -2   7   93.72   11.69
   7   2  -7   94.30   11.82
  -7  -2   6  232.20   15.16
   7   2  -6  244.61   15.07
  -7  -2   6  232.65   16.60
   7   2  -6  249.61   17.15
  -7  -2   5   -4.06    7.26
   7   2  -5   11.64    7.17
  -7  -2   5    8.53    8.66
   7   2  -5   15.97    7.90
  -7  -2   4    5.14    7.40
   7   2  -4   -3.07    6.63
  -7  -2   4   -7.17    7.58
   7   2  -4  -11.96    7.67
  -7  -2   3  289.32   17.06
   7   2  -3  289.64   16.38
  -7  -2   3  277.23   17.69
   7   2  -3  250.29   15.84
  -7  -2   2  590.64   29.15
   7   2  -2  520.25   25.67
  -7  -2   2  535.15   29.65
   7   2  -2  537.85   29.28
  -7  -2   1  155.08   11.55
   7   2  -1  171.78   11.60
  -7  -2   1  153.37   11.96
  -7  -2   0   13.49    7.13
   7   2   0   20.67    6.50
  -7  -2   0   17.60    6.45
  -7  -2  -1  154.32   11.33
  -7  -2  -1  122.33   10.15
  -7  -2  -2  402.35   20.58
  -7  -2  -2  420.36   23.73
  -7  -2  -3  229.22   13.85
  -7  -2  -4   85.24    8.66
  -7  -2  -5 1172.27   52.97
  -7  -2  -6 1558.96   69.49
  -7  -2  -7  573.05   27.93
  -7  -2  -7  615.91   33.98
  -7  -2  -8  465.66   24.14
  -7  -2  -8  522.96   30.01
  -7  -2  -9  104.86   10.24
   7   2   9   94.62    9.88
  -7  -2  -9   85.73   10.83
  -7  -2 -10  136.85   12.68
   7   2  10  116.73   10.74
  -7  -2 -10  143.17   13.00
  -7  -2 -11   18.82    8.71
   7   2  11   14.85    7.40
  -7  -2 -11   12.27    8.75
  -7  -2 -12   70.62    9.97
   7   2  12   71.34    9.39
  -7  -2 -12   67.59   10.56
  -7  -2 -13   14.62    7.45
   7   2  13   10.06    7.35
  -7  -2 -13   34.34   10.38
  -7  -2 -14  266.22   16.02
   7   2  14  245.24   15.07
  -7  -2 -14  233.05   17.15
  -7  -2 -15   17.37    8.30
   7   2  15    3.02    7.31
  -7  -2 -15  -16.74    9.30
  -7  -2 -16  139.47   11.05
   7   2  16  139.88   10.42
  -7  -2 -16  134.82   12.45
  -7  -2 -17   18.50    8.39
   7   2  17    6.41    7.26
  -7  -2 -17   11.42    9.93
  -7  -2 -18   -7.72    9.61
   7   2  18   -8.71    6.86
  -7  -2 -18    7.22    9.97
  -7  -3  11   37.05    9.66
   7   3 -11   46.07   10.11
  -7  -3  11   51.39   11.82
   7   3 -11   45.08   12.23
  -7  -3  10   24.59    9.61
   7   3 -10   19.18    9.52
  -7  -3  10   18.05   10.60
   7   3 -10   12.90   10.15
  -7  -3   9   30.23    9.11
   7   3  -9    4.11    9.16
  -7  -3   9    8.93    9.84
   7   3  -9   17.51   10.42
  -7  -3   8    7.22    9.34
   7   3  -8    1.71    7.94
  -7  -3   8   14.94    9.66
   7   3  -8   -2.75    9.11
  -7  -3   7   99.81   12.32
   7   3  -7   92.00   10.20
  -7  -3   7  112.04   12.90
   7   3  -7   85.69   11.37
  -7  -3   6  289.32   17.51
   7   3  -6  282.82   17.19
  -7  -3   6  290.00   19.49
   7   3  -6  303.81   19.18
  -7  -3   5   19.49    7.94
   7   3  -5    0.90    7.99
  -7  -3   5   23.24    9.34
   7   3  -5    9.93    7.63
  -7  -3   4  163.48   11.73
   7   3  -4  180.53   13.00
  -7  -3   4  172.73   14.03
   7   3  -4  184.01   13.94
  -7  -3   3   17.19    6.86
   7   3  -3   10.38    6.95
  -7  -3   3    9.02    7.17
   7   3  -3   28.25    6.86
  -7  -3   2  175.34   11.87
   7   3  -2  217.53   13.36
  -7  -3   2  192.85   14.03
   7   3  -2  195.06   13.85
  -7  -3   1  104.55    9.11
   7   3  -1  113.21    9.25
  -7  -3   1   97.01    9.93
  -7  -3   0  743.61   34.97
   7   3   0  753.53   35.15
  -7  -3   0  738.19   39.30
  -7  -3  -1  155.08   11.24
  -7  -3  -1  129.73   10.78
  -7  -3  -2   17.46    6.36
  -7  -3  -2   25.95    6.77
  -7  -3  -3 1278.75   57.58
  -7  -3  -4   32.22    6.77
  -7  -3  -5  346.22   18.50
  -7  -3  -6  409.07   21.21
  -7  -3  -7  791.44   36.95
  -7  -3  -7  732.33   39.39
  -7  -3  -8   -6.14    6.36
  -7  -3  -8  -10.38    7.49
  -7  -3  -9  114.88   10.65
   7   3   9  100.31    9.75
  -7  -3  -9  100.40   10.60
  -7  -3 -10   56.45    9.97
   7   3  10   60.24    8.93
  -7  -3 -10   48.24    9.16
  -7  -3 -11   21.16    8.98
   7   3  11   31.95    8.26
  -7  -3 -11   26.71    9.84
  -7  -3 -12   92.14   10.02
   7   3  12  117.50   10.78
  -7  -3 -12  109.10   12.41
  -7  -3 -13  325.15   18.23
   7   3  13  320.09   17.91
  -7  -3 -13  338.14   21.52
  -7  -3 -14   20.49    7.85
   7   3  14   17.64    6.77
  -7  -3 -14   20.08    9.02
  -7  -3 -15   39.93    9.16
   7   3  15   42.46    7.58
  -7  -3 -15   40.20   10.74
  -7  -3 -16   84.42    9.48
   7   3  16   85.46    9.97
  -7  -3 -16   87.63   12.05
  -7  -3 -17   33.21    7.67
   7   3  17   22.97    8.35
  -7  -3 -17    2.71    9.43
  -7  -3 -18    0.59    9.43
   7   3  18   -4.69    7.63
  -7  -3 -18    9.25    9.25
  -7  -4  11   25.31    8.98
   7   4 -11   27.57    9.07
  -7  -4  11   30.86   11.78
   7   4 -11   27.16   11.28
  -7  -4  10   27.39   10.47
   7   4 -10    6.54    8.84
  -7  -4  10   29.24   12.45
   7   4 -10   15.97    9.75
  -7  -4   9   18.32    9.52
   7   4  -9   13.00    8.89
  -7  -4   9    9.57   10.33
   7   4  -9   36.68    9.79
  -7  -4   8    1.58    8.48
   7   4  -8   -0.14    8.26
  -7  -4   8   11.82    9.52
   7   4  -8   -0.32    9.16
  -7  -4   7  355.24   19.67
   7   4  -7  383.76   20.67
  -7  -4   7  385.57   24.19
   7   4  -7  380.06   23.15
  -7  -4   6   12.18    8.57
   7   4  -6   18.95    8.26
  -7  -4   6   11.73    8.89
   7   4  -6   10.83    8.98
  -7  -4   5  251.46   16.33
   7   4  -5  297.26   17.37
  -7  -4   5  304.30   19.90
   7   4  -5  266.44   17.91
  -7  -4   4   17.69    8.35
   7   4  -4   22.65    7.72
  -7  -4   4   18.91    8.75
   7   4  -4   23.46    8.35
  -7  -4   3   97.46   10.11
   7   4  -3  119.93   10.06
  -7  -4   3   87.04   10.42
   7   4  -3   96.88    9.84
  -7  -4   2  278.31   16.20
   7   4  -2  292.75   15.97
  -7  -4   2  259.63   17.42
  -7  -4   1  170.83   11.19
   7   4  -1  189.65   12.18
  -7  -4   1  173.45   13.63
  -7  -4   0  199.48   12.54
   7   4   0  176.43   11.10
  -7  -4   0  238.24   16.60
  -7  -4  -1  221.19   12.86
  -7  -4  -1  239.51   16.15
  -7  -4  -2  234.68   13.40
  -7  -4  -2  235.90   15.79
  -7  -4  -3    2.71    5.28
  -7  -4  -4  298.35   16.11
  -7  -4  -5    7.85    5.91
  -7  -4  -6 1193.47   54.10
  -7  -4  -7   29.37    7.22
  -7  -4  -8  463.40   23.51
  -7  -4  -8  477.39   27.39
  -7  -4  -9    2.26    6.77
   7   4   9   10.33    7.35
  -7  -4  -9    9.39    9.61
  -7  -4 -10   46.84    7.81
   7   4  10   39.93    7.99
  -7  -4 -10   42.91   10.02
  -7  -4 -11   13.76    8.35
   7   4  11   22.79    7.99
  -7  -4 -11   15.52    9.20
  -7  -4 -12    4.69    8.26
   7   4  12  -10.11    6.95
  -7  -4 -12    5.60    9.11
  -7  -4 -13  204.00   14.12
   7   4  13  214.83   14.48
  -7  -4 -13  205.35   15.88
  -7  -4 -14   -0.77    7.72
   7   4  14   18.50    7.31
  -7  -4 -14    9.84    9.52
  -7  -4 -15  131.76   11.46
   7   4  15  181.62   12.41
  -7  -4 -15  189.24   14.80
  -7  -4 -16   34.25    9.52
   7   4  16   47.24    8.30
  -7  -4 -16   20.40    9.30
  -7  -4 -17   23.82    7.81
   7   4  17   30.73    8.84
  -7  -4 -17   39.75    9.61
  -7  -4 -18   16.33    9.75
   7   4  18    8.89    7.72
  -7  -4 -18  -11.42   10.60
  -7  -5  11   -0.36   10.02
   7   5 -11  -12.95   10.20
  -7  -5  11    7.76   11.96
   7   5 -11    4.78    9.88
  -7  -5  10    7.22    9.70
   7   5 -10   -2.21    9.11
  -7  -5  10   -5.14    9.20
   7   5 -10   -0.77    9.07
  -7  -5   9    7.13    9.11
   7   5  -9    2.08    8.62
  -7  -5   9    7.85    9.07
   7   5  -9    5.23    8.53
  -7  -5   8   19.58    8.66
   7   5  -8    8.21    8.75
  -7  -5   8   15.61    9.70
   7   5  -8    8.48    8.17
  -7  -5   7  303.49   18.09
   7   5  -7  302.77   17.82
  -7  -5   7  346.54   21.79
   7   5  -7  379.52   23.19
  -7  -5   6  200.93   14.12
   7   5  -6  192.58   13.63
  -7  -5   6  216.27   16.47
   7   5  -6  204.13   15.25
  -7  -5   5  200.52   13.72
   7   5  -5  221.41   14.08
  -7  -5   5  217.04   16.83
   7   5  -5  221.23   15.79
  -7  -5   4   94.49    9.43
   7   5  -4  119.35   10.60
  -7  -5   4  120.66   12.72
   7   5  -4  117.90   11.64
  -7  -5   3  126.66   10.51
   7   5  -3  116.37   10.06
  -7  -5   3  136.45   12.54
   7   5  -3  133.11   12.36
  -7  -5   2    9.75    6.81
   7   5  -2   12.81    5.87
  -7  -5   2    8.71    7.90
  -7  -5   1  439.35   22.25
   7   5  -1  399.69   20.40
  -7  -5   1  429.88   25.00
  -7  -5   0  205.85   13.09
  -7  -5   0  221.28   15.39
  -7  -5  -1  177.64   11.51
  -7  -5  -1  194.79   14.12
  -7  -5  -2   83.48    7.72
  -7  -5  -2   78.69    9.43
  -7  -5  -3  115.87    8.98
  -7  -5  -3  114.47    8.48
  -7  -5  -4  186.31   11.96
  -7  -5  -4  172.55   11.10
  -7  -5  -5 1271.53   57.08
  -7  -5  -6  554.55   26.89
  -7  -5  -7  101.39    9.52
  -7  -5  -8  293.74   16.70
  -7  -5  -9   22.20    7.58
   7   5   9   22.11    7.45
  -7  -5  -9   37.90    9.48
  -7  -5 -10    1.53    7.94
   7   5  10   15.48    7.63
  -7  -5 -10    8.71    9.07
  -7  -5 -11    0.68    8.30
   7   5  11   -1.40    7.67
  -7  -5 -11    7.63    7.94
  -7  -5 -12   57.71    9.52
   7   5  12   34.79    7.31
  -7  -5 -12   48.96   10.24
  -7  -5 -13   13.94    8.48
   7   5  13   24.23    7.90
  -7  -5 -13    3.84    9.39
  -7  -5 -14  482.80   24.50
   7   5  14  494.99   24.64
  -7  -5 -14  492.73   28.34
  -7  -5 -15    9.66    8.17
   7   5  15   22.52    7.54
  -7  -5 -15   34.52   10.11
  -7  -5 -16   38.85    9.70
   7   5  16   29.51    7.99
  -7  -5 -16   35.06   10.38
  -7  -5 -17   15.70    8.98
   7   5  17    3.25    8.17
  -7  -5 -17    0.95    9.11
  -7  -5 -18    2.53    9.79
  -7  -6  10   -7.54    9.88
   7   6 -10   12.45   10.02
  -7  -6  10    2.39    9.97
   7   6 -10    1.44    9.52
  -7  -6   9   14.98    9.16
   7   6  -9   -4.20    8.35
  -7  -6   9    5.82    9.97
   7   6  -9   -9.43    8.30
  -7  -6   8   -5.78    8.62
   7   6  -8    0.77    8.75
  -7  -6   8   13.63    9.66
   7   6  -8   -1.08    8.26
  -7  -6   7   22.70    8.93
   7   6  -7    3.56    8.53
  -7  -6   7   -5.60    9.30
   7   6  -7    1.04    8.08
  -7  -6   6  238.83   14.75
   7   6  -6  238.38   14.89
  -7  -6   6  225.79   16.79
   7   6  -6  271.68   17.64
  -7  -6   5    9.79    8.62
   7   6  -5   22.70    8.17
  -7  -6   5   29.96    9.61
   7   6  -5   19.09    8.30
  -7  -6   4   16.15    9.16
   7   6  -4   11.87    7.54
  -7  -6   4   14.26    8.48
   7   6  -4   12.41    8.03
  -7  -6   3    5.28    7.49
   7   6  -3   15.66    7.13
  -7  -6   3   16.79    8.53
   7   6  -3   14.21    8.03
  -7  -6   2  438.04   21.57
   7   6  -2  500.40   24.59
  -7  -6   2  423.65   25.18
  -7  -6   1   15.34    6.00
   7   6  -1   28.52    6.36
  -7  -6   1   26.85    8.62
  -7  -6   0   34.20    6.41
  -7  -6   0   20.62    8.17
  -7  -6  -1    0.00    4.96
  -7  -6  -1   -0.90    7.45
  -7  -6  -2  391.97   19.72
  -7  -6  -2  417.92   24.77
  -7  -6  -3  106.53    8.26
  -7  -6  -3  116.64    8.62
  -7  -6  -3  109.33   11.01
  -7  -6  -4  341.62   18.00
  -7  -6  -4  323.97   16.60
  -7  -6  -5 1109.55   49.99
  -7  -6  -6    8.48    6.95
  -7  -6  -7 1420.89   63.40
  -7  -6  -8   -0.86    6.50
  -7  -6  -9    9.84    7.94
   7   6   9   -4.24    6.90
  -7  -6  -9   -1.90    7.81
  -7  -6 -10   68.00    9.25
   7   6  10   61.95    9.07
  -7  -6 -10   59.65    9.88
  -7  -6 -11  141.23   12.23
   7   6  11  148.36   11.69
  -7  -6 -11  153.05   13.18
  -7  -6 -12  227.19   14.35
   7   6  12  207.61   13.58
  -7  -6 -12  248.49   18.05
  -7  -6 -13  359.35   20.17
   7   6  13  369.82   19.90
  -7  -6 -13  368.46   22.92
  -7  -6 -14  103.83   10.20
   7   6  14  119.62   10.38
  -7  -6 -14  104.01   11.60
  -7  -6 -15   32.76    7.54
   7   6  15   24.82    7.81
  -7  -6 -15   29.37   10.02
  -7  -6 -16  131.67   11.87
   7   6  16  125.89   10.87
  -7  -6 -16  150.30   13.09
  -7  -6 -17   32.89    8.57
   7   6  17   16.70    8.08
  -7  -6 -17   16.79    9.79
  -7  -7  10  -12.59   10.96
   7   7 -10    7.13   10.06
  -7  -7  10   26.17   12.14
   7   7 -10    2.39    8.84
  -7  -7   9   -0.54   10.29
   7   7  -9   -5.87    9.70
  -7  -7   9  -10.11   10.92
   7   7  -9   -7.99    8.93
  -7  -7   8   -1.40    9.84
   7   7  -8   11.55    8.66
  -7  -7   8   17.01   10.56
   7   7  -8    0.99    8.66
  -7  -7   7  182.07   13.54
   7   7  -7  184.68   13.54
  -7  -7   7  225.47   16.47
   7   7  -7  173.09   13.67
  -7  -7   6  -17.19    8.30
   7   7  -6   15.03    8.03
  -7  -7   6    2.03    9.39
   7   7  -6  -15.43    8.30
  -7  -7   5   43.36    9.02
   7   7  -5   45.17    7.85
  -7  -7   5   43.00    9.70
   7   7  -5   35.38    8.66
  -7  -7   4  127.51   10.83
   7   7  -4  118.54   10.56
  -7  -7   4  104.95   12.45
   7   7  -4  156.08   12.95
  -7  -7   3   62.13    8.35
   7   7  -3   76.98    8.62
  -7  -7   3   68.40   10.06
  -7  -7   2   81.54    9.34
   7   7  -2   78.47    7.90
  -7  -7   2   79.96   10.06
  -7  -7   1    4.29    6.63
  -7  -7   1    4.56    7.76
  -7  -7   0   10.87    5.87
  -7  -7   0    6.63    8.26
  -7  -7  -1    6.59    5.14
  -7  -7  -1  -11.69    8.48
  -7  -7  -2  211.44   11.46
  -7  -7  -2  247.22   17.06
  -7  -7  -3   -7.85    5.14
  -7  -7  -3    0.99    4.65
  -7  -7  -3    6.59    7.45
  -7  -7  -4 1110.90   49.81
  -7  -7  -4 1048.18   46.70
  -7  -7  -5   60.15    6.81
  -7  -7  -6  614.11   29.06
  -7  -7  -7  177.78   11.69
  -7  -7  -8  252.01   15.30
  -7  -7  -9   49.68    8.62
   7   7   9   40.79    7.49
  -7  -7 -10   59.65    9.34
   7   7  10   58.52    8.35
  -7  -7 -10   53.47   10.11
  -7  -7 -11   60.78    8.93
   7   7  11   72.92    9.39
  -7  -7 -11   75.44   10.83
  -7  -7 -12   68.86    9.66
   7   7  12   69.94    9.16
  -7  -7 -12   78.51   10.47
  -7  -7 -13  358.58   19.67
   7   7  13  361.16   19.85
  -7  -7 -13  383.49   23.78
  -7  -7 -14   16.33    8.53
   7   7  14   19.63    7.90
  -7  -7 -14    9.07    8.66
  -7  -7 -15  329.21   18.55
   7   7  15  347.08   18.82
  -7  -7 -15  335.44   21.75
  -7  -7 -16    7.35    8.26
   7   7  16    8.89    7.63
  -7  -7 -16    7.13    9.48
  -7  -7 -17   41.65    9.79
   7   7  17   31.54    7.90
  -7  -7 -17   45.62   10.11
  -7  -8   9    6.77   10.33
   7   8  -9   -7.26    9.20
  -7  -8   9  -10.51   10.47
   7   8  -9    1.94    8.57
  -7  -8   8   -3.70    9.48
   7   8  -8   -7.94    8.17
  -7  -8   8  -10.83    9.34
   7   8  -8   14.89    8.71
  -7  -8   7   52.03   10.65
   7   8  -7   66.69    9.57
  -7  -8   7   42.69   10.78
   7   8  -7   61.73    9.79
  -7  -8   6   -2.98    8.08
   7   8  -6    2.08    7.81
  -7  -8   6   -1.53    9.02
   7   8  -6   12.32    8.57
  -7  -8   5   67.19    9.02
   7   8  -5   54.82    8.03
  -7  -8   5   84.38   11.73
   7   8  -5   56.36    9.70
  -7  -8   4   16.70    8.03
   7   8  -4   18.23    6.54
  -7  -8   4   40.75   10.20
   7   8  -4    8.84    7.85
  -7  -8   3  132.25   10.65
   7   8  -3  120.52    9.88
  -7  -8   3  136.72   12.72
  -7  -8   2   -1.49    6.23
   7   8  -2   10.11    5.69
  -7  -8   2   -1.71    8.35
  -7  -8   1  161.54   10.20
  -7  -8   1  146.51   13.22
  -7  -8   0    4.78    5.82
  -7  -8   0   -1.17    7.94
  -7  -8  -1   41.78    6.59
  -7  -8  -1   27.39    8.21
  -7  -8  -2  879.42   39.84
  -7  -8  -2  881.68   39.84
  -7  -8  -2  826.63   44.35
  -7  -8  -3  670.51   30.86
  -7  -8  -3  660.58   30.50
  -7  -8  -3  726.01   39.48
  -7  -8  -4  330.20   16.88
  -7  -8  -4  342.38   17.46
  -7  -8  -4  363.10   22.25
  -7  -8  -5   71.16    6.95
  -7  -8  -5   83.39    7.49
  -7  -8  -6 1310.34   58.30
  -7  -8  -7   -7.31    6.45
  -7  -8  -8  317.93   17.42
  -7  -8  -9    3.79    7.45
  -7  -8 -10    2.12    7.54
   7   8  10   -1.17    6.86
  -7  -8 -10    0.81    8.53
  -7  -8 -11   -2.44    7.58
   7   8  11    2.35    6.86
  -7  -8 -11   -2.93    8.30
  -7  -8 -12    0.59    7.94
   7   8  12   -2.71    7.31
  -7  -8 -12    2.21    8.30
  -7  -8 -13  130.58   11.37
   7   8  13  136.31   11.19
  -7  -8 -13  128.96   12.77
  -7  -8 -14  276.37   16.74
   7   8  14  257.10   15.57
  -7  -8 -14  279.44   19.09
  -7  -8 -15   61.05   10.06
   7   8  15   71.25    8.93
  -7  -8 -15   79.05   10.74
  -7  -8 -16   74.77   10.33
   7   8  16   72.60    9.39
  -7  -8 -16   70.89   11.46
  -7  -8 -17   34.25   10.47
   7   8  17   27.89    8.80
  -7  -8 -17   16.74   10.15
  -7  -9   9   -2.35   12.05
   7   9  -9   -2.84   11.64
  -7  -9   9   -2.57   10.96
   7   9  -9   -6.59    8.35
  -7  -9   8    8.03    9.79
   7   9  -8    0.77    9.97
  -7  -9   8   30.05   10.29
   7   9  -8    4.29    8.71
  -7  -9   7   15.12   10.51
   7   9  -7    2.26    9.20
  -7  -9   7   -6.41    9.34
   7   9  -7    9.52    8.39
  -7  -9   6  111.99   11.82
   7   9  -6  109.29   10.42
  -7  -9   6  103.78   12.23
   7   9  -6  120.57   12.41
  -7  -9   5    6.32    8.03
   7   9  -5    7.22    6.86
  -7  -9   5    5.50    8.53
   7   9  -5   13.31    8.30
  -7  -9   4  216.40   13.76
   7   9  -4  211.94   13.45
  -7  -9   4  226.02   16.56
  -7  -9   3    3.25    6.63
   7   9  -3   -3.43    6.45
  -7  -9   3    7.58    8.44
  -7  -9   2  366.03   19.27
  -7  -9   2  354.75   22.11
  -7  -9   1   37.68    6.54
  -7  -9   1   35.01    8.66
  -7  -9   0   28.20    5.78
  -7  -9   0   18.55    8.21
  -7  -9  -1  459.79   21.97
  -7  -9  -1  441.88   21.03
  -7  -9  -1  439.04   25.54
  -7  -9  -2   89.07    7.17
  -7  -9  -2   96.15    7.45
  -7  -9  -2   94.53   10.20
  -7  -9  -3  180.22   10.92
  -7  -9  -3  194.07   10.83
  -7  -9  -3  197.81   14.44
  -7  -9  -4   11.60    5.46
  -7  -9  -4    6.45    5.50
  -7  -9  -4    8.35    7.31
  -7  -9  -6    6.00    6.32
  -7  -9  -7  393.78   20.26
  -7  -9  -8   19.76    7.26
  -7  -9  -9   44.49    8.35
  -7  -9 -10   10.74    6.99
   7   9  10    2.17    7.40
  -7  -9 -11    7.85    7.31
   7   9  11    2.89    7.76
  -7  -9 -11   16.65    8.75
  -7  -9 -12   12.50    8.03
   7   9  12   19.27    7.67
  -7  -9 -12   29.01    8.98
  -7  -9 -13   37.99    8.53
   7   9  13   24.73    7.81
  -7  -9 -13   27.12    9.75
  -7  -9 -14  343.92   19.18
   7   9  14  314.77   17.64
  -7  -9 -14  341.93   21.21
  -7  -9 -15   88.89   11.05
   7   9  15   90.38    9.97
  -7  -9 -15  100.71   11.05
  -7  -9 -16   68.68   11.28
   7   9  16   55.68    8.89
  -7  -9 -16   58.48   10.33
  -7 -10   8    3.88   12.86
   7  10  -8   -6.41   11.05
  -7 -10   8   -1.85   10.38
   7  10  -8   15.16    8.21
  -7 -10   7   59.47   11.91
   7  10  -7   55.73   10.78
  -7 -10   7   77.61   11.10
   7  10  -7   62.99   10.15
  -7 -10   6   58.57   11.28
   7  10  -6   41.06   10.11
  -7 -10   6   42.64    9.75
   7  10  -6   52.52    9.30
  -7 -10   5  172.46   13.63
   7  10  -5  164.02   12.54
  -7 -10   5  178.64   13.90
  -7 -10   4   95.61   10.33
   7  10  -4   83.07    9.34
  -7 -10   4   97.82   11.73
  -7 -10   3   71.25    8.53
  -7 -10   3   49.50    9.16
  -7 -10   2  164.56   11.33
  -7 -10   2  153.78   13.31
  -7 -10   1   -0.63    5.10
  -7 -10   1    7.81    8.98
  -7 -10   0   12.05    5.14
  -7 -10   0   10.06    5.32
  -7 -10   0   19.72    9.34
  -7 -10  -1    0.54    4.69
  -7 -10  -1    3.65    4.92
  -7 -10  -1   14.03    7.58
  -7 -10  -2   91.28    6.95
  -7 -10  -2   79.14    6.68
  -7 -10  -2   73.28    9.79
  -7 -10  -3   56.36    5.96
  -7 -10  -3   56.22    5.91
  -7 -10  -3   44.99    8.62
  -7 -10  -4  494.54   23.01
  -7 -10  -4  545.07   25.22
  -7 -10  -4  496.34   28.38
  -7 -10  -5   62.94    7.45
  -7 -10  -5   56.45    6.32
  -7 -10  -5   61.09    9.07
  -7 -10  -6   13.99    6.27
  -7 -10  -7  214.10   12.90
  -7 -10  -8  125.89   10.24
  -7 -10  -9   20.98    7.67
  -7 -10 -10   -2.66    7.54
  -7 -10 -11  135.19   11.78
   7  10  11  121.38   11.05
  -7 -10 -11  120.61   11.37
  -7 -10 -12  -12.54    7.81
   7  10  12   -6.32    6.90
  -7 -10 -12    7.22    8.62
  -7 -10 -13  522.06   26.35
   7  10  13  478.74   24.37
  -7 -10 -13  515.74   29.19
  -7 -10 -14   45.84    9.52
   7  10  14   49.36    8.98
  -7 -10 -14   45.57    9.93
  -7 -10 -15   41.47    9.52
   7  10  15   74.18    9.84
  -7 -10 -15   40.93    9.52
  -7 -10 -16   22.97   11.96
   7  10  16   19.63    8.08
  -7 -10 -16   23.91   10.15
  -7 -11   7   26.08   13.31
   7  11  -7   46.20   11.33
  -7 -11   7   43.23   10.74
  -7 -11   6   -0.95    9.88
   7  11  -6   -0.72    9.88
  -7 -11   6    6.72    9.11
  -7 -11   5   -7.22    9.43
   7  11  -5    4.06    9.61
  -7 -11   5   -4.06    8.21
  -7 -11   4   19.09    8.35
  -7 -11   4   27.16    9.39
  -7 -11   3   83.84    8.30
  -7 -11   3   61.00    9.93
  -7 -11   2   14.98    6.36
  -7 -11   2   21.97    8.53
  -7 -11   1   -5.41    4.65
  -7 -11   1    2.93    4.74
  -7 -11   1   -4.51    8.03
  -7 -11   0   12.27    4.02
  -7 -11   0    8.75    4.29
  -7 -11   0   -6.41    8.26
  -7 -11  -1    2.21    3.34
  -7 -11  -1    2.57    3.34
  -7 -11  -1   -9.20    7.54
  -7 -11  -2  540.56   24.28
  -7 -11  -2  536.95   23.87
  -7 -11  -2  526.12   29.69
  -7 -11  -3  315.13   15.12
  -7 -11  -3  312.47   14.62
  -7 -11  -3  296.81   19.27
  -7 -11  -4   78.87    6.00
  -7 -11  -4   85.78    6.27
  -7 -11  -4   81.17    9.84
  -7 -11  -5    7.45    4.74
  -7 -11  -5   16.65    5.41
  -7 -11  -5   10.15    7.35
  -7 -11  -6  163.57    9.84
  -7 -11  -6  179.95   11.10
  -7 -11  -6  172.86   13.45
  -7 -11  -7   -3.79    6.36
  -7 -11  -8    0.45    6.59
  -7 -11  -9    8.44    7.40
  -7 -11 -10   -0.90    7.72
  -7 -11 -11  112.04   10.51
  -7 -11 -11  113.48   11.64
  -7 -11 -12   39.53    8.44
   7  11  12   43.68    8.12
  -7 -11 -12   52.61    9.79
  -7 -11 -13   83.29   10.38
   7  11  13   74.18    9.61
  -7 -11 -13   71.11   10.38
  -7 -11 -14   55.36    9.93
   7  11  14   49.27   10.02
  -7 -11 -14   20.44    8.93
  -7 -11 -15   65.92   11.82
   7  11  15   66.96   10.33
  -7 -11 -15   68.04   11.28
  -7 -12   6   54.60   10.87
  -7 -12   6   34.16   10.56
  -7 -12   5   13.72    9.66
  -7 -12   5   16.06    9.20
  -7 -12   4  259.13   14.71
  -7 -12   4  313.96   19.67
  -7 -12   3    9.66    5.64
  -7 -12   3    6.77    8.53
  -7 -12   2    6.45    7.81
  -7 -12   1   -2.80    8.26
  -7 -12   0   18.86    8.93
  -7 -12  -1  306.38   19.63
  -7 -12  -2   79.01   10.65
  -7 -12  -3  355.92   21.66
  -7 -12  -4    1.08    7.94
  -7 -12  -5  216.77   11.15
  -7 -12  -5  220.10   11.15
  -7 -12  -5  224.35   15.57
  -7 -12  -6    0.18    5.60
  -7 -12  -6    7.81    4.92
  -7 -12  -6    0.09    7.35
  -7 -12  -7  128.24    9.52
  -7 -12  -7  133.02    8.93
  -7 -12  -7  130.40   11.05
  -7 -12  -8   22.97    7.26
  -7 -12  -9   -1.13    7.72
  -7 -12 -10    8.39    7.49
  -7 -12 -11    5.78    7.67
  -7 -12 -12   17.91    8.44
   7  12  12   19.13    8.35
  -7 -12 -12   24.46    8.93
  -7 -12 -13   62.58   10.87
   7  12  13   62.27   10.65
  -7 -12 -13   64.12    9.79
  -7 -12 -14  105.00   12.54
   7  12  14  104.77   11.60
  -7 -12 -14  100.53   11.51
  -7 -13   5   -6.59    5.87
  -7 -13   5   38.17   10.20
  -7 -13   4   35.87    9.79
  -7 -13   3   18.64    8.39
  -7 -13   2   31.90    9.02
  -7 -13   1  -12.36    7.99
  -7 -13   0   68.77    9.93
  -7 -13  -1   -8.08    7.99
  -7 -13  -2  235.90   16.47
  -7 -13  -3  124.72   11.01
  -7 -13  -4  245.15   16.11
  -7 -13  -5  246.73   16.02
  -7 -13  -6   11.33    6.99
  -7 -13  -7  270.51   14.17
  -7 -13  -7  256.16   13.13
  -7 -13  -7  233.91   15.43
  -7 -13  -8    4.78    7.26
  -7 -13  -8   17.87    6.05
  -7 -13  -9   12.59    7.49
  -7 -13 -10   29.92    8.75
  -7 -13 -11  157.88   12.90
  -7 -13 -12    6.36    9.48
  -7 -13 -12   -9.57    7.81
  -7 -13 -13  154.63   14.30
  -7 -13 -13  144.39   12.50
  -7 -13 -14    8.66   11.19
   7  13  14   13.09   11.01
  -7 -13 -14   12.68    9.34
  -7 -14   4   -5.55    8.93
  -7 -14   3   32.58    9.25
  -7 -14   2   34.47    8.66
  -7 -14   1    5.23    8.57
  -7 -14   0   36.68    9.20
  -7 -14  -1  117.41   11.55
  -7 -14  -2  193.39   14.80
  -7 -14  -3   20.58    8.12
  -7 -14  -4  307.87   19.18
  -7 -14  -5    2.12    7.45
  -7 -14  -6   50.58    9.84
  -7 -14  -7   61.41    9.25
  -7 -14  -8   18.18    6.81
  -7 -14  -8   28.25    6.27
  -7 -14  -8   56.58    8.80
  -7 -14  -9    6.09    7.85
  -7 -14  -9    7.45    7.49
  -7 -14 -10   34.97    9.84
  -7 -14 -11   29.92   10.38
  -7 -14 -12   52.75   12.41
  -7 -14 -12   85.51    9.88
  -7 -15   2   74.04    9.84
  -7 -15   1   -0.23    7.35
  -7 -15   0   67.46    9.57
  -7 -15  -1    8.26    8.08
  -7 -15  -2    0.45    8.30
  -7 -15  -3   23.78    8.44
  -7 -15  -4    2.84    9.20
  -7 -15  -5    9.61    8.03
  -7 -15  -6   11.96    8.66
  -7 -15  -7   30.10    8.35
  -7 -15  -8  -10.29    8.21
  -7 -15  -9   -1.44    6.41
  -7 -15  -9    4.74    6.36
  -7 -15  -9    6.41    8.26
  -7 -15 -10    1.49   10.33
  -7 -15 -10   -2.08    8.44
  -7 -15 -11   -8.75   12.77
  -7 -16   0   -0.90    7.49
  -7 -16  -1    7.35    8.48
  -7 -16  -2  104.73   12.14
  -7 -16  -3   16.70   10.51
  -7 -16  -4   -2.66    8.71
  -7 -16  -5  122.82   11.87
  -7 -16  -6   36.91    9.25
  -7 -16  -7   12.36    8.48
  -7 -16  -8    3.25    8.26
  -7 -16  -9    9.93    8.53
  -8  15   1   11.10   11.15
  -8  15   0   50.67   11.33
  -8  15   0   37.00   11.28
  -8  15  -1    7.17   10.92
  -8  15  -1   15.79   10.69
  -8  15  -2   44.58   12.05
  -8  15  -2   79.28   11.60
  -8  15  -3    8.84   10.69
  -8  15  -3    4.24   10.33
   8 -15   3   -3.70   10.42
  -8  15  -4   88.21   13.49
  -8  15  -4   86.86   11.73
   8 -15   4   73.37   16.42
  -8  14   4   15.25   11.64
  -8  14   3   -4.83    9.43
  -8  14   2   58.88   10.51
  -8  14   1  202.78   14.39
  -8  14  -1   82.30   10.38
  -8  14  -1   83.29   10.47
  -8  14  -2  130.94   11.78
  -8  14  -2  113.84   10.92
  -8  14  -3   34.25    9.02
  -8  14  -3   39.03    8.35
   8 -14   3   43.45    9.79
  -8  14  -4   76.39   10.20
  -8  14  -4   62.63    9.48
   8 -14   4   40.97   14.21
  -8  14  -5    3.84   10.47
  -8  14  -5   -1.49    8.48
   8 -14   5  -10.24   13.45
  -8  14  -6   13.27   10.69
  -8  14  -6    2.80    9.07
   8 -14   6    0.18   15.61
  -8  14  -7   -4.42   11.60
  -8  14  -7   -2.08   10.33
   8 -14   7   -8.57   14.98
  -8  13   5   17.87    9.88
  -8  13   4   60.19   10.51
  -8  13   3    7.22    8.93
  -8  13   2   52.03    9.93
  -8  13   1   53.29    9.39
  -8  13   0   -1.94    8.03
  -8  13  -1   73.37    8.80
  -8  13  -1   74.00    8.75
  -8  13  -2   21.88    7.72
  -8  13  -2   14.57    7.81
  -8  13  -3  137.85   10.87
  -8  13  -3  146.51   11.28
   8 -13   3  122.05   11.33
  -8  13  -4   24.23    8.57
  -8  13  -4   34.11    7.31
   8 -13   4   21.75   11.37
  -8  13  -5   74.77    9.25
  -8  13  -5   78.47    9.34
   8 -13   5   61.82   13.40
  -8  13  -6    5.73    7.94
  -8  13  -6   -9.20    8.35
   8 -13   6  -11.55   13.94
  -8  13  -7   39.48    9.61
  -8  13  -7   12.36    8.75
   8 -13   7   14.21   13.54
  -8  13  -8  -12.00    9.88
  -8  13  -8    5.82    9.25
  -8  13  -8   16.20   10.96
   8 -13   8   11.33   16.88
  -8  13  -9   18.55   10.47
  -8  13  -9   20.08   10.06
  -8  13  -9    5.91   11.46
   8 -13   9    1.44   15.57
  -8  12   7   25.09    9.52
   8 -12  -7   23.28   10.42
  -8  12   6   90.83   10.60
   8 -12  -6   93.67   10.83
  -8  12   5   -2.17    7.67
   8 -12  -5   14.57    8.93
  -8  12   4   39.12    9.07
  -8  12   3    8.48    8.26
  -8  12   2   56.18    9.34
  -8  12   1   47.29    9.34
  -8  12   0  198.67   13.45
  -8  12  -1   23.64    7.08
  -8  12  -2   41.56    8.62
  -8  12  -2   57.12    8.03
  -8  12  -3   90.51    8.75
  -8  12  -3  128.10   10.96
   8 -12   3   77.52    8.57
  -8  12  -4  111.81   10.38
  -8  12  -4  114.97   10.11
   8 -12   4  108.07   11.91
  -8  12  -5   16.65    7.58
  -8  12  -5    4.65    7.13
   8 -12   5    7.35   10.11
  -8  12  -6   32.53    7.85
  -8  12  -6   38.40    8.03
   8 -12   6   24.23   12.72
  -8  12  -7   37.14    8.62
  -8  12  -7   35.24    8.89
  -8  12  -7   38.40   10.60
   8 -12   7   30.32   13.99
  -8  12  -8   -3.65    8.48
  -8  12  -8   -6.36    7.72
  -8  12  -8  -13.49   11.15
   8 -12   8    0.68   14.62
  -8  12  -9  100.17   11.42
  -8  12  -9   87.13   10.47
  -8  12  -9   66.46   13.54
   8 -12   9   83.16   18.45
  -8  12 -10   -3.25    8.08
  -8  12 -10   11.91    9.02
  -8  12 -10   24.32   12.36
   8 -12  10   -4.74   15.12
  -8  12 -11  256.61   22.15
  -8  11   8   -0.27    7.76
   8 -11  -8   -8.62    9.30
  -8  11   7   68.22    9.30
   8 -11  -7   57.67    9.84
  -8  11   6   -5.14    7.76
   8 -11  -6   -6.63    7.85
  -8  11   5   48.10    9.07
   8 -11  -5   75.44    9.70
  -8  11   4   24.19    7.76
   8 -11  -4   29.01    7.85
  -8  11   3   48.60    8.30
  -8  11   2   20.62    8.17
  -8  11   1  491.83   24.59
  -8  11   0   75.22    9.07
  -8  11  -1   79.10    9.43
  -8  11  -2  293.38   16.88
  -8  11  -3   -5.37    7.13
  -8  11  -3   -2.39    6.95
   8 -11   3    3.61    5.96
  -8  11  -4  319.51   17.69
  -8  11  -4  306.92   17.10
   8 -11   4  285.44   17.96
  -8  11  -5    6.36    6.86
  -8  11  -5   13.85    7.04
   8 -11   5   10.56   10.42
  -8  11  -6   23.42    7.54
  -8  11  -6   29.78    8.12
  -8  11  -6   31.27    9.11
   8 -11   6   21.03   11.19
  -8  11  -7   15.48    7.58
  -8  11  -7    4.60    6.95
  -8  11  -7    1.90   10.15
   8 -11   7   18.68   12.18
  -8  11  -8    6.09    7.13
  -8  11  -8    5.87    8.39
  -8  11  -8  -17.55   10.74
   8 -11   8    1.76   13.54
  -8  11  -9  141.59   11.82
  -8  11  -9  139.74   12.05
  -8  11  -9  150.30   15.07
   8 -11   9  133.34   16.15
  -8  11 -10  130.45   12.32
  -8  11 -10   99.81   10.92
  -8  11 -10   98.32   12.72
   8 -11  10   98.19   17.19
  -8  11 -11   63.17    9.97
  -8  11 -11   72.06   13.09
   8 -11  11   35.96   17.96
  -8  11 -12    8.03    9.48
  -8  11 -12   -5.78   11.96
   8 -11  12   -3.20   14.57
  -8  10   8  121.15   11.24
   8 -10  -8  119.80   11.15
  -8  10   7   22.97    8.26
   8 -10  -7   21.16    8.30
  -8  10   6   70.39    9.43
   8 -10  -6   66.37    8.93
  -8  10   5   44.40    8.57
   8 -10  -5   73.68    8.93
  -8  10   4    2.75    7.40
   8 -10  -4   16.79    7.13
  -8  10   3    0.99    7.94
   8 -10  -3    3.93    6.50
  -8  10   2   -0.45    7.04
  -8  10   1  580.72   28.47
  -8  10   0    9.30    7.35
  -8  10  -1  207.74   13.99
  -8  10  -2   12.23    6.72
  -8  10  -4   92.00    9.30
  -8  10  -4  122.33   10.33
   8 -10   4   97.33    9.48
  -8  10  -5   10.83    7.13
  -8  10  -5   -1.31    6.95
  -8  10  -5   10.24    6.59
   8 -10   5   -7.63    8.71
  -8  10  -6  115.92    9.93
  -8  10  -6   97.73    9.34
  -8  10  -6   95.84    9.43
   8 -10   6  109.51   12.77
  -8  10  -7  114.02   10.42
  -8  10  -7   99.22   10.38
  -8  10  -7   95.21   10.69
   8 -10   7   98.59   13.36
  -8  10  -8   11.60    7.63
  -8  10  -8   12.68    7.94
  -8  10  -8   30.73    9.97
   8 -10   8   11.24   12.05
  -8  10  -9   65.38    9.16
  -8  10  -9   44.35    8.48
  -8  10  -9   73.32   12.05
   8 -10   9   56.58   13.54
  -8  10 -10   86.50    9.70
  -8  10 -10   64.93   12.77
   8 -10  10   83.84   15.88
  -8  10 -11   17.37    8.44
  -8  10 -11    4.92   12.00
   8 -10  11   18.41   16.24
  -8  10 -12   75.04   10.33
  -8  10 -12   65.92   14.75
   8 -10  12   57.71   16.11
  -8  10 -13   14.30    9.79
  -8  10 -13   -6.41   12.41
   8 -10  13  -15.79   14.03
  -8   9   9   10.06    8.75
   8  -9  -9   47.33    9.34
  -8   9   8   63.94    9.25
   8  -9  -8   73.05    9.20
  -8   9   7    1.04    8.03
   8  -9  -7    3.88    7.76
  -8   9   6   55.95    9.16
   8  -9  -6   55.36    8.44
  -8   9   5    6.05    7.63
   8  -9  -5    7.94    7.22
  -8   9   4   87.31    9.66
   8  -9  -4   93.54    9.75
  -8   9   3   16.56    8.39
   8  -9  -3   20.21    8.12
  -8   9   2  289.46   17.06
  -8   9   1  135.09   11.15
  -8   9   0  144.07   11.33
  -8   9  -1   25.95    7.45
  -8   9  -2   73.10    8.30
  -8   9  -3   50.99    7.76
  -8   9  -3   64.70    8.39
  -8   9  -4    9.11    7.40
  -8   9  -4   18.09    7.17
   8  -9   4   -1.04    6.27
  -8   9  -5   38.17    7.67
  -8   9  -5   27.07    7.17
  -8   9  -5   26.71    6.45
   8  -9   5   33.48    8.93
  -8   9  -6    9.34    7.54
  -8   9  -6   11.51    7.35
  -8   9  -6   18.45    6.81
   8  -9   6   -9.75    9.25
  -8   9  -7  216.95   14.26
  -8   9  -7  199.26   13.27
  -8   9  -7  198.18   14.75
   8  -9   7  201.51   16.33
  -8   9  -8    6.14    7.45
  -8   9  -8   -5.41    7.17
  -8   9  -8    3.61    9.34
   8  -9   8    0.00    9.70
  -8   9  -9  -14.30    7.63
  -8   9  -9   -5.37   10.11
   8  -9   9   -2.35   10.78
  -8   9 -10    0.68    8.35
  -8   9 -10  -12.41   10.83
   8  -9  10   14.30   12.68
  -8   9 -11   52.30    9.48
  -8   9 -11   51.48   11.46
   8  -9  11   55.23   14.39
  -8   9 -12    6.32    8.30
  -8   9 -12   -3.02   11.87
   8  -9  12    3.29   14.12
  -8   9 -13   15.79    8.71
  -8   9 -13   -8.26   12.36
   8  -9  13   -4.20   13.54
  -8   9 -14   27.30   10.78
  -8   9 -14    4.20   12.23
  -8   8  10   17.96    9.61
   8  -8 -10   10.24    8.26
   8  -8 -10   16.33   12.23
  -8   8   9  105.04   10.78
   8  -8  -9   81.49   10.33
   8  -8  -9   38.90    7.08
  -8   8   8   22.79    8.89
   8  -8  -8   13.00    8.98
  -8   8   7   10.38    8.75
   8  -8  -7    6.50    7.81
  -8   8   6   11.05    8.35
   8  -8  -6    1.80    7.04
  -8   8   5   81.90    9.57
   8  -8  -5   89.93    9.75
  -8   8   4    6.00    7.72
   8  -8  -4    0.81    6.90
  -8   8   3    9.39    7.85
   8  -8  -3   19.31    7.54
  -8   8   2   31.90    8.39
   8  -8  -2   35.74    7.90
  -8   8   1  459.34   23.78
  -8   8   0   42.96    8.53
  -8   8  -1  137.17   11.01
  -8   8  -2  104.64    9.43
  -8   8  -3  138.07   10.74
  -8   8  -4  189.29   11.91
  -8   8  -5   17.78    6.90
  -8   8  -5   15.25    6.86
  -8   8  -5   26.53    6.68
   8  -8   5   12.32    8.21
  -8   8  -6  239.19   15.12
  -8   8  -6  240.54   14.75
  -8   8  -6  241.00   16.06
   8  -8   6  233.78   16.33
  -8   8  -7    3.20    7.76
  -8   8  -7    4.15    7.81
  -8   8  -7    4.38    9.39
   8  -8   7   11.69    9.75
  -8   8  -8  117.36   10.96
  -8   8  -8   94.03   11.33
   8  -8   8   99.09   12.90
  -8   8  -9  108.52   10.29
  -8   8  -9  122.01   13.04
   8  -8   9   99.81   12.81
  -8   8 -10  159.96   12.63
  -8   8 -10  184.10   15.48
   8  -8  10  201.24   17.60
  -8   8 -11  108.88   10.92
  -8   8 -11   93.31   12.09
   8  -8  11  122.73   15.12
  -8   8 -12    6.00    8.26
  -8   8 -12  -10.87   11.60
   8  -8  12    1.85   14.03
  -8   8 -13  167.27   12.59
  -8   8 -13  157.43   15.16
   8  -8  13  173.00   17.60
  -8   8 -14   -5.91    7.94
  -8   8 -14    8.75   10.51
   8  -8  14  -25.27   12.86
  -8   7  10  154.45   12.72
   8  -7 -10  153.05   12.27
   8  -7 -10  151.97   16.42
  -8   7   9   -9.97    8.57
   8  -7  -9   13.45    8.57
   8  -7  -9   10.11   10.20
  -8   7   8   12.23    8.66
   8  -7  -8   18.09    9.02
   8  -7  -8    4.38    7.22
  -8   7   7   71.25   10.24
   8  -7  -7   53.29    8.93
  -8   7   6   85.42   10.06
   8  -7  -6   64.07    8.80
  -8   7   5    0.23    8.03
   8  -7  -5   -3.75    7.67
  -8   7   4   15.39    8.26
   8  -7  -4    2.53    6.86
  -8   7   3   -8.48    6.72
   8  -7  -3   -7.26    6.99
  -8   7   2  243.34   14.89
   8  -7  -2  246.64   14.80
  -8   7   1 2436.13  107.12
  -8   7   0   44.90    8.30
  -8   7  -1  215.10   13.81
  -8   7  -2  486.86   24.64
  -8   7  -3  508.52   25.72
  -8   7  -4  102.79    9.57
  -8   7  -4   82.84    9.34
  -8   7  -4   89.97    7.13
  -8   7  -5    9.79    7.45
  -8   7  -5    5.78    6.77
  -8   7  -5    1.85    5.91
   8  -7   5  -13.31    7.13
  -8   7  -6  172.82   12.41
  -8   7  -6  176.61   12.68
  -8   7  -6  162.21   11.60
   8  -7   6  166.68   13.72
  -8   7  -7    3.47    7.54
  -8   7  -7    6.36    7.26
   8  -7   7   -4.60    9.25
  -8   7  -8  500.85   25.45
  -8   7  -8  550.49   30.37
   8  -7   8  587.04   33.35
  -8   7  -9   -6.05    7.72
  -8   7  -9   22.34    9.11
   8  -7   9    2.84   10.20
  -8   7 -10  377.31   20.12
  -8   7 -10  372.12   22.79
   8  -7  10  357.77   23.46
  -8   7 -11  139.65   11.46
  -8   7 -11  120.84   13.63
   8  -7  11  137.89   15.30
  -8   7 -12  284.72   16.60
  -8   7 -12  282.64   19.85
   8  -7  12  288.33   21.84
  -8   7 -13   -3.56    8.21
  -8   7 -13   20.08   11.28
   8  -7  13    3.61   13.04
  -8   7 -14    4.38    7.63
  -8   7 -14   -3.29    9.84
   8  -7  14   15.39   13.18
  -8   7 -15   -5.78    7.58
  -8   7 -15  -12.45   10.65
   8  -7  15   -7.58   12.00
  -8   6  10   55.86    9.61
   8  -6 -10   77.25    9.02
   8  -6 -10   67.46   13.49
  -8   6   9   38.99   10.38
   8  -6  -9   24.46    8.84
   8  -6  -9   48.01   11.60
  -8   6   8  189.02   13.31
   8  -6  -8  171.87   13.09
   8  -6  -8  183.01   13.90
  -8   6   7    1.22    7.76
   8  -6  -7   15.93    8.35
   8  -6  -7   -3.16    6.09
  -8   6   6  212.34   14.39
   8  -6  -6  223.35   14.80
   8  -6  -6  172.73   10.47
  -8   6   5    1.58    8.48
   8  -6  -5    5.46    7.72
  -8   6   4  111.36   11.46
   8  -6  -4  128.96   11.28
  -8   6   3  161.18   12.63
   8  -6  -3  178.23   12.95
  -8   6   2  225.20   14.85
   8  -6  -2  195.83   13.27
  -8   6   1  506.27   25.58
   8  -6  -1  435.43   22.56
  -8   6   0   29.01    7.49
  -8   6  -1  561.77   27.70
  -8   6  -2  220.78   14.12
  -8   6  -3  364.40   19.67
  -8   6  -3  357.64   18.55
  -8   6  -4   35.10    7.08
  -8   6  -4   45.26    8.35
  -8   6  -4   43.63    5.91
  -8   6  -5   19.22    7.31
  -8   6  -5    9.07    6.95
  -8   6  -5    9.66    5.73
  -8   6  -6   33.39    7.67
  -8   6  -6   38.58    8.21
  -8   6  -6   38.49    8.08
   8  -6   6   28.74    8.93
  -8   6  -7  960.19   44.63
  -8   6  -7  863.63   45.89
   8  -6   7  938.08   49.50
  -8   6  -8  104.73   11.01
  -8   6  -8   95.79   11.19
   8  -6   8   89.25   12.18
  -8   6  -9   35.33    8.89
  -8   6  -9   36.91    9.30
   8  -6   9   45.53   11.10
  -8   6 -10  257.87   15.75
  -8   6 -10  270.23   18.82
   8  -6  10  244.79   18.68
  -8   6 -11  165.51   12.36
  -8   6 -11  158.11   14.30
   8  -6  11  165.06   15.84
  -8   6 -12  119.75   10.42
  -8   6 -12  136.81   13.54
   8  -6  12  127.11   15.03
  -8   6 -13   23.37    8.44
  -8   6 -13   28.25   11.05
   8  -6  13   26.67   12.72
  -8   6 -14    6.09    8.39
  -8   6 -14    6.72   11.64
   8  -6  14    8.80   12.54
  -8   6 -15    3.97    7.31
  -8   6 -15   12.36   11.24
   8  -6  15  -15.88   11.78
  -8   6 -16    5.82    9.52
  -8   6 -16    9.48   12.18
  -8   5  11   -7.04    8.48
   8  -5 -11  -15.88    9.20
   8  -5 -11    0.63   13.27
  -8   5  10   18.73    8.53
   8  -5 -10    1.94    7.81
   8  -5 -10    0.59   12.54
  -8   5   9  140.87   11.78
   8  -5  -9  126.30   11.01
   8  -5  -9  124.09   12.32
  -8   5   8   29.33    9.30
   8  -5  -8   41.87    7.90
   8  -5  -8   30.86    9.52
  -8   5   7   67.01    9.61
   8  -5  -7   94.21   10.33
   8  -5  -7   79.91    8.89
  -8   5   6   62.94    8.66
   8  -5  -6   64.16    9.97
   8  -5  -6   36.95    6.27
  -8   5   5  124.31   11.37
   8  -5  -5  133.97   10.87
  -8   5   4   -4.87    7.26
   8  -5  -4    7.31    7.72
  -8   5   3  151.07   12.05
   8  -5  -3  181.62   13.04
  -8   5   2   72.33    9.70
   8  -5  -2   74.04    9.39
  -8   5   1  235.94   15.07
   8  -5  -1  291.53   17.10
  -8   5   0  397.21   21.16
  -8   5  -1   15.61    7.76
  -8   5  -2  512.58   25.72
  -8   5  -3   62.31    8.03
  -8   5  -3   67.59    4.78
  -8   5  -4   97.82    9.57
  -8   5  -4  148.99    9.88
  -8   5  -5   27.43    7.45
  -8   5  -5   18.41    7.08
  -8   5  -5   12.81    5.64
  -8   5  -6   37.81    7.85
  -8   5  -6   39.84    8.03
  -8   5  -7  598.77   29.28
  -8   5  -7  610.95   33.44
   8  -5   7  683.60   37.32
  -8   5  -8  623.58   30.73
  -8   5  -8  633.51   35.24
   8  -5   8  601.02   33.89
  -8   5  -9   -2.62    7.72
  -8   5  -9   21.12   10.06
   8  -5   9    5.91   10.38
  -8   5 -10   31.63    8.35
  -8   5 -10   34.07   10.38
   8  -5  10   25.18   10.78
  -8   5 -11  304.89   17.37
  -8   5 -11  312.87   21.03
   8  -5  11  309.27   21.25
  -8   5 -12    6.68    7.54
  -8   5 -12   -0.27    9.88
   8  -5  12   -7.63   11.24
  -8   5 -13  102.11   10.33
  -8   5 -13  126.75   13.90
   8  -5  13  125.21   14.75
  -8   5 -14   -0.09    8.66
  -8   5 -14   -2.62   10.60
   8  -5  14   -9.93   11.42
  -8   5 -15   66.96    9.66
  -8   5 -15   55.09   11.96
   8  -5  15   37.36   13.04
  -8   5 -16   -4.87    7.99
  -8   5 -16    7.72   10.69
   8  -5  16   17.06   12.45
  -8   4  11   -6.90    8.21
   8  -4 -11    6.54    9.02
   8  -4 -11    3.02   14.26
  -8   4  10   73.19    9.97
   8  -4 -10   89.70   10.33
   8  -4 -10  106.40   14.26
  -8   4   9  155.99   12.05
   8  -4  -9  141.37   11.28
   8  -4  -9  144.48   13.40
  -8   4   8   48.05    9.61
   8  -4  -8   64.70    8.57
   8  -4  -8   53.42   10.69
  -8   4   7   53.97    8.93
   8  -4  -7   47.15    8.44
   8  -4  -7   41.96    8.35
  -8   4   6   -1.67    7.81
   8  -4  -6   19.76    8.17
   8  -4  -6   -3.20    6.14
  -8   4   5   51.66    9.61
   8  -4  -5   79.10    9.97
   8  -4  -5   59.97    6.54
  -8   4   4   55.50    9.88
   8  -4  -4   48.87    9.02
  -8   4   3   48.73    9.34
   8  -4  -3   56.31    9.30
  -8   4   2  106.89   10.56
   8  -4  -2  128.28   11.05
  -8   4   1  828.89   39.12
   8  -4  -1  845.58   39.98
  -8   4   0   68.27    9.07
  -8   4  -1  677.28   32.71
  -8   4  -2  186.98   12.86
  -8   4  -3   53.56    7.76
  -8   4  -3   41.20    4.42
  -8   4  -4  400.55   20.98
  -8   4  -4  386.29   20.89
  -8   4  -5    6.68    6.18
  -8   4  -5   -0.27    6.95
  -8   4  -5    8.71    5.64
  -8   4  -6  228.00   14.30
  -8   4  -6  240.59   15.30
  -8   4  -7  503.56   25.36
  -8   4  -7  493.18   27.34
  -8   4  -8  140.83   12.05
  -8   4  -8  133.15   11.69
  -8   4  -9   -1.94    8.53
  -8   4  -9    4.20    8.48
   8  -4   9    5.78    9.66
  -8   4 -10  350.91   19.85
  -8   4 -10  356.06   21.75
   8  -4  10  390.39   24.41
  -8   4 -11    7.13    7.72
  -8   4 -11    9.84    8.62
   8  -4  11    6.14   10.83
  -8   4 -12   40.61    8.89
  -8   4 -12   66.92   10.83
   8  -4  12   43.59   11.55
  -8   4 -13   15.84    8.44
  -8   4 -13   19.27    9.79
   8  -4  13    9.93   11.69
  -8   4 -14   -7.63    8.12
  -8   4 -14   15.16   10.92
   8  -4  14   14.39   11.55
  -8   4 -15   40.16    8.71
  -8   4 -15   21.30   10.92
   8  -4  15   23.19   11.78
  -8   4 -16   29.37    8.35
   8  -4  16   36.37    6.05
  -8   4 -16   31.86   10.96
  -8   3  11   -0.05    8.53
   8  -3 -11   12.32    9.02
  -8   3  11   -6.05   11.69
   8  -3 -11    3.25   13.36
  -8   3  10  117.77    9.93
   8  -3 -10  130.54   11.82
  -8   3  10  106.85   13.76
   8  -3 -10   97.10   13.36
  -8   3   9   15.66    8.21
   8  -3  -9   11.28    8.17
  -8   3   9   19.13   10.29
   8  -3  -9   13.90    9.34
  -8   3   8   72.01   10.11
   8  -3  -8   72.83    9.20
  -8   3   8   92.54   11.28
   8  -3  -8   80.45   10.87
  -8   3   7   10.69    8.30
   8  -3  -7   10.56    7.76
  -8   3   7    7.54    8.39
   8  -3  -7   17.10    8.53
  -8   3   6  112.53   11.33
   8  -3  -6  126.25   11.28
  -8   3   6  109.19   10.69
   8  -3  -6  110.19    9.97
  -8   3   5   -5.46    7.94
   8  -3  -5   19.58    8.21
  -8   3   5    4.78    6.23
   8  -3  -5    6.18    5.50
  -8   3   4   12.59    8.75
   8  -3  -4    0.14    7.58
  -8   3   4   11.19    5.46
   8  -3  -4   13.72    4.74
  -8   3   3    9.30    7.31
   8  -3  -3   12.59    8.12
  -8   3   3    6.09    4.15
  -8   3   2   15.12    8.03
   8  -3  -2   28.34    8.30
  -8   3   2   28.16    3.65
  -8   3   1 2274.14   99.94
   8  -3  -1 2144.64   94.80
  -8   3   0  495.89   24.68
   8  -3   0  469.27   24.28
  -8   3  -1   15.48    7.22
  -8   3  -2   30.77    7.67
  -8   3  -2   23.69    3.20
  -8   3  -2   23.69    3.61
  -8   3  -3  617.72   29.87
  -8   3  -3  581.17   29.96
  -8   3  -4   41.83    7.58
  -8   3  -4   37.90    5.78
  -8   3  -5  169.52   11.78
  -8   3  -5  149.80   11.05
  -8   3  -5  143.08   10.24
  -8   3  -6   20.80    6.77
  -8   3  -6    6.18    5.96
  -8   3  -7  207.65   13.67
  -8   3  -7  216.49   14.62
  -8   3  -8  395.22   21.21
  -8   3  -8  375.73   22.11
  -8   3  -9   52.30    9.79
  -8   3  -9   60.69   10.24
  -8   3 -10  128.10   11.73
  -8   3 -10  112.35   12.81
  -8   3 -11    8.17    8.35
  -8   3 -11    9.43    9.79
  -8   3 -12   71.20   10.56
  -8   3 -12  102.16   13.09
  -8   3 -13   30.05    9.16
  -8   3 -13    6.05   10.47
  -8   3 -14   30.73    9.11
   8  -3  14   25.45    7.85
  -8   3 -14    2.48    9.93
  -8   3 -15    1.40    8.30
   8  -3  15   -5.82    7.08
  -8   3 -15   -3.88    9.93
  -8   3 -16   13.22    8.03
   8  -3  16   12.54    7.81
  -8   3 -16   14.26    9.97
  -8   3 -17   34.79    7.72
   8  -3  17   45.44    7.58
  -8   3 -17   45.93   11.69
  -8   2  11    0.54    8.12
   8  -2 -11   10.33    8.75
  -8   2  11   -5.01   12.36
   8  -2 -11   10.02   14.39
  -8   2  10    1.85    8.44
   8  -2 -10    5.60    9.11
  -8   2  10  -14.03   12.23
   8  -2 -10   13.09   11.37
  -8   2   9   97.91   11.15
   8  -2  -9   71.07    9.79
  -8   2   9   90.29   12.27
   8  -2  -9   92.05   11.69
  -8   2   8   32.76    9.16
   8  -2  -8   29.15    8.93
  -8   2   8   25.13    9.66
   8  -2  -8    7.35    8.84
  -8   2   7   18.32    8.26
   8  -2  -7   24.95    8.48
  -8   2   7   15.03    9.75
   8  -2  -7   17.64    8.44
  -8   2   6   -6.23    7.08
   8  -2  -6    1.71    6.95
  -8   2   6    2.03    8.84
   8  -2  -6   -2.53    7.04
  -8   2   5   15.48    8.21
   8  -2  -5   26.85    7.72
  -8   2   5   33.03    8.35
   8  -2  -5   24.86    6.59
  -8   2   4   54.96    9.20
   8  -2  -4   50.81    9.16
  -8   2   4   56.67    7.85
   8  -2  -4   54.55    6.99
  -8   2   3   17.96    7.22
   8  -2  -3   16.33    8.12
  -8   2   3    9.70    5.73
  -8   2   2   14.44    7.49
   8  -2  -2    5.41    7.26
  -8   2   2   32.76    5.14
  -8   2   1   24.46    8.21
   8  -2  -1   39.98    8.39
  -8   2   1   31.45    4.83
  -8   2   0  184.05   13.00
   8  -2   0  153.28   11.78
  -8   2   0  170.92    9.97
  -8   2  -1  159.05   12.00
  -8   2  -1  155.26    9.11
  -8   2  -2  386.47   20.58
  -8   2  -2  399.33   21.07
  -8   2  -2  416.84   22.02
  -8   2  -3  134.10   10.65
  -8   2  -3  153.59   10.06
  -8   2  -4   19.31    6.45
  -8   2  -4    9.20    6.05
  -8   2  -5    0.27    6.68
  -8   2  -5   -2.21    5.96
  -8   2  -6  148.54   11.42
  -8   2  -6  130.76   11.01
  -8   2  -7  514.39   26.08
  -8   2  -7  485.51   27.61
  -8   2  -8  284.40   16.79
  -8   2  -8  304.12   19.58
  -8   2  -9   16.42    8.53
  -8   2  -9   -0.45    8.21
  -8   2 -10   12.18    8.75
  -8   2 -10   -1.04    8.75
  -8   2 -11  351.27   20.12
  -8   2 -11  371.85   23.69
  -8   2 -12   16.47    8.84
  -8   2 -12    0.23   10.20
  -8   2 -13   70.57   10.15
   8  -2  13   62.04    8.30
  -8   2 -13   64.52   10.96
  -8   2 -14   13.36    7.76
   8  -2  14   -5.82    6.72
  -8   2 -14   -0.14    9.70
  -8   2 -15   -8.03    6.99
   8  -2  15   -1.44    6.18
  -8   2 -15   11.05   10.69
  -8   2 -16   60.55    8.98
   8  -2  16   66.01    8.93
  -8   2 -16   44.54   10.65
  -8   2 -17    3.65    7.90
   8  -2  17    7.94    8.03
  -8   2 -17   20.53   10.56
  -8   1  11   -9.20    8.48
   8  -1 -11   11.19    9.16
  -8   1  11   -9.75   12.27
   8  -1 -11    4.87   13.09
  -8   1  10   85.73   11.42
   8  -1 -10   57.53    9.43
  -8   1  10   88.08   13.31
   8  -1 -10   81.58   13.04
  -8   1   9  133.29   11.37
   8  -1  -9  141.46   11.46
  -8   1   9  144.71   15.03
   8  -1  -9  159.96   14.26
  -8   1   8   29.60    9.02
   8  -1  -8   12.05    7.72
  -8   1   8   26.26   11.10
   8  -1  -8   25.54    9.57
  -8   1   7   -9.16    7.45
   8  -1  -7    1.17    7.94
  -8   1   7   10.78    8.53
   8  -1  -7   16.47    8.21
  -8   1   6   54.15    9.93
   8  -1  -6   44.81    9.25
  -8   1   6   52.03    9.20
   8  -1  -6   53.42    8.71
  -8   1   5  223.58   14.89
   8  -1  -5  228.45   15.03
  -8   1   5  212.93   15.12
   8  -1  -5  197.23   13.58
  -8   1   4   14.62    8.57
   8  -1  -4   14.85    7.99
  -8   1   4   21.07    6.90
   8  -1  -4   24.77    6.41
  -8   1   3  452.57   24.14
   8  -1  -3  417.87   22.11
  -8   1   3  461.15   25.36
  -8   1   2  944.85   44.22
   8  -1  -2  929.06   43.23
  -8   1   2  822.12   42.82
  -8   1   1 1513.39   67.55
   8  -1  -1 1609.50   71.74
  -8   1   1 1578.81   79.41
  -8   1   0 1253.94   56.72
   8  -1   0 1278.75   57.67
  -8   1   0 1262.51   63.76
  -8   1  -1  584.33   28.52
  -8   1  -1  489.57   25.90
  -8   1  -2  535.15   26.17
  -8   1  -2  542.36   28.52
  -8   1  -3   43.72    7.13
  -8   1  -3   42.41    6.77
  -8   1  -4    2.53    6.23
  -8   1  -4   10.69    6.36
  -8   1  -5  138.48   10.74
  -8   1  -5  148.41   11.28
  -8   1  -6  812.64   37.99
  -8   1  -6  847.84   45.03
  -8   1  -7   64.21    8.71
  -8   1  -7   48.01    9.07
  -8   1  -8 1735.84   77.25
  -8   1  -8 1751.18   89.34
  -8   1  -9    1.99    7.54
  -8   1  -9    0.36    8.80
  -8   1 -10  480.10   25.27
  -8   1 -10  482.80   28.07
  -8   1 -11   57.58    9.57
  -8   1 -11   58.66    9.75
  -8   1 -12   11.60    9.07
   8  -1  12    2.21    7.22
  -8   1 -12  -11.91    8.57
  -8   1 -13   68.54    9.48
   8  -1  13   49.27    8.89
  -8   1 -13   69.62   11.05
  -8   1 -14   17.96    7.81
   8  -1  14   26.40    7.72
  -8   1 -14   10.38   10.15
  -8   1 -15   28.34    7.81
   8  -1  15   23.82    7.22
  -8   1 -15   28.79   10.29
  -8   1 -16   73.82    9.25
   8  -1  16   69.04    9.02
  -8   1 -16   61.46   11.10
  -8   1 -17   50.81    8.89
   8  -1  17   33.66    7.54
  -8   1 -17   59.11   12.32
  -8   0  11    5.37    9.39
   8   0 -11   13.85    9.66
  -8   0  11   17.15   12.54
   8   0 -11   16.47   13.27
  -8   0  10   55.91    8.75
   8   0 -10   71.16   10.15
  -8   0  10   89.43   13.36
   8   0 -10  102.43   13.67
  -8   0   9    6.77    8.12
   8   0  -9   11.28    7.31
  -8   0   9   29.28   11.82
   8   0  -9   17.33   10.06
  -8   0   8  125.53   10.96
   8   0  -8  129.54   11.82
  -8   0   8  143.62   14.03
   8   0  -8  153.37   13.45
  -8   0   7    7.22    6.86
   8   0  -7   -7.99    7.85
  -8   0   7   -4.02    9.43
   8   0  -7    3.20    7.54
  -8   0   6   76.71    9.57
   8   0  -6   77.74    9.75
  -8   0   6   71.65   10.69
   8   0  -6   39.08    8.17
  -8   0   5   51.35    8.84
   8   0  -5   62.54    8.80
  -8   0   5   56.58    8.89
   8   0  -5   57.76    8.48
  -8   0   4  124.04   11.15
   8   0  -4  113.98   11.05
  -8   0   4  103.64   10.15
   8   0  -4  111.72   10.38
  -8   0   3   75.80    9.52
   8   0  -3   93.09   10.24
  -8   0   3   83.70    9.25
   8   0  -3   81.44    8.17
  -8   0   2    8.71    7.99
   8   0  -2   21.88    7.72
  -8   0   2   30.77    6.27
  -8   0   1 1642.44   73.23
   8   0  -1 1662.29   73.95
  -8   0   1 1299.51   65.79
  -8   0   0   81.63    9.52
   8   0   0   65.70    8.30
  -8   0   0   80.99    7.26
  -8   0  -1  343.20   19.13
  -8   0  -1  376.68   20.53
  -8   0  -2    7.08    7.13
  -8   0  -2   13.13    5.32
  -8   0  -3  355.79   19.22
  -8   0  -4   -4.33    6.81
  -8   0  -5  204.63   13.22
  -8   0  -5  230.93   15.07
  -8   0  -6  960.64   44.35
  -8   0  -6 1025.62   53.60
  -8   0  -7 1196.63   54.15
  -8   0  -7 1239.95   63.85
  -8   0  -8 1193.02   54.51
  -8   0  -8 1177.23   61.14
  -8   0  -9   66.33   10.06
  -8   0  -9   59.56    9.48
  -8   0 -10  119.98   10.69
  -8   0 -10  116.46   11.69
  -8   0 -11   12.00    8.62
   8   0  11    6.45    7.45
  -8   0 -11   -9.16    8.44
  -8   0 -12   37.23    9.39
   8   0  12   51.89    8.35
  -8   0 -12   62.76   11.33
  -8   0 -13    0.54    8.08
   8   0  13   10.24    7.35
  -8   0 -13   -0.90   10.20
  -8   0 -14    5.14    8.53
   8   0  14    8.89    7.17
  -8   0 -14   14.62   10.11
  -8   0 -15  229.76   15.39
   8   0  15  207.29   13.99
  -8   0 -15  209.95   16.06
  -8   0 -16   54.82    8.75
   8   0  16   56.49    7.17
  -8   0 -16   41.87    9.70
  -8   0 -17   30.05    8.17
   8   0  17   18.59    7.90
  -8   0 -17   32.62   10.60
  -8  -1  11   34.02    9.48
   8   1 -11   36.64    9.61
  -8  -1  11   54.46   13.58
   8   1 -11   29.69   12.77
  -8  -1  10  111.90   10.78
   8   1 -10  104.23   10.83
  -8  -1  10  112.76   14.26
   8   1 -10  122.42   14.26
  -8  -1   9  114.70   11.64
   8   1  -9  143.58   11.64
  -8  -1   9  133.47   14.21
   8   1  -9  115.38   12.68
  -8  -1   8  166.23   13.49
   8   1  -8  163.48   13.18
  -8  -1   8  153.37   14.75
   8   1  -8  180.22   14.53
  -8  -1   7   -7.40    7.81
   8   1  -7    5.87    7.58
  -8  -1   7   18.45    8.89
   8   1  -7    6.41    7.63
  -8  -1   6   58.21   10.24
   8   1  -6   56.49    9.25
  -8  -1   6   63.22   10.47
   8   1  -6   82.89    9.57
  -8  -1   5   -1.35    7.76
   8   1  -5    4.42    6.99
  -8  -1   5    2.08    8.17
   8   1  -5    5.50    8.12
  -8  -1   4  222.59   15.34
   8   1  -4  226.65   15.03
  -8  -1   4  222.63   16.20
   8   1  -4  239.01   15.88
  -8  -1   3   20.40    8.17
   8   1  -3   11.28    7.76
  -8  -1   3    1.35    7.45
   8   1  -3   10.74    6.72
  -8  -1   2   59.74    7.76
   8   1  -2   55.00    8.44
  -8  -1   2   36.59    7.40
  -8  -1   1  112.62   10.15
   8   1  -1   92.32    9.70
  -8  -1   1  100.13    9.34
  -8  -1   0  912.36   42.19
   8   1   0  909.66   42.19
  -8  -1   0  888.90   46.25
  -8  -1  -1   11.69    6.14
  -8  -1  -1    7.67    6.14
  -8  -1  -2    9.84    6.14
  -8  -1  -2   11.01    6.23
  -8  -1  -3  467.46   23.24
  -8  -1  -4   44.72    7.45
  -8  -1  -5  605.54   29.51
  -8  -1  -6  742.25   35.33
  -8  -1  -6  762.11   40.47
  -8  -1  -7  392.02   20.80
  -8  -1  -7  437.95   24.59
  -8  -1  -8   -3.97    7.49
  -8  -1  -8   13.54    7.63
  -8  -1  -9  409.84   22.02
  -8  -1  -9  366.52   21.88
  -8  -1 -10   30.10    8.98
  -8  -1 -10   22.38    9.16
  -8  -1 -11  104.91   11.05
   8   1  11   92.14   10.11
  -8  -1 -11  118.22   13.58
  -8  -1 -12  145.16   12.81
   8   1  12  118.54   10.83
  -8  -1 -12  151.29   14.08
  -8  -1 -13   47.06    9.07
   8   1  13   10.65    8.03
  -8  -1 -13   24.86    9.70
  -8  -1 -14   24.46    7.81
   8   1  14   37.90    8.21
  -8  -1 -14   48.55    9.48
  -8  -1 -15  141.41   11.60
   8   1  15  121.56   10.33
  -8  -1 -15  135.77   13.18
  -8  -1 -16  171.15   13.31
   8   1  16  185.32   12.32
  -8  -1 -16  160.36   14.12
  -8  -1 -17   17.01    7.45
   8   1  17   16.83    7.13
  -8  -1 -17   -0.99   10.47
  -8  -1 -18   37.95    9.02
   8   1  18   52.34    8.26
  -8  -1 -18   61.46   11.01
  -8  -2  11   50.31    8.80
   8   2 -11   51.89    9.93
  -8  -2  11   63.71   12.36
   8   2 -11   70.25   13.18
  -8  -2  10   42.46    9.75
   8   2 -10   38.17    9.30
  -8  -2  10   44.45   12.81
   8   2 -10   38.31   11.78
  -8  -2   9   76.93   10.38
   8   2  -9   61.82    9.48
  -8  -2   9   79.28   12.86
   8   2  -9   76.17   11.64
  -8  -2   8   20.40    8.21
   8   2  -8   21.07    8.12
  -8  -2   8   34.25   10.83
   8   2  -8   23.28    8.39
  -8  -2   7   24.82    8.48
   8   2  -7   10.33    7.22
  -8  -2   7   12.32    8.62
   8   2  -7   11.60    8.44
  -8  -2   6   -1.44    6.95
   8   2  -6    1.04    8.08
  -8  -2   6    0.18    8.17
   8   2  -6   -1.99    7.99
  -8  -2   5    8.80    7.40
   8   2  -5   18.05    8.35
  -8  -2   5   21.03    8.62
   8   2  -5   24.50    8.39
  -8  -2   4  150.30   12.14
   8   2  -4  138.79   11.96
  -8  -2   4  152.96   12.95
   8   2  -4  136.63   11.10
  -8  -2   3   86.32   10.15
   8   2  -3   73.55    8.98
  -8  -2   3  106.94   10.92
   8   2  -3  105.99   10.06
  -8  -2   2   74.72    9.25
   8   2  -2   80.81    9.25
  -8  -2   2   74.90    9.16
  -8  -2   1  666.90   32.53
   8   2  -1  664.64   31.99
  -8  -2   1  617.27   33.21
  -8  -2   0  187.12   13.18
   8   2   0  175.30   12.32
  -8  -2   0  167.40   12.00
  -8  -2  -1    2.62    6.23
  -8  -2  -1   11.10    6.50
  -8  -2  -2  715.18   33.80
  -8  -2  -2  735.49   38.85
  -8  -2  -3  210.58   12.72
  -8  -2  -4   39.89    7.17
  -8  -2  -5   31.81    7.22
  -8  -2  -6  494.08   24.86
  -8  -2  -7  939.89   43.72
  -8  -2  -7  907.85   47.56
  -8  -2  -8 1946.56   86.41
  -8  -2  -8 2082.82  105.49
  -8  -2  -9    4.78    7.54
  -8  -2  -9    3.97    7.76
  -8  -2 -10   47.42    9.34
  -8  -2 -10   78.51   11.19
  -8  -2 -11  420.31   22.43
   8   2  11  429.97   22.79
  -8  -2 -11  457.54   27.39
  -8  -2 -12   -0.54    9.25
   8   2  12   18.32    7.49
  -8  -2 -12   15.21    9.34
  -8  -2 -13    7.67    7.90
   8   2  13   -1.31    7.76
  -8  -2 -13    5.82    9.16
  -8  -2 -14   10.78    8.17
   8   2  14   22.52    8.30
  -8  -2 -14   22.15   10.24
  -8  -2 -15  134.87   12.05
   8   2  15  141.91   11.42
  -8  -2 -15  142.68   12.95
  -8  -2 -16   -1.35    7.99
   8   2  16    7.49    7.35
  -8  -2 -16    2.80    9.57
  -8  -2 -17  156.98   11.69
   8   2  17  171.91   12.50
  -8  -2 -17  147.32   14.80
  -8  -2 -18   -7.94    7.54
   8   2  18  -11.10    7.58
  -8  -2 -18  -14.39    8.44
  -8  -3  11    7.22    9.39
   8   3 -11   15.61    9.88
  -8  -3  11   13.36   11.55
   8   3 -11   11.05   11.55
  -8  -3  10   50.22    9.79
   8   3 -10   38.31    9.34
  -8  -3  10   34.47   11.46
   8   3 -10   37.45   12.41
  -8  -3   9   12.86    9.39
   8   3  -9   13.09    8.17
  -8  -3   9   27.43   11.33
   8   3  -9    3.97    9.34
  -8  -3   8  102.47   10.87
   8   3  -8   93.58   10.56
  -8  -3   8   93.76   11.91
   8   3  -8  102.88   11.96
  -8  -3   7   27.66    9.93
   8   3  -7   32.13    8.75
  -8  -3   7   19.13    9.66
   8   3  -7   11.24    7.76
  -8  -3   6   27.84   10.33
   8   3  -6   54.28    8.89
  -8  -3   6   44.45    9.97
   8   3  -6   43.09   10.11
  -8  -3   5   13.67    8.12
   8   3  -5   18.82    7.90
  -8  -3   5   24.95    9.75
   8   3  -5   32.44    8.75
  -8  -3   4   17.60    8.17
   8   3  -4   16.65    8.08
  -8  -3   4   13.13    8.30
   8   3  -4   21.61    8.08
  -8  -3   3  228.86   14.75
   8   3  -3  244.24   15.43
  -8  -3   3  247.76   16.70
   8   3  -3  224.89   14.98
  -8  -3   2  168.89   11.73
   8   3  -2  180.85   12.27
  -8  -3   2  188.70   14.12
  -8  -3   1  354.66   18.95
   8   3  -1  367.56   19.81
  -8  -3   1  361.61   21.25
  -8  -3   0  126.21    9.93
   8   3   0  130.27    9.57
  -8  -3   0  154.77   12.05
  -8  -3  -1  992.68   45.08
  -8  -3  -1 1010.28   52.84
  -8  -3  -2    3.56    6.05
  -8  -3  -2    1.71    7.13
  -8  -3  -3  558.61   27.12
  -8  -3  -4    9.84    6.77
  -8  -3  -5   79.14    8.57
  -8  -3  -6  126.57   10.02
  -8  -3  -7  713.38   34.34
  -8  -3  -8  500.40   25.63
  -8  -3  -8  588.39   32.89
  -8  -3  -9    7.40    7.40
  -8  -3  -9    0.77    8.84
  -8  -3 -10   13.72    8.57
  -8  -3 -10   18.91    8.80
  -8  -3 -11    9.88    8.12
   8   3  11    7.90    7.72
  -8  -3 -11   11.05    8.44
  -8  -3 -12   73.19   10.47
   8   3  12   79.82    9.43
  -8  -3 -12   66.96   10.33
  -8  -3 -13   -5.87    7.31
   8   3  13   13.18    7.26
  -8  -3 -13    4.38    9.48
  -8  -3 -14   22.52    8.35
   8   3  14   20.85    6.77
  -8  -3 -14   21.57    9.97
  -8  -3 -15   69.31   10.56
   8   3  15   91.73    9.88
  -8  -3 -15   71.61   11.01
  -8  -3 -16   71.02    9.20
   8   3  16   81.81    9.34
  -8  -3 -16   66.42   10.11
  -8  -3 -17   42.82    8.39
   8   3  17   53.11    8.89
  -8  -3 -17   45.03    9.97
  -8  -3 -18    9.11    8.30
   8   3  18    6.18    7.76
  -8  -3 -18   -1.67    8.71
  -8  -4  10   55.45    9.48
   8   4 -10   59.24    9.48
  -8  -4  10   51.80   12.72
   8   4 -10   51.48   11.01
  -8  -4   9   27.93   10.15
   8   4  -9   25.36    9.20
  -8  -4   9   47.29   12.00
   8   4  -9   28.25    9.84
  -8  -4   8    8.03    9.11
   8   4  -8   -3.75    8.17
  -8  -4   8    7.76   10.11
   8   4  -8    9.20    8.89
  -8  -4   7    2.21    9.07
   8   4  -7   21.52    8.93
  -8  -4   7   29.15    9.61
   8   4  -7    6.90    8.71
  -8  -4   6   19.76    8.12
   8   4  -6   23.28    7.63
  -8  -4   6   16.56    9.66
   8   4  -6    1.31    8.35
  -8  -4   5   90.11    9.93
   8   4  -5   84.87    9.52
  -8  -4   5   82.93   11.19
   8   4  -5   81.17   10.38
  -8  -4   4  489.57   25.27
   8   4  -4  472.43   24.10
  -8  -4   4  466.56   27.57
   8   4  -4  483.25   27.61
  -8  -4   3   -5.41    8.26
   8   4  -3    4.29    7.40
  -8  -4   3   10.65    8.44
  -8  -4   2   24.68    8.03
   8   4  -2   25.76    6.99
  -8  -4   2   21.03    7.63
  -8  -4   1  501.30   25.54
   8   4  -1  474.23   24.00
  -8  -4   1  473.33   27.21
  -8  -4   0  708.86   33.53
  -8  -4   0  667.35   36.14
  -8  -4  -1   79.87    7.99
  -8  -4  -1   83.11    9.57
  -8  -4  -2   16.83    6.54
  -8  -4  -2    5.01    7.35
  -8  -4  -3  416.16   20.67
  -8  -4  -3  385.84   23.06
  -8  -4  -4   10.56    6.23
  -8  -4  -4    3.70    5.46
  -8  -4  -5  203.82   13.31
  -8  -4  -6  141.23   11.28
  -8  -4  -7  311.66   17.10
  -8  -4  -8   23.15    7.63
  -8  -4  -8   45.30    8.71
  -8  -4  -9   -0.32    6.99
  -8  -4  -9   18.09    8.57
  -8  -4 -10   42.96    8.66
  -8  -4 -10   28.38    8.80
  -8  -4 -11   15.79    8.35
   8   4  11   16.33    8.30
  -8  -4 -11   16.33    8.39
  -8  -4 -12   60.60    9.79
   8   4  12   50.99    9.02
  -8  -4 -12   42.46   10.15
  -8  -4 -13   14.08    8.26
   8   4  13    4.69    8.08
  -8  -4 -13    4.56   10.06
  -8  -4 -14   63.94    9.97
   8   4  14   80.05    9.30
  -8  -4 -14   59.65    9.66
  -8  -4 -15   16.11    8.93
   8   4  15   26.17    6.95
  -8  -4 -15   18.68   10.15
  -8  -4 -16   14.08    8.57
   8   4  16   30.59    8.66
  -8  -4 -16   23.19   10.11
  -8  -4 -17    6.95    7.49
   8   4  17    2.98    8.93
  -8  -4 -17   13.58    9.61
  -8  -4 -18    2.53    8.75
   8   4  18   18.23    9.11
  -8  -4 -18   -0.18    9.11
  -8  -5  10    4.29    9.70
   8   5 -10    4.51    9.34
  -8  -5  10  -19.81   10.29
   8   5 -10   -8.71    9.66
  -8  -5   9   72.51   11.24
   8   5  -9   66.78    9.97
  -8  -5   9   50.85   11.05
   8   5  -9   53.74   11.01
  -8  -5   8    8.66    9.11
   8   5  -8   15.03    9.52
  -8  -5   8    5.73    9.39
   8   5  -8   22.70    8.75
  -8  -5   7   29.92    8.44
   8   5  -7   13.54    9.20
  -8  -5   7   24.23    9.43
   8   5  -7   22.47    8.71
  -8  -5   6   32.58    8.89
   8   5  -6   18.00    8.12
  -8  -5   6   26.35    9.66
   8   5  -6   29.65    8.48
  -8  -5   5  207.88   14.08
   8   5  -5  228.09   14.44
  -8  -5   5  234.00   16.92
   8   5  -5  237.16   16.92
  -8  -5   4   89.75   10.06
   8   5  -4   83.16    9.52
  -8  -5   4  101.98   12.00
   8   5  -4   91.06   10.47
  -8  -5   3   71.47    8.89
   8   5  -3   80.05    9.07
  -8  -5   3   62.99    9.34
  -8  -5   2  387.33   20.26
   8   5  -2  414.17   21.66
  -8  -5   2  403.03   24.00
  -8  -5   1   72.47    8.44
   8   5  -1   46.07    7.67
  -8  -5   1   51.94    8.98
  -8  -5   0  710.67   33.75
  -8  -5   0  755.79   40.61
  -8  -5  -1    9.52    6.95
  -8  -5  -1    5.32    7.04
  -8  -5  -2  118.49    9.79
  -8  -5  -2  110.19   10.51
  -8  -5  -3   16.92    6.14
  -8  -5  -3    2.48    6.86
  -8  -5  -4    4.24    5.69
  -8  -5  -4    4.96    6.54
  -8  -5  -5   18.36    6.72
  -8  -5  -6  706.61   33.53
  -8  -5  -7  248.31   14.89
  -8  -5  -8  358.45   19.18
  -8  -5  -9   72.42    9.48
  -8  -5  -9   83.02   10.38
  -8  -5 -10   25.58    8.75
  -8  -5 -10   28.11    9.11
  -8  -5 -11  100.71   11.01
   8   5  11   78.83    9.61
  -8  -5 -11  116.91   12.63
  -8  -5 -12    6.14    7.49
   8   5  12   17.60    7.76
  -8  -5 -12   -2.17    9.02
  -8  -5 -13   55.36    9.48
   8   5  13   86.32   10.24
  -8  -5 -13   60.42   10.11
  -8  -5 -14   19.09    8.39
   8   5  14   17.06    7.13
  -8  -5 -14   -3.02    9.84
  -8  -5 -15   71.88   10.29
   8   5  15   65.43    8.12
  -8  -5 -15   42.01    9.30
  -8  -5 -16   10.78    8.48
   8   5  16    7.54    8.35
  -8  -5 -16   18.64    9.16
  -8  -5 -17   22.83    7.58
   8   5  17   29.78    9.25
  -8  -5 -17   28.07    9.30
  -8  -6  10   67.19   12.81
   8   6 -10   87.13   12.86
  -8  -6  10   62.13   13.04
   8   6 -10   74.14   10.92
  -8  -6   9   -6.99    9.57
   8   6  -9    9.07    9.25
  -8  -6   9    0.63   10.60
   8   6  -9    6.14    9.70
  -8  -6   8   24.59    9.84
   8   6  -8    8.84    8.62
  -8  -6   8    6.95    8.84
   8   6  -8   24.14    9.30
  -8  -6   7    9.16    9.16
   8   6  -7   -3.61    8.03
  -8  -6   7   -0.45    9.70
   8   6  -7   -1.31    8.84
  -8  -6   6   11.60    8.84
   8   6  -6   -8.57    7.26
  -8  -6   6    9.16    9.02
   8   6  -6    4.06    8.03
  -8  -6   5   28.79    7.94
   8   6  -5   18.36    7.72
  -8  -6   5   23.19    9.52
   8   6  -5   11.19    8.53
  -8  -6   4    3.52    8.12
   8   6  -4   -5.32    6.59
  -8  -6   4   -6.95    8.75
   8   6  -4    5.46    7.45
  -8  -6   3   31.86    8.12
   8   6  -3   41.33    8.03
  -8  -6   3   43.86    8.89
  -8  -6   2   27.61    7.45
   8   6  -2   18.68    6.77
  -8  -6   2   13.40    8.44
  -8  -6   1  600.12   29.01
  -8  -6   1  597.41   33.16
  -8  -6   0   60.51    7.40
  -8  -6   0   53.33    9.07
  -8  -6  -1  233.78   13.27
  -8  -6  -1  260.40   18.05
  -8  -6  -2   -3.34    5.78
  -8  -6  -2   -5.91    7.67
  -8  -6  -3  289.23   15.75
  -8  -6  -3  293.29   15.79
  -8  -6  -3  292.52   18.82
  -8  -6  -4  340.67   18.05
  -8  -6  -4  351.63   18.18
  -8  -6  -5  178.10   11.78
  -8  -6  -5  200.70   12.63
  -8  -6  -6 1152.41   52.21
  -8  -6  -7  120.97    9.93
  -8  -6  -8 1116.77   50.76
  -8  -6  -9   19.31    8.30
  -8  -6 -10   25.22    8.39
  -8  -6 -10   22.34    9.02
  -8  -6 -11   13.00    8.30
   8   6  11    3.84    7.72
  -8  -6 -11    5.78    8.71
  -8  -6 -12   39.08    8.53
   8   6  12   35.78    8.12
  -8  -6 -12   43.59    9.11
  -8  -6 -13  112.40   11.55
   8   6  13   75.40    9.61
  -8  -6 -13   95.25   11.91
  -8  -6 -14   -2.21    7.94
   8   6  14   19.40    7.90
  -8  -6 -14    8.53    9.02
  -8  -6 -15  141.86   12.18
   8   6  15  143.44   11.69
  -8  -6 -15  148.99   13.94
  -8  -6 -16   -9.57    8.98
   8   6  16    1.40    8.08
  -8  -6 -16   -5.69    9.93
  -8  -6 -17  188.25   13.81
   8   6  17  194.57   13.72
  -8  -6 -17  195.83   14.98
  -8  -7   9    6.95   10.51
   8   7  -9   -0.09    9.61
  -8  -7   9  -14.98   10.20
   8   7  -9   -2.39    8.57
  -8  -7   8   76.35   11.69
   8   7  -8   67.01   10.60
  -8  -7   8   73.23   12.18
   8   7  -8   63.22   11.15
  -8  -7   7   -4.24    9.57
   8   7  -7    3.20    7.99
  -8  -7   7    3.25   10.11
   8   7  -7    1.80    8.71
  -8  -7   6   75.58   10.47
   8   7  -6   68.99    9.11
  -8  -7   6   71.65   10.56
   8   7  -6   46.93    9.02
  -8  -7   5    4.33    7.85
   8   7  -5    1.08    7.90
  -8  -7   5   -2.75    8.89
   8   7  -5  -11.55    8.48
  -8  -7   4  105.59   10.42
   8   7  -4   78.60    9.93
  -8  -7   4  105.59   11.24
  -8  -7   3   60.73    7.85
   8   7  -3   71.74    8.44
  -8  -7   3   68.95    9.93
  -8  -7   2  215.91   13.22
   8   7  -2  233.60   14.30
  -8  -7   2  220.96   16.02
  -8  -7   1   40.11    8.30
  -8  -7   1   43.50    9.25
  -8  -7   0   57.62    8.26
  -8  -7   0   39.62    8.80
  -8  -7  -1  224.93   13.27
  -8  -7  -1  233.19   16.15
  -8  -7  -2  170.61   10.87
  -8  -7  -2  171.60   14.03
  -8  -7  -3   82.12   10.15
  -8  -7  -4   61.68    6.95
  -8  -7  -4   58.25    6.68
  -8  -7  -4   64.39    9.39
  -8  -7  -5  582.07   27.93
  -8  -7  -5  562.67   26.35
  -8  -7  -6    4.69    6.23
  -8  -7  -7 1182.19   53.56
  -8  -7  -8  355.24   19.72
  -8  -7  -9  162.80   12.23
  -8  -7 -10  143.26   12.18
  -8  -7 -10  142.77   12.90
  -8  -7 -11  114.34   10.51
   8   7  11  117.05   10.38
  -8  -7 -11  109.51   11.15
  -8  -7 -12    0.72    7.81
   8   7  12    1.90    7.45
  -8  -7 -12   -6.05    9.16
  -8  -7 -13   32.98    9.20
   8   7  13   71.92    9.39
  -8  -7 -13   49.41    9.97
  -8  -7 -14   92.73   10.24
   8   7  14   72.06    9.52
  -8  -7 -14   84.60   10.60
  -8  -7 -15   -2.75    8.80
   8   7  15    5.82    7.67
  -8  -7 -15   -7.63    8.26
  -8  -7 -16  279.44   16.74
   8   7  16  268.75   16.51
  -8  -7 -16  283.32   18.59
  -8  -7 -17    9.25    9.30
   8   7  17  -17.87    8.62
  -8  -7 -17   13.76    9.79
  -8  -8   9   28.29   12.95
   8   8  -9   -5.32   12.41
  -8  -8   9   15.61   11.96
   8   8  -9   25.09    9.84
  -8  -8   8    8.35   10.42
   8   8  -8    4.78   10.51
  -8  -8   8   -7.67   10.42
   8   8  -8   16.29    8.66
  -8  -8   7   29.42   10.51
   8   8  -7   12.23    9.43
  -8  -8   7   43.05   10.02
   8   8  -7   39.35    9.30
  -8  -8   6    7.49    9.57
   8   8  -6   -1.04    7.58
  -8  -8   6   -1.22    9.30
   8   8  -6   15.70    9.16
  -8  -8   5   25.31    9.11
   8   8  -5   26.58    7.40
  -8  -8   5   21.52    9.48
  -8  -8   4  127.06   11.15
   8   8  -4  120.39   10.60
  -8  -8   4  120.43   12.50
  -8  -8   3  101.30    9.84
   8   8  -3  116.41   10.47
  -8  -8   3   88.71   10.87
  -8  -8   2   72.51    9.11
  -8  -8   2   60.28    9.88
  -8  -8   1   24.41    6.59
  -8  -8   1   13.22    7.90
  -8  -8   0  652.91   30.46
  -8  -8   0  642.53   35.38
  -8  -8  -1  117.59    8.93
  -8  -8  -1  115.74   11.28
  -8  -8  -2  273.12   14.94
  -8  -8  -2  305.29   15.88
  -8  -8  -2  249.88   16.88
  -8  -8  -3  226.20   13.09
  -8  -8  -3  227.19   13.09
  -8  -8  -3  226.92   16.24
  -8  -8  -4   27.30    6.32
  -8  -8  -4   30.55    6.45
  -8  -8  -4   16.56    8.08
  -8  -8  -5  987.27   44.72
  -8  -8  -5 1017.95   46.07
  -8  -8  -6  892.96   41.20
  -8  -8  -7 1059.91   48.42
  -8  -8  -8   51.35    8.21
  -8  -8  -9  727.82   34.83
  -8  -8 -10   21.25    7.94
  -8  -8 -11    5.32    7.67
  -8  -8 -11    1.04    8.48
  -8  -8 -12    1.76    7.63
   8   8  12   12.05    7.49
  -8  -8 -12    8.48    8.53
  -8  -8 -13   45.53   10.02
   8   8  13   46.07    8.75
  -8  -8 -13   61.73   10.78
  -8  -8 -14   36.23    9.66
   8   8  14   47.69    8.93
  -8  -8 -14   58.70   10.15
  -8  -8 -15  180.85   14.12
   8   8  15  153.46   12.23
  -8  -8 -15  158.47   13.54
  -8  -8 -16   13.54    8.66
   8   8  16    3.43    8.30
  -8  -8 -16   20.35    9.16
  -8  -8 -17   64.52   11.10
   8   8  17   92.27   10.78
  -8  -8 -17   54.24   10.20
  -8  -9   8   16.02   12.27
   8   9  -8    9.02   11.28
  -8  -9   8    9.20   11.73
   8   9  -8    7.45    8.57
  -8  -9   7    6.18    9.25
   8   9  -7    7.26    9.43
  -8  -9   7   14.21    9.61
   8   9  -7   -4.11    8.80
  -8  -9   6   25.09   10.20
   8   9  -6   11.78    8.53
  -8  -9   6   -9.66    9.07
  -8  -9   5   92.64   11.33
   8   9  -5   78.24    9.75
  -8  -9   5   60.19   10.20
  -8  -9   4    6.86    7.63
   8   9  -4    2.35    7.72
  -8  -9   4   15.21    9.02
  -8  -9   3   -2.44    7.99
  -8  -9   3    5.82    8.30
  -8  -9   2  108.92    9.70
  -8  -9   2  112.99   11.64
  -8  -9   1  464.75   22.61
  -8  -9   1  475.58   27.61
  -8  -9   0   54.37    8.08
  -8  -9   0   66.69    9.52
  -8  -9  -1   13.54    5.78
  -8  -9  -1   16.83    6.27
  -8  -9  -1   21.43    9.11
  -8  -9  -2  442.74   21.48
  -8  -9  -2  411.38   19.85
  -8  -9  -2  423.42   24.91
  -8  -9  -3  458.44   22.11
  -8  -9  -3  454.83   21.52
  -8  -9  -3  411.60   24.28
  -8  -9  -4   19.49    5.78
  -8  -9  -4   16.51    5.19
  -8  -9  -4   26.85    8.62
  -8  -9  -5  376.54   19.22
  -8  -9  -5  371.98   18.41
  -8  -9  -5  393.87   23.82
  -8  -9  -6   65.65    8.35
  -8  -9  -6   81.54    7.99
  -8  -9  -7   75.31    8.75
  -8  -9  -8  228.45   14.39
  -8  -9  -9   11.42    7.26
  -8  -9 -10   10.83    7.63
  -8  -9 -11    9.30    7.40
  -8  -9 -11    2.75    7.76
  -8  -9 -12   -8.12    8.21
   8   9  12  -13.90    6.86
  -8  -9 -12   12.00    8.84
  -8  -9 -13   36.32    9.61
   8   9  13   46.02    8.17
  -8  -9 -13   45.71    9.84
  -8  -9 -14   51.53    9.93
   8   9  14   58.07    8.89
  -8  -9 -14   60.82   11.05
  -8  -9 -15   11.60    9.16
   8   9  15   33.62    8.98
  -8  -9 -15   27.70    9.97
  -8  -9 -16    7.49   10.74
   8   9  16   -2.66    7.76
  -8  -9 -16    0.99   10.02
  -8 -10   7   -6.00   12.05
   8  10  -7   -0.54   10.74
  -8 -10   7   -4.11   10.24
  -8 -10   6   40.07   10.33
   8  10  -6   17.69    9.88
  -8 -10   6   45.44    9.84
  -8 -10   5    3.20    9.57
   8  10  -5   23.01    9.93
  -8 -10   5    2.93    9.20
  -8 -10   4   41.20    9.79
  -8 -10   4   33.84    9.52
  -8 -10   3  140.15   11.60
  -8 -10   3  118.04   12.23
  -8 -10   2   75.04    9.11
  -8 -10   2   90.15   11.15
  -8 -10   1  318.92   16.97
  -8 -10   1  256.38   17.42
  -8 -10   0   68.81    7.49
  -8 -10   0   61.09    9.75
  -8 -10  -1  113.44    8.39
  -8 -10  -1  111.04    8.35
  -8 -10  -1  108.11   11.10
  -8 -10  -2   -6.81    5.41
  -8 -10  -2    7.31    5.19
  -8 -10  -2   19.49    8.12
  -8 -10  -3    6.09    5.23
  -8 -10  -3    5.60    5.05
  -8 -10  -3   -5.82    7.45
  -8 -10  -4   13.72    5.60
  -8 -10  -4   10.11    5.14
  -8 -10  -4    8.12    7.85
  -8 -10  -5  251.10   13.94
  -8 -10  -5  278.04   15.21
  -8 -10  -5  283.23   18.23
  -8 -10  -6    0.77    5.96
  -8 -10  -6   -1.49    6.68
  -8 -10  -7  204.90   12.81
  -8 -10  -8   65.29    8.21
  -8 -10  -9    4.24    7.58
  -8 -10 -10   -4.11    7.94
  -8 -10 -11    5.64    8.21
  -8 -10 -11  -11.05    8.48
  -8 -10 -12    8.62    8.80
  -8 -10 -12    5.23    7.58
  -8 -10 -13   -0.77    8.12
   8  10  13    5.14    7.81
  -8 -10 -13    6.54    9.79
  -8 -10 -14   34.16    9.88
   8  10  14   14.75    8.30
  -8 -10 -14   36.28   10.20
  -8 -10 -15    4.42    8.98
   8  10  15    3.20    8.62
  -8 -10 -15   -4.42    9.70
  -8 -10 -16   97.60   14.66
   8  10  16   92.77   10.38
  -8 -10 -16   80.18   12.59
  -8 -11   6   46.93   13.13
   8  11  -6   46.57   10.92
  -8 -11   6   14.39   10.11
  -8 -11   5  -12.90    9.75
  -8 -11   5    3.61    9.34
  -8 -11   4   33.35    9.66
  -8 -11   4   57.67    9.57
  -8 -11   3   -7.58    8.71
  -8 -11   3    6.50    8.75
  -8 -11   2  150.53   11.24
  -8 -11   2  149.85   13.31
  -8 -11   1   17.46    6.14
  -8 -11   1   14.35    6.59
  -8 -11   1   41.74    9.16
  -8 -11   0    4.29    6.05
  -8 -11   0    6.32    5.46
  -8 -11   0   11.19    8.12
  -8 -11  -1   49.14    6.27
  -8 -11  -1   55.41    6.23
  -8 -11  -1   47.02    9.88
  -8 -11  -2   18.91    5.23
  -8 -11  -2    9.16    5.05
  -8 -11  -2   26.22    8.57
  -8 -11  -3   30.55    5.91
  -8 -11  -3   18.45    5.14
  -8 -11  -3   25.99    8.21
  -8 -11  -4   49.23    6.05
  -8 -11  -4   47.24    6.59
  -8 -11  -4   63.35    9.57
  -8 -11  -5  133.56    9.43
  -8 -11  -5  133.15    9.34
  -8 -11  -5  106.98   10.83
  -8 -11  -6  120.34    9.11
  -8 -11  -6  114.43    8.89
  -8 -11  -6  123.86   11.55
  -8 -11  -7  490.47   24.00
  -8 -11  -7  519.35   25.18
  -8 -11  -8   -7.17    7.17
  -8 -11  -9   85.51    9.88
  -8 -11 -10   -8.89    8.12
  -8 -11 -11   -8.66    7.58
  -8 -11 -12   -4.20    8.98
  -8 -11 -12    9.43    8.48
  -8 -11 -13   25.72    9.16
  -8 -11 -13   33.48    9.48
  -8 -11 -14  135.86   12.32
   8  11  14  111.32   10.96
  -8 -11 -14  127.06   12.59
  -8 -11 -15   38.31   11.37
   8  11  15   28.70   10.11
  -8 -11 -15   20.03   10.06
  -8 -12   5   66.19   11.73
  -8 -12   5   86.18   11.55
  -8 -12   4   57.76   10.56
  -8 -12   4   53.33    9.84
  -8 -12   3   71.52    9.57
  -8 -12   3   99.36   10.20
  -8 -12   2   27.66    6.50
  -8 -12   2   26.53    7.17
  -8 -12   2   25.40    8.62
  -8 -12   1   38.85    5.46
  -8 -12   1   32.76    6.09
  -8 -12   1   37.54    9.48
  -8 -12   0   60.46    9.75
  -8 -12  -1    8.71    8.03
  -8 -12  -2   90.83   10.29
  -8 -12  -3   -2.12    7.04
  -8 -12  -4   63.49    6.09
  -8 -12  -4   64.66    5.91
  -8 -12  -4   79.69    9.30
  -8 -12  -5   -2.30    5.41
  -8 -12  -5    3.75    5.23
  -8 -12  -5   -5.55    6.99
  -8 -12  -6  608.24   28.38
  -8 -12  -6  644.34   29.55
  -8 -12  -6  578.01   31.86
  -8 -12  -7    0.18    6.77
  -8 -12  -7    4.83    5.87
  -8 -12  -7   18.45    7.35
  -8 -12  -8  137.31   10.96
  -8 -12  -8  156.80   10.69
  -8 -12  -9   75.08    8.89
  -8 -12 -10   56.18    9.07
  -8 -12 -11   11.42    8.57
  -8 -12 -12    3.97    9.48
  -8 -12 -12   14.66    8.53
  -8 -12 -13   38.58   10.29
  -8 -12 -13   33.48    9.02
  -8 -12 -14   26.89   10.87
  -8 -12 -14   28.74    9.70
  -8 -13   4   18.14    9.07
  -8 -13   3    6.77    8.39
  -8 -13   2   -4.83    8.30
  -8 -13   1  118.54   11.10
  -8 -13   0    7.90    8.08
  -8 -13  -1   -1.31    7.94
  -8 -13  -2   13.58    7.94
  -8 -13  -3   35.01    9.20
  -8 -13  -4  135.41   11.96
  -8 -13  -5  386.38   22.65
  -8 -13  -6   88.26    7.54
  -8 -13  -6   99.45    7.26
  -8 -13  -6  106.76   10.38
  -8 -13  -7  110.77    9.39
  -8 -13  -7  132.88    9.07
  -8 -13  -7  108.20   10.51
  -8 -13  -8  236.80   14.39
  -8 -13  -8  236.53   13.85
  -8 -13  -8  248.26   16.38
  -8 -13  -9   20.53    8.39
  -8 -13 -10   23.55    8.89
  -8 -13 -11    9.34    9.25
  -8 -13 -12  -12.54   10.20
  -8 -13 -12   15.84    7.81
  -8 -13 -13   33.93   12.41
  -8 -13 -13   42.37    9.61
  -8 -14   3   -3.61    9.02
  -8 -14   2   89.70   10.60
  -8 -14   1    7.58    7.90
  -8 -14   0    2.30    7.85
  -8 -14  -1    1.08    7.90
  -8 -14  -2   15.21    8.17
  -8 -14  -3   18.09    7.99
  -8 -14  -4   31.40    8.26
  -8 -14  -5  358.13   21.57
  -8 -14  -6   19.40    7.90
  -8 -14  -7  500.40   27.93
  -8 -14  -8    7.08    6.77
  -8 -14  -8    5.28    6.54
  -8 -14  -8   15.88    7.90
  -8 -14  -9   83.57    9.79
  -8 -14  -9   92.82   10.02
  -8 -14  -9   99.58   10.51
  -8 -14 -10   13.63    9.93
  -8 -14 -11    2.71   10.83
  -8 -14 -12   -4.38   12.14
  -8 -14 -12    3.75    8.44
  -8 -15   1   18.18    7.99
  -8 -15   0   65.92    9.11
  -8 -15  -1   -8.84    8.39
  -8 -15  -2   13.00    8.48
  -8 -15  -3    9.93    8.30
  -8 -15  -4    6.36    9.02
  -8 -15  -5    1.17    7.94
  -8 -15  -6   52.03    9.48
  -8 -15  -7   47.78    8.93
  -8 -15  -8   80.50   10.06
  -8 -15  -9   -1.85    6.45
  -8 -15  -9   10.65    6.36
  -8 -15  -9   -7.35    7.31
  -8 -15 -10    3.02   11.24
  -8 -15 -10    6.95    8.08
  -8 -15 -10   -6.36    8.44
  -8 -15 -11    1.40   15.25
  -8 -16  -2   42.28    9.48
  -8 -16  -3   79.32    9.97
  -8 -16  -4    1.49    8.35
  -8 -16  -5   13.45    9.61
  -8 -16  -6   16.38    8.39
  -8 -16  -7   28.47    9.07
  -8 -16  -8    5.82    8.57
  -9  14   1   26.26    9.39
  -9  14   0   13.58    8.98
  -9  14  -1   40.56   10.15
  -9  14  -1   49.05   10.51
  -9  14  -2   32.94    9.07
  -9  14  -2   40.88   10.11
  -9  14  -3   24.59    8.39
  -9  14  -3   38.22   10.78
  -9  14  -4   -8.71   10.51
  -9  14  -4    2.98    8.44
  -9  14  -5  156.44   14.57
  -9  14  -5  161.08   13.54
   9 -14   5   94.53   15.93
  -9  14  -6    5.64   10.74
  -9  14  -6   18.68   10.78
   9 -14   6    6.77   14.62
  -9  13   4   59.65   11.60
  -9  13   3   48.91    9.79
  -9  13   2   -8.08    7.76
  -9  13   1   14.39    8.84
  -9  13   0   -0.18    8.75
  -9  13  -1   12.86    7.04
  -9  13  -1    1.62    7.76
  -9  13  -2   32.49    8.89
  -9  13  -2   29.92    8.35
  -9  13  -3   11.51    8.89
  -9  13  -3   21.66    8.39
  -9  13  -4  141.55   12.14
  -9  13  -4  138.98   12.05
  -9  13  -5   -3.93    7.72
  -9  13  -5    5.73    8.66
   9 -13   5   -1.22   11.69
  -9  13  -6   63.04   10.20
  -9  13  -6   59.34    9.93
   9 -13   6   58.21   13.99
  -9  13  -7    0.09   10.38
  -9  13  -7   -9.93    9.52
   9 -13   7   19.85   15.66
  -9  13  -8    0.95   10.78
  -9  13  -8   -3.88    9.93
  -9  13  -8    2.89   12.00
   9 -13   8   15.03   17.10
  -9  12   5  250.83   15.75
  -9  12   4   91.15   10.33
  -9  12   3   34.61    8.17
  -9  12   2    6.54    7.81
  -9  12   1    7.08    7.31
  -9  12   0   36.14    8.12
  -9  12  -1   62.31    9.11
  -9  12  -2  -13.45    6.41
  -9  12  -2   -4.24    7.08
  -9  12  -3   58.48    8.57
  -9  12  -3   51.12    8.84
  -9  12  -4   49.86    8.75
  -9  12  -4   42.82    7.85
  -9  12  -5  325.78   18.23
  -9  12  -5  305.34   17.33
   9 -12   5  320.95   20.49
  -9  12  -6   -1.76    7.54
  -9  12  -6    2.53    7.58
   9 -12   6  -19.58   13.09
  -9  12  -7    9.93    8.53
  -9  12  -7   12.90    8.44
  -9  12  -7   13.99   10.51
   9 -12   7   -0.32   15.79
  -9  12  -8   10.11    9.48
  -9  12  -8   16.70    8.12
  -9  12  -8    8.26   12.63
   9 -12   8   13.00   15.84
  -9  12  -9   -8.80   10.38
  -9  12  -9    6.32    9.43
  -9  12  -9   -7.67   13.54
   9 -12   9    7.45   16.42
  -9  12 -10   49.99   10.96
  -9  12 -10   19.67   11.10
  -9  12 -10   20.89   13.81
   9 -12  10   33.25   16.51
  -9  11   6   84.56   10.56
   9 -11  -6  129.91   11.96
  -9  11   5   25.00    8.30
   9 -11  -5    4.20    8.35
  -9  11   4  140.06   11.96
  -9  11   3   42.01    8.17
  -9  11   2   13.72    8.30
  -9  11   1    1.44    7.22
  -9  11   0   11.82    7.31
  -9  11  -1   11.82    8.03
  -9  11  -2    5.46    7.90
  -9  11  -3   76.98    8.98
  -9  11  -3   78.74    8.89
  -9  11  -4   73.05    9.02
  -9  11  -4   67.37    8.30
  -9  11  -6   -6.23    6.77
  -9  11  -6   10.20    7.31
   9 -11   6   -2.30   11.05
  -9  11  -7   63.67    8.80
  -9  11  -7   59.74    9.39
  -9  11  -7   83.52   11.05
   9 -11   7   57.76   13.81
  -9  11  -8   -4.51    7.81
  -9  11  -8   11.19    8.12
  -9  11  -8    6.72   11.96
   9 -11   8  -11.05   14.85
  -9  11  -9   23.82    8.93
  -9  11  -9   30.23    9.84
  -9  11  -9   35.87   11.78
   9 -11   9   11.55   16.11
  -9  11 -10    1.49    8.03
  -9  11 -10   -3.84    9.79
  -9  11 -10   -4.02   12.36
   9 -11  10  -12.54   15.88
  -9  11 -11   14.08    8.44
  -9  11 -11   24.41    9.34
  -9  11 -11   13.31   11.64
   9 -11  11   12.14   14.89
  -9  10   7  216.45   14.80
   9 -10  -7  190.01   13.18
  -9  10   6   16.56    7.94
   9 -10  -6   53.56    9.16
  -9  10   5   27.21    8.57
   9 -10  -5   53.56    8.39
  -9  10   4  173.94   12.50
   9 -10  -4  128.01   10.78
  -9  10   3   87.04    9.70
  -9  10   2    0.45    7.17
  -9  10   1   64.66    8.66
  -9  10   0    2.44    6.63
  -9  10  -1    2.89    7.81
  -9  10  -2   89.39    9.25
  -9  10  -3   30.50    7.67
  -9  10  -3   45.71    7.67
  -9  10  -4   54.87    8.12
  -9  10  -4   52.48    7.81
  -9  10  -5  161.76   11.82
  -9  10  -5  181.43   12.68
  -9  10  -6  135.77   10.78
  -9  10  -6  127.38   10.74
  -9  10  -6  141.28   11.42
   9 -10   6  121.56   12.50
  -9  10  -7  188.97   13.40
  -9  10  -7  189.87   12.72
  -9  10  -7  182.43   14.08
   9 -10   7  182.83   16.79
  -9  10  -8    2.03    7.76
  -9  10  -8   -2.39    7.26
  -9  10  -8    3.93   10.02
   9 -10   8   -2.21   12.23
  -9  10  -9  141.23   12.05
  -9  10  -9  167.40   12.59
  -9  10  -9  205.17   16.65
   9 -10   9  153.10   17.28
  -9  10 -10   20.30    9.16
  -9  10 -10   20.94    8.44
  -9  10 -10   25.99   11.87
   9 -10  10   23.28   15.48
  -9  10 -11   69.53   10.33
  -9  10 -11   62.76   12.63
   9 -10  11   47.74   17.51
  -9  10 -12  136.45   11.91
  -9  10 -12  112.53   15.48
   9 -10  12  101.89   18.27
  -9   9   8   22.02   10.24
   9  -9  -8   -4.78    8.03
  -9   9   7   52.25    8.89
   9  -9  -7   46.16    8.71
  -9   9   6   66.83    9.52
   9  -9  -6   68.31    9.11
  -9   9   5  149.67   11.69
   9  -9  -5  152.83   11.69
  -9   9   4    1.13    8.08
   9  -9  -4   -3.16    7.26
  -9   9   3  165.19   12.41
   9  -9  -3  168.12   12.09
  -9   9   2   -4.15    7.63
  -9   9   1   55.05    8.93
  -9   9   0   45.80    8.48
  -9   9  -1   94.85    9.52
  -9   9  -2    6.86    6.68
  -9   9  -3   53.06    8.35
  -9   9  -4  269.83   15.88
  -9   9  -4  276.37   16.33
  -9   9  -5  304.08   17.19
  -9   9  -5  292.16   16.65
  -9   9  -5  277.77   16.33
  -9   9  -6   63.49    9.16
  -9   9  -6   58.12    8.39
  -9   9  -6   44.40    7.26
   9  -9   6   36.14    9.57
  -9   9  -7   70.30    9.34
  -9   9  -7   69.71    9.16
  -9   9  -7   57.08    8.75
   9  -9   7   51.30   11.78
  -9   9  -8   48.87    9.07
  -9   9  -8   46.88    8.44
  -9   9  -8   47.02   10.78
   9  -9   8   54.87   12.77
  -9   9  -9    5.73    8.08
  -9   9  -9   13.31    7.81
  -9   9  -9   15.43   10.06
   9  -9   9   -7.72   11.33
  -9   9 -10   14.71    7.85
  -9   9 -10   -3.84   11.46
   9  -9  10   -2.84   12.90
  -9   9 -11   22.74    9.39
  -9   9 -11   31.63   12.18
   9  -9  11   42.91   15.25
  -9   9 -12  148.18   12.36
  -9   9 -12  125.75   15.03
   9  -9  12  132.75   18.45
  -9   9 -13    8.98    8.71
  -9   9 -13    4.15   11.64
   9  -9  13    9.61   14.39
  -9   8   8   70.25   10.69
   9  -8  -8   91.55    9.75
  -9   8   7   19.94    9.43
   9  -8  -7   26.17    9.07
  -9   8   6   69.35    9.39
   9  -8  -6  106.89   10.24
  -9   8   5   39.84    8.17
   9  -8  -5   49.14    8.62
  -9   8   4  221.86   14.12
   9  -8  -4  235.08   14.53
  -9   8   3   17.51    8.03
   9  -8  -3    1.67    7.17
  -9   8   2   -0.72    7.81
  -9   8   1   76.89    9.48
  -9   8   0    4.02    6.90
  -9   8  -1  408.08   21.43
  -9   8  -2  167.99   12.18
  -9   8  -3   26.62    7.63
  -9   8  -4   52.79    8.57
  -9   8  -4   65.52    8.17
  -9   8  -5  706.16   33.53
  -9   8  -5  722.85   34.25
  -9   8  -5  798.21   40.88
  -9   8  -6    3.61    7.17
  -9   8  -6    8.84    7.26
  -9   8  -6   18.64    6.99
  -9   8  -7   -4.65    7.40
  -9   8  -7   -2.80    7.49
  -9   8  -7   -6.63    7.58
   9  -8   7    8.39    9.43
  -9   8  -8    6.05    7.72
  -9   8  -8    0.36    7.54
  -9   8  -8  -12.50    8.80
   9  -8   8   14.53   10.65
  -9   8  -9    2.75    7.85
  -9   8  -9    6.09   10.42
   9  -8   9    8.62   10.92
  -9   8 -10  101.66    9.93
  -9   8 -10   70.03   12.00
   9  -8  10   92.77   14.08
  -9   8 -11  281.11   16.88
  -9   8 -11  284.99   20.53
   9  -8  11  266.08   21.03
  -9   8 -12  181.12   13.13
  -9   8 -12  202.64   16.83
   9  -8  12  179.54   18.41
  -9   8 -13   14.75    8.17
  -9   8 -13   41.42   12.45
   9  -8  13   25.18   13.45
  -9   8 -14   64.21   10.11
  -9   8 -14   68.86   12.09
   9  -8  14   85.19   14.80
  -9   7   9   19.67    9.88
   9  -7  -9   13.04    9.02
  -9   7   8    9.61    8.03
   9  -7  -8   -4.33    8.44
  -9   7   7   86.72   10.15
   9  -7  -7   71.34   10.11
  -9   7   6  114.84   10.60
   9  -7  -6  122.05   11.37
  -9   7   5  117.14   11.28
   9  -7  -5  107.62   10.47
  -9   7   4   11.82    8.39
   9  -7  -4   21.21    8.62
  -9   7   3   18.27    8.84
   9  -7  -3   23.28    8.35
  -9   7   2   76.17    9.70
   9  -7  -2   82.71    9.84
  -9   7   1   50.90    8.57
  -9   7   0  726.01   34.74
  -9   7  -1   33.53    7.72
  -9   7  -2  221.77   14.21
  -9   7  -3  125.71   10.60
  -9   7  -4  422.16   22.06
  -9   7  -4  426.63   21.93
  -9   7  -4  400.68   20.94
  -9   7  -5   54.78    8.53
  -9   7  -5   45.21    8.08
  -9   7  -5   70.66    7.85
  -9   7  -6   16.29    7.31
  -9   7  -6   12.59    7.45
  -9   7  -6    2.44    7.04
  -9   7  -7   11.46    7.58
  -9   7  -7    4.87    7.35
  -9   7  -7    8.84    7.72
  -9   7  -8    3.11    7.67
  -9   7  -8   -7.63    8.44
   9  -7   8  -16.29    9.93
  -9   7  -9   26.71    7.17
  -9   7  -9   22.88    9.48
   9  -7   9   19.49    9.93
  -9   7 -10  104.77   10.42
  -9   7 -10   90.74   11.78
   9  -7  10   65.25   12.77
  -9   7 -11  373.65   20.08
  -9   7 -11  406.91   24.73
   9  -7  11  349.11   23.28
  -9   7 -12    9.75    8.03
  -9   7 -12    9.52   10.92
   9  -7  12    6.05   11.96
  -9   7 -13  288.15   16.92
  -9   7 -13  280.43   20.17
   9  -7  13  271.50   21.43
  -9   7 -14    2.12    7.08
  -9   7 -14    6.95   10.87
   9  -7  14    3.16   13.04
  -9   7 -15    0.36    7.90
  -9   7 -15   -8.17   10.60
   9  -7  15   17.82   13.67
  -9   6   9   11.37    8.48
   9  -6  -9    0.68    7.35
   9  -6  -9   -0.23   10.11
  -9   6   8   31.31    9.93
   9  -6  -8   24.95    9.75
  -9   6   7  138.52   12.00
   9  -6  -7  144.21   11.78
  -9   6   6   -1.90    8.17
   9  -6  -6   34.38    7.76
  -9   6   5  131.67   11.55
   9  -6  -5  146.10   11.46
  -9   6   4   17.64    8.66
   9  -6  -4   17.24    7.94
  -9   6   3  286.66   17.10
   9  -6  -3  274.12   16.74
  -9   6   2   -4.56    7.99
   9  -6  -2   11.91    7.49
  -9   6   1  973.28   45.17
  -9   6   0   34.25    7.76
  -9   6  -1   61.37    8.62
  -9   6  -2  107.30   10.11
  -9   6  -3  351.82   19.40
  -9   6  -4  292.98   17.33
  -9   6  -4  269.69   14.53
  -9   6  -5   -0.90    6.86
  -9   6  -5    5.23    7.54
  -9   6  -5    3.84    5.19
  -9   6  -6  215.28   14.17
  -9   6  -6  224.62   14.48
  -9   6  -6  217.49   13.63
  -9   6  -7    0.54    7.63
  -9   6  -7    4.69    7.54
  -9   6  -7    5.01    7.63
  -9   6  -8   39.35    8.80
  -9   6  -8   31.90    9.30
  -9   6  -9    3.52    8.30
  -9   6  -9   -0.68    8.62
   9  -6   9    3.47    9.70
  -9   6 -10  367.07   19.72
  -9   6 -10  430.78   25.90
   9  -6  10  425.23   26.35
  -9   6 -11   17.19    7.45
  -9   6 -11   25.76   10.87
   9  -6  11   25.81   11.10
  -9   6 -12  189.69   12.81
  -9   6 -12  242.80   17.87
   9  -6  12  242.76   18.95
  -9   6 -13  242.39   15.48
  -9   6 -13  214.87   17.33
   9  -6  13  215.14   18.73
  -9   6 -14   37.86    8.48
  -9   6 -14   61.91   13.58
   9  -6  14   79.41   15.12
  -9   6 -15    5.69    7.54
  -9   6 -15  -11.82   12.41
   9  -6  15  -10.29   12.05
  -9   5  10   12.54    8.71
   9  -5 -10    2.08    9.11
   9  -5 -10    2.48   11.87
  -9   5   9    9.25    8.62
   9  -5  -9   -5.87    7.22
   9  -5  -9   -8.35   11.51
  -9   5   8   80.00    9.61
   9  -5  -8   86.63    9.61
   9  -5  -8   53.24   10.47
  -9   5   7   15.34    8.98
   9  -5  -7   18.77    8.98
   9  -5  -7    1.40    6.95
  -9   5   6   52.43    8.44
   9  -5  -6   69.04    9.57
  -9   5   5  304.98   17.60
   9  -5  -5  310.03   18.14
  -9   5   4  235.13   15.75
   9  -5  -4  231.97   14.44
  -9   5   3   82.03   10.11
   9  -5  -3   50.31    8.75
  -9   5   2   14.12    7.94
   9  -5  -2   -6.14    6.72
  -9   5   1   70.25    9.93
   9  -5  -1  100.98    9.43
  -9   5   0    2.93    7.45
  -9   5  -1  286.70   16.60
  -9   5  -2   10.87    8.12
  -9   5  -3  211.40   13.94
  -9   5  -4   56.99    8.80
  -9   5  -4   41.06    5.14
  -9   5  -5  868.60   40.52
  -9   5  -5  810.84   38.17
  -9   5  -5  868.14   44.58
  -9   5  -6   27.48    7.85
  -9   5  -6   39.30    8.17
  -9   5  -6   37.86    7.54
  -9   5  -7    0.63    7.54
  -9   5  -7    6.95    7.63
  -9   5  -8  -13.13    7.85
  -9   5  -8   -4.38    7.45
  -9   5  -9   -8.75    8.12
  -9   5  -9   13.04    8.26
  -9   5 -10  176.43   12.77
  -9   5 -10  115.42   11.51
  -9   5 -11   13.09    6.99
  -9   5 -11   -4.06    9.20
  -9   5 -12  623.58   30.14
  -9   5 -12  562.22   31.50
  -9   5 -13   -8.08    8.08
  -9   5 -13  -12.27    9.39
  -9   5 -14  155.40   12.00
  -9   5 -14  159.42   14.98
  -9   5 -15   -3.02    7.67
  -9   5 -15    7.90   11.60
  -9   5 -16    0.41    8.30
  -9   5 -16  -12.36   11.82
  -9   4  10   27.12    8.93
   9  -4 -10   21.39    9.30
   9  -4 -10   29.33   13.90
  -9   4   9   89.88   10.47
   9  -4  -9   65.20    9.70
   9  -4  -9   82.26   13.67
  -9   4   8   60.87    9.07
   9  -4  -8   43.59    8.89
   9  -4  -8   54.64   10.33
  -9   4   7   27.43    8.98
   9  -4  -7    7.31    7.54
   9  -4  -7   17.46    8.44
  -9   4   6  450.27   23.82
   9  -4  -6  403.48   21.61
  -9   4   5   27.30    9.02
   9  -4  -5   27.52    8.26
  -9   4   4  191.45   14.35
   9  -4  -4  204.81   14.12
  -9   4   3  -14.39    8.12
   9  -4  -3   -2.12    7.67
  -9   4   2   25.36    8.75
   9  -4  -2   -5.78    6.81
  -9   4   1   11.42    7.63
   9  -4  -1   13.27    7.26
  -9   4   0  129.41   11.42
  -9   4  -1    4.11    7.22
  -9   4  -2  215.55   14.08
  -9   4  -3   92.45    9.52
  -9   4  -4  205.71   13.67
  -9   4  -4  195.69   12.45
  -9   4  -5  960.64   44.40
  -9   4  -5  954.33   44.08
  -9   4  -5  907.40   46.84
  -9   4  -6   10.78    7.99
  -9   4  -6  -12.14    6.63
  -9   4  -6   -2.89    7.26
  -9   4  -7   42.87    8.44
  -9   4  -7   48.24    9.11
  -9   4  -8  101.93   10.02
  -9   4  -8  116.73   11.78
  -9   4  -9  120.34   11.51
  -9   4  -9   97.82   12.54
  -9   4 -10   81.94   10.38
  -9   4 -10   84.42   11.28
  -9   4 -11  486.41   25.13
  -9   4 -11  510.78   29.65
  -9   4 -12    0.14    7.67
  -9   4 -12   10.47   10.11
  -9   4 -13  191.05   13.58
  -9   4 -13  199.35   16.60
  -9   4 -14   63.04    8.66
  -9   4 -14   53.24   11.82
  -9   4 -15   -2.89    8.30
  -9   4 -15    3.07   11.01
  -9   4 -16   -9.43    7.94
  -9   4 -16    6.36   11.01
  -9   3  10   -1.13    8.75
   9  -3 -10    6.72    8.89
  -9   3  10    3.88   12.00
   9  -3 -10  -12.95   13.94
  -9   3   9   38.58    8.39
   9  -3  -9   21.16    8.89
  -9   3   9   45.35   12.77
   9  -3  -9   19.00   11.10
  -9   3   8   13.36    7.26
   9  -3  -8    0.72    7.13
  -9   3   8   -7.72    8.98
   9  -3  -8   10.20    9.57
  -9   3   7  133.88   11.51
   9  -3  -7  131.62   11.05
  -9   3   7  130.67   12.59
   9  -3  -7  128.64   11.82
  -9   3   6   14.85    8.44
   9  -3  -6    6.18    8.17
  -9   3   6   -5.46    7.85
   9  -3  -6    0.32    6.68
  -9   3   5  387.46   21.21
   9  -3  -5  363.64   20.17
  -9   3   5  352.67   20.30
  -9   3   4    5.28    8.80
   9  -3  -4   -6.72    7.81
  -9   3   4   12.05    5.41
  -9   3   3  129.23   12.00
   9  -3  -3  102.97   10.56
  -9   3   3  102.29    7.49
  -9   3   2    7.17    7.81
   9  -3  -2   -9.57    6.95
  -9   3   2    2.03    3.02
  -9   3   1 1330.64   60.33
   9  -3  -1 1505.72   67.55
  -9   3   0   26.53    7.22
  -9   3  -1   10.06    7.17
  -9   3  -2  473.78   24.19
  -9   3  -3  101.12    9.97
  -9   3  -3  103.55    7.26
  -9   3  -4  925.90   43.00
  -9   3  -4  950.27   48.60
  -9   3  -5   34.92    7.63
  -9   3  -5   36.41    7.54
  -9   3  -5   34.20    6.63
  -9   3  -6   73.91    9.30
  -9   3  -6   75.35    8.93
  -9   3  -7    8.35    7.85
  -9   3  -7   10.15    7.04
  -9   3  -8    8.89    8.08
  -9   3  -8    6.00    8.21
  -9   3  -9   -0.95    8.53
  -9   3  -9   -1.99    9.07
  -9   3 -10  374.47   20.94
  -9   3 -10  354.39   22.11
  -9   3 -11   79.41   10.24
  -9   3 -11   80.45   10.65
  -9   3 -12  126.57   11.55
  -9   3 -12  134.33   13.04
  -9   3 -13  196.69   13.76
  -9   3 -13  213.07   15.61
  -9   3 -14   73.46   10.47
  -9   3 -14   71.34   11.33
  -9   3 -15    4.06    7.99
  -9   3 -15    0.36    9.43
  -9   3 -16    2.98    7.85
  -9   3 -16    0.27   10.06
  -9   3 -17   10.56    8.98
  -9   3 -17    7.08   10.74
  -9   2  10   45.93    7.81
   9  -2 -10   40.84    9.57
  -9   2  10   45.12   13.45
   9  -2 -10   26.58   15.21
  -9   2   9    5.50    7.49
   9  -2  -9    4.24    9.20
  -9   2   9    6.18   12.05
   9  -2  -9   18.41   11.55
  -9   2   8   27.70    9.25
   9  -2  -8   43.27    8.53
  -9   2   8   32.89   10.02
   9  -2  -8   26.53   10.33
  -9   2   7   18.95    8.75
   9  -2  -7   12.54    8.30
  -9   2   7   18.86    9.16
   9  -2  -7   21.97    8.03
  -9   2   6   99.67    9.70
   9  -2  -6   80.50    9.61
  -9   2   6   75.13   11.05
   9  -2  -6   67.46    8.80
  -9   2   5   17.87    8.39
   9  -2  -5   14.26    8.21
  -9   2   5   10.29    8.66
   9  -2  -5   11.37    6.41
  -9   2   4  101.43   10.65
   9  -2  -4  115.47   10.38
  -9   2   4  108.83    9.52
  -9   2   3   -3.07    7.72
   9  -2  -3    2.48    7.94
  -9   2   3    3.93    5.64
  -9   2   2   32.13    7.54
   9  -2  -2   52.52    8.30
  -9   2   2   25.36    5.19
  -9   2   1  375.32   20.67
   9  -2  -1  356.51   19.63
  -9   2   1  370.04   19.90
  -9   2   0   48.87    8.84
  -9   2   0   50.36    5.46
  -9   2  -1  524.32   26.58
  -9   2  -1  545.07   28.20
  -9   2  -2  113.75   11.05
  -9   2  -2   87.31    6.68
  -9   2  -2   96.43    6.95
  -9   2  -3  752.63   35.83
  -9   2  -3  807.68   41.33
  -9   2  -4   -0.14    6.99
  -9   2  -4    5.10    5.50
  -9   2  -5   68.49    8.98
  -9   2  -5   77.38    9.39
  -9   2  -5  100.58    8.57
  -9   2  -6   95.97    9.20
  -9   2  -6   84.74    8.98
  -9   2  -7   33.25    8.71
  -9   2  -7   53.51    8.03
  -9   2  -8  229.72   15.21
  -9   2  -8  280.97   17.78
  -9   2  -9   34.52    8.17
  -9   2  -9   21.93    8.66
  -9   2 -10  315.99   19.00
  -9   2 -10  326.77   20.26
  -9   2 -11    4.51    8.62
  -9   2 -11    2.89    9.02
  -9   2 -12  458.44   24.32
  -9   2 -12  552.74   31.81
  -9   2 -13   -1.62    7.31
  -9   2 -13    9.61    9.70
  -9   2 -14   59.43    9.75
  -9   2 -14   56.09   12.50
  -9   2 -15    2.66    8.48
  -9   2 -15   11.15   11.01
  -9   2 -16   35.60    9.07
  -9   2 -16   27.66   10.69
  -9   2 -17   12.86    8.21
  -9   2 -17   12.95   10.33
  -9   1  10    7.31    8.39
   9  -1 -10   -4.69    7.85
  -9   1  10   15.52   12.63
   9  -1 -10  -17.19   13.58
  -9   1   9   13.31    9.11
   9  -1  -9   27.57    9.34
  -9   1   9   20.80   12.59
   9  -1  -9   33.93   10.69
  -9   1   8   76.75    9.43
   9  -1  -8   87.99   10.02
  -9   1   8   79.05   13.18
   9  -1  -8   89.12   11.96
  -9   1   7   29.01    8.84
   9  -1  -7   21.57    8.66
  -9   1   7   35.38   10.11
   9  -1  -7   31.54    8.12
  -9   1   6   73.64   10.51
   9  -1  -6   73.50    9.88
  -9   1   6   86.05   10.87
   9  -1  -6   67.19    9.43
  -9   1   5    7.17    8.26
   9  -1  -5   -2.75    7.63
  -9   1   5   15.25    8.57
   9  -1  -5   -3.75    6.95
  -9   1   4   14.17    7.94
   9  -1  -4   13.04    8.39
  -9   1   4   13.31    7.81
  -9   1   3  329.62   18.95
   9  -1  -3  337.65   19.18
  -9   1   3  312.74   18.50
  -9   1   2  513.04   26.40
   9  -1  -2  511.68   26.04
  -9   1   2  643.44   33.98
  -9   1   1  946.21   44.22
   9  -1  -1  937.63   43.77
  -9   1   1 1034.64   52.61
  -9   1   0  719.24   34.52
   9  -1   0  749.02   35.42
  -9   1   0  758.50   38.94
  -9   1  -1 1044.12   47.87
  -9   1  -1 1054.05   53.38
  -9   1  -2  708.86   33.75
  -9   1  -2  737.74   38.31
  -9   1  -3  277.72   15.70
  -9   1  -3  281.70   16.20
  -9   1  -4    8.53    6.95
  -9   1  -4   10.15    5.50
  -9   1  -5  461.60   23.69
  -9   1  -5  421.03   22.02
  -9   1  -5  489.12   26.35
  -9   1  -6   -2.75    6.00
  -9   1  -6   -3.97    6.99
  -9   1  -7  354.43   19.76
  -9   1  -7  361.20   20.98
  -9   1  -8  107.44   10.92
  -9   1  -8   85.82   10.78
  -9   1  -9    5.60    8.57
  -9   1  -9   22.02    8.48
  -9   1 -10   87.27   10.78
  -9   1 -10   85.14   11.05
  -9   1 -11  649.30   31.95
  -9   1 -11  612.30   34.97
  -9   1 -12  181.30   13.85
  -9   1 -12  148.86   14.57
  -9   1 -13  106.71   10.15
  -9   1 -13  138.79   13.81
  -9   1 -14  243.25   15.66
  -9   1 -14  230.03   16.79
  -9   1 -15    5.32    8.44
   9  -1  15    2.93    5.50
  -9   1 -15    5.14   10.78
  -9   1 -16   -2.30    9.11
   9  -1  16   12.59    7.26
  -9   1 -16  -10.51    9.43
  -9   1 -17    2.03    8.03
   9  -1  17   13.85    6.90
  -9   1 -17   22.43   10.24
  -9   0  10   -6.36    9.02
   9   0 -10    4.65    8.53
  -9   0  10   13.58   14.66
   9   0 -10   -0.72   11.69
  -9   0   9  140.01   12.09
   9   0  -9  138.12   12.05
  -9   0   9  131.53   15.97
   9   0  -9  135.95   13.90
  -9   0   8   -1.62    8.98
   9   0  -8    1.04    7.35
  -9   0   8    0.77   11.28
   9   0  -8    1.31    9.61
  -9   0   7   87.76   10.24
   9   0  -7   90.88    9.97
  -9   0   7   88.30   12.18
   9   0  -7  102.43   10.96
  -9   0   6   66.33    8.71
   9   0  -6   63.40    9.34
  -9   0   6   57.85    9.75
   9   0  -6   51.62    9.34
  -9   0   5  439.94   22.88
   9   0  -5  500.40   25.81
  -9   0   5  455.28   25.95
   9   0  -5  473.78   26.71
  -9   0   4   -5.82    7.81
   9   0  -4   -1.49    7.67
  -9   0   4   -0.72    7.04
  -9   0   3   22.88    8.03
   9   0  -3    5.69    7.13
  -9   0   3   15.25    8.12
  -9   0   2  193.03   13.04
   9   0  -2  224.44   14.80
  -9   0   2  182.07   12.90
  -9   0   1  398.79   21.12
   9   0  -1  376.68   20.62
  -9   0   1  390.35   21.97
  -9   0   0  176.70   13.18
   9   0   0  169.61   11.60
  -9   0   0  161.36   11.24
  -9   0  -1  141.73   11.19
  -9   0  -1  148.41   10.42
  -9   0  -2  353.53   19.54
  -9   0  -2  429.79   23.42
  -9   0  -3   16.06    6.81
  -9   0  -4  836.11   39.26
  -9   0  -5   97.73    9.88
  -9   0  -5   90.92    9.20
  -9   0  -5   95.97    9.61
  -9   0  -6    3.38    7.26
  -9   0  -6   -4.65    7.49
  -9   0  -7    6.14    7.49
  -9   0  -7   -1.44    7.04
  -9   0  -8  229.67   15.03
  -9   0  -8  186.22   14.75
  -9   0  -9   -4.69    8.48
  -9   0  -9   -1.80    8.66
  -9   0 -10  336.79   19.45
  -9   0 -10  339.23   21.75
  -9   0 -11  855.06   40.29
  -9   0 -11  821.22   44.45
  -9   0 -12  141.10   11.51
  -9   0 -12  156.44   14.30
  -9   0 -13  183.56   13.81
  -9   0 -13  163.03   13.85
  -9   0 -14   30.95    8.98
   9   0  14   28.07    7.58
  -9   0 -14   39.21    9.97
  -9   0 -15    5.55    8.26
   9   0  15    6.95    6.95
  -9   0 -15   -5.01    9.84
  -9   0 -16   34.34    9.43
   9   0  16    9.79    7.54
  -9   0 -16   31.31   10.20
  -9   0 -17   -3.93    8.03
   9   0  17    8.26    7.45
  -9   0 -17   -8.03   10.83
  -9  -1  10   86.00   10.69
   9   1 -10   86.68   10.87
  -9  -1  10   31.95   12.59
   9   1 -10   67.14   12.77
  -9  -1   9    9.84    8.62
   9   1  -9    7.85    8.66
  -9  -1   9   20.21   11.87
   9   1  -9   16.42   11.24
  -9  -1   8  159.01   12.77
   9   1  -8  151.93   12.14
  -9  -1   8  140.87   15.07
   9   1  -8  168.39   15.03
  -9  -1   7   42.10    9.70
   9   1  -7   54.60    9.75
  -9  -1   7   42.01   11.46
   9   1  -7   63.85    9.93
  -9  -1   6   -2.03    8.35
   9   1  -6    7.72    8.12
  -9  -1   6    0.77    8.30
   9   1  -6    4.06    7.67
  -9  -1   5  154.41   12.81
   9   1  -5  182.56   13.00
  -9  -1   5  172.64   13.81
   9   1  -5  173.31   13.31
  -9  -1   4   -4.69    8.57
   9   1  -4   -0.95    7.76
  -9  -1   4    9.39    8.35
  -9  -1   3   43.81    9.61
   9   1  -3   55.91    8.98
  -9  -1   3   44.35    8.80
  -9  -1   2   16.20    8.12
   9   1  -2   29.55    8.17
  -9  -1   2   27.84    7.58
  -9  -1   1 1131.20   51.84
   9   1  -1 1068.49   49.09
  -9  -1   1 1171.36   60.06
  -9  -1   0   12.05    7.08
   9   1   0   12.41    6.72
  -9  -1   0   -3.07    6.09
  -9  -1  -1  130.63   10.51
  -9  -1  -1  165.24   11.73
  -9  -1  -2   87.22    8.75
  -9  -1  -2   89.12    8.80
  -9  -1  -3  615.46   29.42
  -9  -1  -3  606.89   33.07
  -9  -1  -4  152.15   11.10
  -9  -1  -5   37.59    7.22
  -9  -1  -5   23.78    7.49
  -9  -1  -6    3.20    6.99
  -9  -1  -6   -1.35    7.49
  -9  -1  -7   76.03    9.57
  -9  -1  -7  102.92   10.96
  -9  -1  -8 1051.34   48.82
  -9  -1  -8 1012.99   53.29
  -9  -1  -9    5.23    8.84
  -9  -1  -9   -1.71    8.80
  -9  -1 -11   59.43    9.70
  -9  -1 -11   57.53    9.97
  -9  -1 -12  344.28   19.94
  -9  -1 -12  294.01   19.22
  -9  -1 -13   96.88   10.74
  -9  -1 -13   75.76   11.69
  -9  -1 -14   24.68    8.75
   9   1  14   15.93    6.50
  -9  -1 -14    9.88   10.20
  -9  -1 -15    5.73    8.80
   9   1  15   12.32    6.50
  -9  -1 -15   -2.71    8.98
  -9  -1 -16   -2.08    7.08
   9   1  16    4.78    7.40
  -9  -1 -16   -5.60    9.07
  -9  -1 -17   42.32    8.44
   9   1  17   28.97    7.22
  -9  -1 -17   30.86   10.69
  -9  -2  10  -10.38    8.12
   9   2 -10    1.94    9.07
  -9  -2  10    7.58   11.78
   9   2 -10   13.45   10.24
  -9  -2   9    7.08    7.58
   9   2  -9   -1.04    8.80
  -9  -2   9   26.31   11.73
   9   2  -9   -3.79   11.64
  -9  -2   8   37.86    9.02
   9   2  -8   36.55    8.66
  -9  -2   8   32.49   12.36
   9   2  -8   43.54   10.06
  -9  -2   7   10.29    8.30
   9   2  -7   20.85    8.35
  -9  -2   7   45.71   10.38
   9   2  -7   20.40    8.89
  -9  -2   6  150.80   12.18
   9   2  -6  150.08   12.05
  -9  -2   6  164.69   14.39
   9   2  -6  170.52   13.63
  -9  -2   5   17.91    6.86
   9   2  -5   24.59    8.17
  -9  -2   5   18.18    9.70
   9   2  -5   23.46    7.67
  -9  -2   4  145.11   11.46
   9   2  -4  142.86   11.42
  -9  -2   4  153.19   13.49
  -9  -2   3    9.39    7.72
   9   2  -3    8.26    7.99
  -9  -2   3    2.71    8.93
  -9  -2   2   -3.11    6.68
   9   2  -2    4.56    6.90
  -9  -2   2   -4.38    7.54
  -9  -2   1  384.57   20.80
   9   2  -1  393.24   20.94
  -9  -2   1  371.98   21.79
  -9  -2   0  267.93   16.33
  -9  -2   0  298.35   17.96
  -9  -2  -1  170.88   12.45
  -9  -2  -1  160.50   11.91
  -9  -2  -2  151.88   11.91
  -9  -2  -2  163.03   12.18
  -9  -2  -3  801.82   37.95
  -9  -2  -3  859.57   45.17
  -9  -2  -4   -2.71    6.99
  -9  -2  -5   48.33    7.85
  -9  -2  -5   21.97    7.63
  -9  -2  -6    6.99    7.13
  -9  -2  -7  387.87   21.07
  -9  -2  -7  506.72   28.70
  -9  -2  -8   30.77    8.30
  -9  -2  -8   22.92    8.75
  -9  -2  -9    2.21    8.75
  -9  -2  -9   13.22    8.12
  -9  -2 -10  466.11   24.59
  -9  -2 -10  498.60   28.52
  -9  -2 -11  100.26   11.05
  -9  -2 -11  119.21   12.00
  -9  -2 -12  406.55   22.47
  -9  -2 -12  330.74   21.84
  -9  -2 -13   10.42    7.94
   9   2  13    7.54    7.90
  -9  -2 -13    2.75    9.61
  -9  -2 -14  163.97   13.00
   9   2  14  164.06   12.77
  -9  -2 -14  191.77   15.21
  -9  -2 -15    4.02    8.62
   9   2  15   -2.53    7.67
  -9  -2 -15    3.56    9.79
  -9  -2 -16  -12.18    8.08
   9   2  16   -4.02    8.39
  -9  -2 -16   11.24    9.52
  -9  -2 -17    0.00    7.85
   9   2  17    2.53    8.57
  -9  -2 -17    5.14    8.98
  -9  -3  10    2.44    9.16
   9   3 -10    6.09    9.79
  -9  -3  10    1.13   11.73
   9   3 -10    3.38   10.20
  -9  -3   9   79.69   10.60
   9   3  -9   77.47    9.97
  -9  -3   9   79.14   13.36
   9   3  -9   82.39   12.59
  -9  -3   8   34.07    9.11
   9   3  -8   37.50    9.88
  -9  -3   8   19.76   10.74
   9   3  -8   16.83    9.52
  -9  -3   7   69.53    9.93
   9   3  -7   72.24    9.93
  -9  -3   7   77.02   10.92
   9   3  -7   74.50   10.74
  -9  -3   6   53.20   10.02
   9   3  -6   46.39    8.84
  -9  -3   6   27.21    9.70
   9   3  -6   43.32    9.75
  -9  -3   5   69.76   10.29
   9   3  -5   66.15    9.25
  -9  -3   5   62.00   10.02
   9   3  -5   57.67   10.06
  -9  -3   4  176.88   13.54
   9   3  -4  123.63   11.24
  -9  -3   4  111.41   12.23
  -9  -3   3   25.04    8.75
   9   3  -3   21.57    8.12
  -9  -3   3   21.12    8.84
  -9  -3   2   75.13    9.34
   9   3  -2   90.42   10.11
  -9  -3   2  111.72   11.05
  -9  -3   1  387.64   20.35
   9   3  -1  333.45   18.45
  -9  -3   1  346.22   20.94
  -9  -3   0  147.68   10.87
  -9  -3   0  157.66   12.50
  -9  -3  -1   -5.23    6.41
  -9  -3  -1    3.47    7.45
  -9  -3  -2  691.27   32.80
  -9  -3  -2  727.36   39.08
  -9  -3  -3   49.81    7.76
  -9  -3  -3   70.12    8.30
  -9  -3  -4  432.58   22.34
  -9  -3  -6    9.16    6.72
  -9  -3  -7    0.23    6.90
  -9  -3  -8  285.44   16.88
  -9  -3  -8  292.98   18.82
  -9  -3  -9  122.01   11.51
  -9  -3  -9  125.39   12.81
  -9  -3 -10   44.17    8.98
  -9  -3 -10   75.71   10.92
  -9  -3 -11  690.82   33.44
  -9  -3 -11  677.28   37.50
  -9  -3 -12   22.83    9.02
  -9  -3 -12    0.14    9.66
  -9  -3 -13  192.85   14.08
   9   3  13  160.90   12.41
  -9  -3 -13  164.33   14.39
  -9  -3 -14   25.54    8.17
   9   3  14   33.62    7.99
  -9  -3 -14   36.32    9.61
  -9  -3 -15   35.56    9.16
   9   3  15   40.20    8.66
  -9  -3 -15   44.63    9.97
  -9  -3 -16   20.26    8.62
   9   3  16   31.95    9.20
  -9  -3 -16   29.28   10.65
  -9  -3 -17   32.76    7.94
   9   3  17   42.55    8.80
  -9  -3 -17   34.56   10.15
  -9  -4   9   54.87    9.66
   9   4  -9   63.62    9.16
  -9  -4   9   30.41   11.24
   9   4  -9   53.92   10.47
  -9  -4   8  109.96   11.96
   9   4  -8   93.72   11.64
  -9  -4   8   89.75   13.04
   9   4  -8   83.61   11.78
  -9  -4   7   -6.54    8.80
   9   4  -7   -7.45    8.89
  -9  -4   7   -0.59    9.48
   9   4  -7   16.42    8.21
  -9  -4   6   21.57    9.11
   9   4  -6   15.61    7.85
  -9  -4   6   -7.85    9.75
   9   4  -6   10.33    9.11
  -9  -4   5   77.34    9.57
   9   4  -5   70.66    9.25
  -9  -4   5   69.53   11.19
   9   4  -5   83.52   11.01
  -9  -4   4   82.75    9.61
   9   4  -4   86.00    9.70
  -9  -4   4   86.59   10.47
  -9  -4   3   38.49    9.30
   9   4  -3   53.24    8.53
  -9  -4   3   72.42    9.66
  -9  -4   2   29.42    8.66
   9   4  -2   23.01    7.63
  -9  -4   2   44.99    7.99
  -9  -4   1  688.11   33.66
   9   4  -1  626.29   30.55
  -9  -4   1  666.90   35.78
  -9  -4   0  157.07   11.73
  -9  -4   0  184.50   13.13
  -9  -4  -1  474.23   24.23
  -9  -4  -1  437.59   25.00
  -9  -4  -2  170.29   11.78
  -9  -4  -2  168.21   13.18
  -9  -4  -3  196.42   12.50
  -9  -4  -3  220.92   15.21
  -9  -4  -4  553.64   26.89
  -9  -4  -5  219.65   13.63
  -9  -4  -5  237.75   14.12
  -9  -4  -6  162.66   11.78
  -9  -4  -7   54.33    8.17
  -9  -4  -8  613.21   30.05
  -9  -4  -9    7.81    8.35
  -9  -4  -9    6.18    9.79
  -9  -4 -10  241.04   15.34
  -9  -4 -10  255.03   17.91
  -9  -4 -11    9.43    8.62
  -9  -4 -11    5.87    8.98
  -9  -4 -12  128.24   12.09
  -9  -4 -12  128.64   12.54
  -9  -4 -13   70.16   10.38
   9   4  13   75.08    9.48
  -9  -4 -13   73.37   11.55
  -9  -4 -14   74.36   10.06
   9   4  14   71.43    8.48
  -9  -4 -14   87.09   11.46
  -9  -4 -15    4.65    8.80
   9   4  15  -10.06    7.54
  -9  -4 -15   19.40    9.57
  -9  -4 -16    2.48    8.44
   9   4  16   12.50    7.08
  -9  -4 -16    8.62    8.84
  -9  -4 -17   -2.48    7.99
   9   4  17    6.95    8.53
  -9  -4 -17   -6.99    8.66
  -9  -5   9   18.64    9.70
   9   5  -9   -8.89    9.20
  -9  -5   9    5.55   10.83
   9   5  -9   13.31   10.24
  -9  -5   8   54.87   10.87
   9   5  -8   79.59   11.42
  -9  -5   8   71.79   11.05
   9   5  -8  102.16   11.78
  -9  -5   7   -3.93    8.39
   9   5  -7    0.86    8.21
  -9  -5   7   16.65   10.15
   9   5  -7   -3.70    7.94
  -9  -5   6   -1.62    8.71
   9   5  -6    9.88    7.99
  -9  -5   6   11.55    9.61
   9   5  -6    8.93    8.62
  -9  -5   5   -7.99    8.66
   9   5  -5   -4.06    7.58
  -9  -5   5    2.35    9.79
   9   5  -5   -9.16    7.58
  -9  -5   4   -2.12    7.90
   9   5  -4  -13.45    7.35
  -9  -5   4   -6.54    8.75
  -9  -5   3  238.11   15.52
   9   5  -3  216.95   14.08
  -9  -5   3  204.22   15.43
  -9  -5   2   94.49    9.70
   9   5  -2   90.88    9.61
  -9  -5   2   83.29   10.47
  -9  -5   1 1246.27   56.13
  -9  -5   1 1235.44   64.16
  -9  -5   0  348.25   18.68
  -9  -5   0  361.70   22.25
  -9  -5  -1  305.47   17.37
  -9  -5  -1  336.88   21.03
  -9  -5  -2   13.18    6.72
  -9  -5  -2    2.62    7.90
  -9  -5  -3 1239.05   56.18
  -9  -5  -3 1285.07   66.28
  -9  -5  -4   14.12    6.77
  -9  -5  -4   14.80    7.45
  -9  -5  -5   71.29    8.53
  -9  -5  -5   60.96    8.35
  -9  -5  -6   15.30    6.90
  -9  -5  -7  586.13   28.92
  -9  -5  -8  226.15   14.66
  -9  -5  -9   84.92   10.38
  -9  -5  -9   77.38   10.78
  -9  -5 -10  203.27   13.90
  -9  -5 -10  173.13   13.76
  -9  -5 -11   28.79    9.07
  -9  -5 -11   -1.94    8.71
  -9  -5 -12  210.45   14.57
  -9  -5 -12  210.18   16.38
  -9  -5 -13   11.42    7.58
   9   5  13   -4.60    7.85
  -9  -5 -13   17.51   10.11
  -9  -5 -14   28.70    9.11
   9   5  14   30.28    7.90
  -9  -5 -14   20.62    8.80
  -9  -5 -15   14.12    8.84
   9   5  15    4.60    7.40
  -9  -5 -15   12.00    9.20
  -9  -5 -16   39.93    9.61
   9   5  16   18.09    7.49
  -9  -5 -16    7.04    8.71
  -9  -5 -17   14.08    8.03
   9   5  17    7.35    8.30
  -9  -5 -17   -4.02    9.11
  -9  -6   9   52.25   11.69
   9   6  -9   47.02   11.87
  -9  -6   9   50.27   11.69
   9   6  -9   44.72    9.48
  -9  -6   8   56.36   10.51
   9   6  -8   39.84   10.06
  -9  -6   8   50.36   11.55
   9   6  -8   53.56   11.15
  -9  -6   7   11.91    9.39
   9   6  -7   13.00    9.02
  -9  -6   7   25.63   10.60
   9   6  -7    7.90    9.25
  -9  -6   6   24.41    8.80
   9   6  -6   11.33    8.26
  -9  -6   6   24.19   10.15
   9   6  -6   24.95    8.75
  -9  -6   5   30.91    9.34
   9   6  -5   21.93    7.90
  -9  -6   5   25.09    9.11
  -9  -6   4   30.41    8.39
   9   6  -4   51.17    8.89
  -9  -6   4   22.97    9.25
  -9  -6   3   12.95    7.90
   9   6  -3    7.45    8.12
  -9  -6   3    6.63    8.80
  -9  -6   2  117.00   11.42
   9   6  -2  112.94   10.42
  -9  -6   2  101.61   10.83
  -9  -6   1   39.35    8.89
  -9  -6   1   33.53    8.62
  -9  -6   0  228.63   14.08
  -9  -6   0  243.48   17.10
  -9  -6  -1   48.15    7.67
  -9  -6  -1   46.30    8.30
  -9  -6  -2  245.87   14.12
  -9  -6  -2  250.20   16.74
  -9  -6  -3  240.86   14.08
  -9  -6  -3  241.54   16.60
  -9  -6  -4   94.44    8.57
  -9  -6  -4   85.60    9.43
  -9  -6  -4   91.73   10.20
  -9  -6  -5    1.99    7.13
  -9  -6  -5    6.72    6.18
  -9  -6  -6  400.55   20.94
  -9  -6  -7  130.94   10.60
  -9  -6  -8  105.68   10.65
  -9  -6  -9   84.24   10.33
  -9  -6 -10   11.05    8.35
  -9  -6 -10   10.92    8.48
  -9  -6 -11  554.55   28.02
  -9  -6 -11  570.34   32.17
  -9  -6 -12    2.48    7.85
  -9  -6 -12   -2.12    9.48
  -9  -6 -13   98.05   10.38
   9   6  13  104.73    9.97
  -9  -6 -13  105.90   11.28
  -9  -6 -14   11.60    8.84
   9   6  14   16.92    8.03
  -9  -6 -14   23.33    9.52
  -9  -6 -15   16.92    8.57
   9   6  15   -2.98    7.22
  -9  -6 -15    0.86    8.57
  -9  -6 -16   47.42    9.11
   9   6  16   63.22   10.11
  -9  -6 -16   40.07    9.48
  -9  -6 -17   29.65    8.71
   9   6  17   17.55    8.12
  -9  -6 -17   16.97    8.75
  -9  -7   8   29.87   11.51
   9   7  -8   17.51    9.70
  -9  -7   8   21.57   11.01
   9   7  -8   19.40    8.62
  -9  -7   7   19.40   10.78
   9   7  -7   42.05   10.74
  -9  -7   7   20.62   10.42
   9   7  -7   19.58    9.39
  -9  -7   6  -11.15    8.53
   9   7  -6  -12.81    8.08
  -9  -7   6    4.92    9.02
  -9  -7   5   23.37    8.93
   9   7  -5   14.66    7.76
  -9  -7   5   20.94    8.98
  -9  -7   4    4.83    7.72
   9   7  -4   10.96    7.35
  -9  -7   4    3.97    8.53
  -9  -7   3   14.35    7.49
   9   7  -3   14.85    8.30
  -9  -7   3    7.31    8.26
  -9  -7   2    6.32    6.59
  -9  -7   2    2.89    8.71
  -9  -7   1  289.28   15.88
  -9  -7   1  265.54   17.64
  -9  -7   0  168.26   11.46
  -9  -7   0  164.92   13.09
  -9  -7  -1   29.87    7.63
  -9  -7  -1   14.98    7.58
  -9  -7  -2  208.55   13.18
  -9  -7  -2  204.04   14.62
  -9  -7  -3  135.23   10.78
  -9  -7  -3  138.39   10.65
  -9  -7  -3  132.30   11.60
  -9  -7  -4    5.78    7.08
  -9  -7  -4   -2.08    6.32
  -9  -7  -4   -5.69    8.30
  -9  -7  -5   99.31    9.52
  -9  -7  -5   79.28    8.21
  -9  -7  -6   32.85    7.45
  -9  -7  -6   47.24    8.17
  -9  -7  -7   81.85    9.97
  -9  -7  -8 2106.29   92.91
  -9  -7  -9   12.36    7.72
  -9  -7 -10  108.07   10.87
  -9  -7 -10  134.87   12.59
  -9  -7 -11  259.63   16.38
  -9  -7 -11  211.40   15.61
  -9  -7 -12  212.48   14.57
  -9  -7 -12  209.37   15.16
  -9  -7 -13   -4.42    8.39
  -9  -7 -13    3.93    9.39
  -9  -7 -14   26.58    9.39
   9   7  14   30.68    8.44
  -9  -7 -14   24.73    9.02
  -9  -7 -15    4.33    9.25
   9   7  15    3.43    8.17
  -9  -7 -15    7.35    9.30
  -9  -7 -16    0.63    8.75
   9   7  16   12.81    8.66
  -9  -7 -16   27.80   10.20
  -9  -7 -17   98.77   10.20
   9   7  17  101.03   11.15
  -9  -7 -17  106.58   10.69
  -9  -8   8   49.36   12.50
   9   8  -8   43.59   13.13
  -9  -8   8   51.35   12.18
   9   8  -8   51.21    9.39
  -9  -8   7   18.45    9.97
   9   8  -7    0.59    9.75
  -9  -8   7    9.34   10.15
  -9  -8   6   10.69    9.52
   9   8  -6   10.69    9.11
  -9  -8   6   11.78    9.39
  -9  -8   5   59.83   10.60
   9   8  -5   49.27    8.62
  -9  -8   5   48.33    9.75
  -9  -8   4   21.43    8.26
   9   8  -4   33.98    8.35
  -9  -8   4   29.60    9.79
  -9  -8   3   18.86    8.17
   9   8  -3    2.89    6.90
  -9  -8   3   12.27    8.39
  -9  -8   2   49.18    8.26
  -9  -8   2   38.04    9.43
  -9  -8   1  169.84   12.18
  -9  -8   1  172.46   13.54
  -9  -8   0   13.18    7.85
  -9  -8   0   -4.56    7.49
  -9  -8  -1  730.97   33.93
  -9  -8  -1  577.56   32.22
  -9  -8  -2   23.37    6.18
  -9  -8  -2   35.20    9.02
  -9  -8  -3  201.83   12.27
  -9  -8  -3  199.12   12.05
  -9  -8  -3  212.79   14.94
  -9  -8  -4   18.86    6.54
  -9  -8  -4   25.72    6.86
  -9  -8  -4   25.22    8.03
  -9  -8  -5    2.26    6.95
  -9  -8  -5    0.27    6.54
  -9  -8  -5   15.70    8.35
  -9  -8  -6 1129.85   50.76
  -9  -8  -6 1214.23   54.78
  -9  -8  -7 1200.69   54.19
  -9  -8  -8  513.49   25.54
  -9  -8  -9   22.29    8.30
  -9  -8 -10  731.43   35.24
  -9  -8 -11    8.03    7.85
  -9  -8 -11    2.26    7.76
  -9  -8 -12  219.38   14.66
  -9  -8 -12  219.74   15.97
  -9  -8 -13   31.36    9.30
  -9  -8 -13   26.44    8.98
  -9  -8 -14   30.37    9.02
   9   8  14   32.53    7.94
  -9  -8 -14   42.37   10.38
  -9  -8 -15    7.40    9.07
   9   8  15    5.14    8.21
  -9  -8 -15    9.07    9.25
  -9  -8 -16   27.43    8.98
   9   8  16   28.47    9.02
  -9  -8 -16   12.36   10.38
  -9  -9   7    5.50   11.42
   9   9  -7   -9.16   10.87
  -9  -9   7   13.72   11.42
  -9  -9   6    5.78   10.06
   9   9  -6    2.17    9.93
  -9  -9   6   -9.20   10.11
  -9  -9   5   -3.97   10.56
   9   9  -5   23.78    9.34
  -9  -9   5  -13.18    9.20
  -9  -9   4   -8.39    8.93
   9   9  -4    0.90    7.31
  -9  -9   4   -3.29    8.66
  -9  -9   3   -5.05    7.94
  -9  -9   3   37.00    9.02
  -9  -9   2   47.20    8.80
  -9  -9   2   33.84    9.61
  -9  -9   1   73.77    9.25
  -9  -9   1  101.30   11.78
  -9  -9   0  546.43   26.13
  -9  -9   0  564.47   31.72
  -9  -9  -1   17.69    6.95
  -9  -9  -1   15.66    7.76
  -9  -9  -2  132.48    9.88
  -9  -9  -2  135.32    9.75
  -9  -9  -2  113.53   11.01
  -9  -9  -3  570.34   27.21
  -9  -9  -3  592.45   27.98
  -9  -9  -3  600.12   33.03
  -9  -9  -4   50.85    7.31
  -9  -9  -4   64.89    7.76
  -9  -9  -4   48.05    8.84
  -9  -9  -5   90.60    8.39
  -9  -9  -5  109.74    9.39
  -9  -9  -5   98.77   10.69
  -9  -9  -6  330.83   17.55
  -9  -9  -6  373.70   19.76
  -9  -9  -7   15.39    7.40
  -9  -9  -7   14.53    6.59
  -9  -9  -8    6.23    7.67
  -9  -9  -9   39.30    8.89
  -9  -9 -10   14.75    7.63
  -9  -9 -11  112.85   11.05
  -9  -9 -11  101.25   11.55
  -9  -9 -12   84.02   10.15
  -9  -9 -12   88.66   10.74
  -9  -9 -13   23.37    9.84
  -9  -9 -13    8.39    9.52
  -9  -9 -14   -0.68    8.93
  -9  -9 -14   -4.38    9.20
   9   9  15    9.20    8.44
  -9  -9 -16    7.26   11.28
   9   9  16   -0.72    7.85
  -9  -9 -16   -0.59   10.15
  -9 -10   6   10.06   12.50
   9  10  -6  -16.83   10.65
  -9 -10   6   -7.58   10.42
  -9 -10   5    7.72   10.56
  -9 -10   5   -0.81    9.34
  -9 -10   4   16.60   10.83
  -9 -10   4   -7.26    8.84
  -9 -10   3   16.47    9.34
  -9 -10   3   27.12    9.07
  -9 -10   2  103.15   10.20
  -9 -10   2  131.89   12.72
  -9 -10   1  307.82   17.42
  -9 -10   1  292.16   18.68
  -9 -10   0  209.32   12.86
  -9 -10   0  190.23   14.71
  -9 -10  -1   19.99    6.63
  -9 -10  -1   16.74    7.45
  -9 -10  -1   22.25    8.30
  -9 -10  -2  118.67    9.02
  -9 -10  -2  102.25    8.93
  -9 -10  -2  107.66   10.96
  -9 -10  -3    0.09    6.18
  -9 -10  -3   -8.08    5.50
  -9 -10  -3   -2.75    7.45
  -9 -10  -4   28.02    6.81
  -9 -10  -4   23.46    5.78
  -9 -10  -4   32.80    8.08
  -9 -10  -5    4.60    6.45
  -9 -10  -5    4.96    5.28
  -9 -10  -5   -5.05    7.35
  -9 -10  -6   15.30    7.08
  -9 -10  -6   23.15    6.63
  -9 -10  -6   26.71    8.12
  -9 -10  -7   60.42    8.39
  -9 -10  -7   60.78    7.76
  -9 -10  -8  358.27   19.31
  -9 -10  -9   11.01    8.21
  -9 -10 -10    8.57    8.48
  -9 -10 -11   41.65    9.52
  -9 -10 -12   80.00   10.06
  -9 -10 -12   54.69    9.79
  -9 -10 -13  -11.28    8.62
  -9 -10 -13   10.24    8.12
  -9 -10 -14   14.35    9.30
  -9 -10 -14   -0.90    8.17
  -9 -10 -15   20.26   10.11
  -9 -10 -15   19.04    9.84
  -9 -11   5  -11.19   11.60
  -9 -11   5    5.01    9.97
  -9 -11   4   -4.83    9.79
  -9 -11   4   -3.84    8.71
  -9 -11   3   15.25    9.88
  -9 -11   3   14.17    8.66
  -9 -11   2   13.27    8.66
  -9 -11   2    7.22    8.53
  -9 -11   1   47.96    8.35
  -9 -11   1   42.82    9.48
  -9 -11   0   16.92    6.63
  -9 -11   0    9.79    7.08
  -9 -11   0   11.33    7.49
  -9 -11  -1  303.81   15.84
  -9 -11  -1  290.95   15.48
  -9 -11  -1  294.37   18.86
  -9 -11  -2   12.90    5.96
  -9 -11  -2   20.67    6.05
  -9 -11  -2   24.23    8.71
  -9 -11  -3   43.90    6.68
  -9 -11  -3   29.87    6.23
  -9 -11  -3   38.17    8.35
  -9 -11  -4   27.48    6.50
  -9 -11  -4   32.44    6.50
  -9 -11  -4   24.28    8.44
  -9 -11  -5   -3.52    6.41
  -9 -11  -5    0.32    5.78
  -9 -11  -5  -10.33    7.54
  -9 -11  -6  244.33   14.30
  -9 -11  -6  235.76   13.54
  -9 -11  -6  229.22   15.79
  -9 -11  -7  234.86   14.48
  -9 -11  -7  247.45   14.21
  -9 -11  -7  271.95   17.69
  -9 -11  -8  296.22   16.83
  -9 -11  -8  271.05   15.70
  -9 -11  -9    6.09    8.17
  -9 -11 -10   40.16    8.84
  -9 -11 -11    3.61    8.75
  -9 -11 -12   58.30    9.84
  -9 -11 -12   61.14    9.66
  -9 -11 -13   -5.78    9.16
  -9 -11 -13    8.98    8.48
  -9 -11 -14  -14.80    8.75
  -9 -11 -14   -0.81    8.75
  -9 -11 -15    8.89   11.28
  -9 -11 -15   16.47    9.34
  -9 -12   4    9.93   10.29
  -9 -12   4   35.78   10.15
  -9 -12   3   -4.60    9.16
  -9 -12   3    1.53    9.16
  -9 -12   2  122.51   12.09
  -9 -12   2  146.33   11.10
  -9 -12   2  117.72   11.05
  -9 -12   1   69.49    8.26
  -9 -12   1   66.33    8.62
  -9 -12   1   97.91   10.20
  -9 -12   0  216.99   12.81
  -9 -12   0  240.95   13.40
  -9 -12   0  232.51   15.93
  -9 -12  -1   86.00    7.49
  -9 -12  -1   76.17    7.40
  -9 -12  -1   72.29   10.60
  -9 -12  -2   18.68    5.69
  -9 -12  -2   14.57    5.82
  -9 -12  -2   19.27    7.35
  -9 -12  -3   76.48    7.45
  -9 -12  -3   78.06    7.22
  -9 -12  -3   71.34    9.61
  -9 -12  -4   14.57    6.23
  -9 -12  -4    2.12    5.60
  -9 -12  -4    9.84    7.08
  -9 -12  -5  101.75    8.93
  -9 -12  -5   94.98    8.30
  -9 -12  -5   93.76    9.34
  -9 -12  -6    4.15    6.95
  -9 -12  -6    7.67    6.27
  -9 -12  -6    1.99    6.86
  -9 -12  -7  603.73   28.34
  -9 -12  -7  615.91   29.51
  -9 -12  -7  573.05   31.36
  -9 -12  -8   -2.93    7.81
  -9 -12  -8    1.44    7.45
  -9 -12  -8    4.24    6.50
  -9 -12  -9   86.63   10.47
  -9 -12 -10   25.90    9.20
  -9 -12 -11   65.61   10.87
  -9 -12 -12   27.52   10.78
  -9 -12 -12   53.06    9.88
  -9 -12 -13   10.83   10.02
  -9 -12 -13    9.93    8.48
  -9 -12 -14    0.95   11.69
  -9 -12 -14   -0.32    8.39
  -9 -13   3    1.58    7.13
  -9 -13   3   -8.12    7.76
  -9 -13   3   14.94    9.30
  -9 -13   2   12.81    8.62
  -9 -13   1    7.94    8.08
  -9 -13   0  163.34   12.36
  -9 -13  -1   12.81    7.22
  -9 -13  -2   -4.47    7.40
  -9 -13  -3   17.73    7.35
  -9 -13  -4   -3.56    7.13
  -9 -13  -5   61.50    6.63
  -9 -13  -5   61.32    5.96
  -9 -13  -5   60.82    8.66
  -9 -13  -6  271.00   15.07
  -9 -13  -6  266.72   14.30
  -9 -13  -6  283.27   17.96
  -9 -13  -7  135.59    9.93
  -9 -13  -7  138.84   11.19
  -9 -13  -7  120.34   11.10
  -9 -13  -8  216.81   13.85
  -9 -13  -8  247.85   15.52
  -9 -13  -8  221.68   15.21
  -9 -13  -9  127.88   11.73
  -9 -13  -9  152.92   11.55
  -9 -13  -9  139.43   11.24
  -9 -13 -10   11.37    9.66
  -9 -13 -11   22.56   10.56
  -9 -13 -12   -5.23   11.01
  -9 -13 -12    5.69    8.21
  -9 -13 -13    5.69   13.13
  -9 -13 -13    5.60    8.71
  -9 -14   1  131.71   11.55
  -9 -14   0   -9.88    8.35
  -9 -14  -1    9.30    8.75
  -9 -14  -2   19.81    8.12
  -9 -14  -3   33.44    8.08
  -9 -14  -4   63.89    9.34
  -9 -14  -5   39.35    8.39
  -9 -14  -6  159.91   12.63
  -9 -14  -7   22.34    7.99
  -9 -14  -8  333.77   20.08
  -9 -14  -9    1.99    9.02
  -9 -14  -9    0.23    9.43
  -9 -14  -9   -8.44    7.81
  -9 -14 -10   31.63    8.93
  -9 -14 -10   24.55   11.51
  -9 -14 -10   27.07    7.94
  -9 -14 -11   25.36   13.67
  -9 -14 -12   26.76   14.26
  -9 -14 -12   52.16    9.48
  -9 -15  -1  264.59   17.01
  -9 -15  -2   61.05    9.84
  -9 -15  -3   38.80    9.07
  -9 -15  -4   56.63    9.20
  -9 -15  -5   10.51    8.21
  -9 -15  -6    3.20    8.03
  -9 -15  -7  132.57   12.00
  -9 -15  -8    4.06    8.03
  -9 -15  -9    0.41    7.67
  -9 -15  -9    8.53    7.99
  -9 -15  -9   10.60    7.85
  -9 -15 -10   -4.60   12.05
  -9 -15 -10   23.06    9.70
  -9 -15 -10   29.60    8.17
 -10  13   1   37.41   10.11
 -10  13   0    5.87    9.11
 -10  13  -1   17.33    9.34
 -10  13  -2   11.24    9.25
 -10  13  -2   22.74    9.07
 -10  13  -3   10.38    9.75
 -10  13  -3   11.82    8.75
 -10  13  -4    9.43    9.16
 -10  13  -4   18.95    9.07
 -10  13  -5  122.91   12.09
 -10  13  -5  114.29   12.50
 -10  13  -6    4.38   10.74
 -10  13  -6    5.28    9.88
 -10  13  -7   47.69   11.24
 -10  13  -7   69.76   11.28
 -10  12   3   58.97    8.66
 -10  12   2   58.30    9.11
 -10  12   1   13.67    8.39
 -10  12   0   19.85    8.71
 -10  12  -1   11.46    7.31
 -10  12  -2    6.41    7.58
 -10  12  -2   -1.58    7.04
 -10  12  -3   17.28    8.89
 -10  12  -3   27.48    7.81
 -10  12  -4  106.76   10.87
 -10  12  -4  111.32   10.92
 -10  12  -5   60.19    9.39
 -10  12  -5   64.12    9.84
 -10  12  -6   10.11    8.48
 -10  12  -6   -3.38    8.08
 -10  12  -7    3.70   10.24
 -10  12  -7   26.85    8.75
 -10  12  -8   25.63    8.89
 -10  12  -8   21.61   10.42
 -10  12  -8    8.93   12.72
 -10  12  -9   24.19   10.42
 -10  12  -9   18.68    9.93
 -10  12  -9   21.88   14.08
  10 -12   9    3.52   17.73
 -10  11   5   11.46    7.76
 -10  11   4   41.33    8.98
 -10  11   3   43.00    8.30
 -10  11   2   -5.91    7.31
 -10  11   1   56.94    8.89
 -10  11   0   25.31    8.08
 -10  11  -1   22.61    7.40
 -10  11  -2    2.66    7.13
 -10  11  -3    0.23    6.86
 -10  11  -3   -9.39    7.49
 -10  11  -4  146.78   11.51
 -10  11  -4  159.69   11.51
 -10  11  -5   36.23    7.90
 -10  11  -5   26.89    7.76
 -10  11  -6   48.15    8.75
 -10  11  -6   53.33    8.48
 -10  11  -7  -14.66    7.85
 -10  11  -7    4.02    7.90
 -10  11  -7   -8.35    9.66
 -10  11  -8  235.45   15.48
 -10  11  -8  217.58   14.57
 -10  11  -8  225.16   18.50
 -10  11  -9   27.30    9.61
 -10  11  -9   32.04    8.93
 -10  11  -9   40.34   14.80
  10 -11   9   49.23   16.70
 -10  11 -10   35.56    9.93
 -10  11 -10   28.11    9.52
 -10  11 -10   22.47   13.40
  10 -11  10   20.71   17.01
 -10  10   6   59.11   10.11
  10 -10  -6   57.98    8.93
 -10  10   5   31.27    8.57
  10 -10  -5   12.23    8.21
 -10  10   4  198.45   13.09
 -10  10   3   80.86    9.30
 -10  10   2   21.43    7.99
 -10  10   1   27.30    8.44
 -10  10   0   -2.48    7.58
 -10  10  -1   19.90    8.30
 -10  10  -2   31.95    7.76
 -10  10  -3   72.78    8.30
 -10  10  -3  102.74    9.93
 -10  10  -4   -3.07    7.76
 -10  10  -4    2.66    7.08
 -10  10  -5  199.17   13.40
 -10  10  -5  211.35   13.81
 -10  10  -6   41.83    8.80
 -10  10  -6   36.10    7.99
 -10  10  -7  236.71   14.75
 -10  10  -7  249.12   15.52
 -10  10  -7  249.25   17.06
 -10  10  -8    8.98    8.12
 -10  10  -8    5.37    7.63
 -10  10  -8   20.35   11.19
 -10  10  -9    8.71    8.44
 -10  10  -9   -7.26    8.21
 -10  10  -9    7.67   11.33
  10 -10   9  -16.47   14.21
 -10  10 -10   99.00   10.78
 -10  10 -10   87.81    9.97
 -10  10 -10  103.74   14.26
  10 -10  10   81.90   17.73
 -10  10 -11   27.75    8.75
 -10  10 -11   45.12   10.20
 -10  10 -11   32.35   13.00
  10 -10  11   18.82   16.02
 -10  10 -12   23.33    8.89
 -10  10 -12   12.86    9.75
 -10  10 -12   10.38   13.58
  10 -10  12   22.34   17.55
 -10   9   7   14.21   11.60
  10  -9  -7    0.63    8.39
 -10   9   6    1.17    8.53
  10  -9  -6    4.20    7.45
 -10   9   5  -12.86    7.81
  10  -9  -5   14.39    7.85
 -10   9   4  244.83   14.94
  10  -9  -4  228.23   14.71
 -10   9   3   14.21    7.94
 -10   9   2   38.22    8.93
 -10   9   1   26.76    7.81
 -10   9   0   29.33    8.12
 -10   9  -1   15.43    7.08
 -10   9  -2   41.47    8.21
 -10   9  -3   77.43    9.02
 -10   9  -4  104.46    9.70
 -10   9  -4   75.35    8.89
 -10   9  -5   42.91    8.17
 -10   9  -5   40.93    8.66
 -10   9  -6  -11.69    7.45
 -10   9  -6    3.29    7.45
 -10   9  -6    6.86    6.36
 -10   9  -7   12.68    6.95
 -10   9  -7   16.38    7.90
 -10   9  -7   14.17    8.21
 -10   9  -8   39.84    8.66
 -10   9  -8   19.27    8.26
 -10   9  -8   17.55    9.61
 -10   9  -9   66.24    9.16
 -10   9  -9   52.03    9.52
 -10   9  -9   78.15   12.54
 -10   9 -10   29.51    8.48
 -10   9 -10   40.25    8.98
 -10   9 -10   19.85   11.60
  10  -9  10   16.06   13.99
 -10   9 -11   11.60    8.39
 -10   9 -11    5.55   12.00
  10  -9  11   18.77   15.30
 -10   9 -12    1.80    9.20
 -10   9 -12   -7.85   11.91
  10  -9  12   23.51   16.65
 -10   9 -13   52.97   10.60
 -10   9 -13   53.42   13.40
  10  -9  13   59.47   15.93
 -10   8   7    4.65   10.06
  10  -8  -7   14.53    7.99
 -10   8   6   -2.75    8.48
  10  -8  -6   -6.77    8.03
 -10   8   5   61.37    9.48
  10  -8  -5   44.40    8.66
 -10   8   4    7.67    8.30
  10  -8  -4   -0.14    7.63
 -10   8   3  160.18   12.41
  10  -8  -3  156.84   11.87
 -10   8   2   10.47    8.12
 -10   8   1   14.26    7.99
 -10   8   0    9.79    7.40
 -10   8  -1   -3.07    7.31
 -10   8  -2    1.35    6.90
 -10   8  -3   82.21    8.98
 -10   8  -4   52.79    8.21
 -10   8  -4   33.12    7.81
 -10   8  -5   27.21    7.85
 -10   8  -5   14.39    7.58
 -10   8  -5   26.17    5.10
 -10   8  -6    7.45    7.40
 -10   8  -6   21.03    7.63
 -10   8  -6   14.03    6.50
 -10   8  -7   -5.14    8.21
 -10   8  -7    6.54    7.45
 -10   8  -7  -14.71    8.62
 -10   8  -8  160.77   12.18
 -10   8  -8  152.38   11.91
 -10   8  -8  171.42   13.99
 -10   8  -9   -6.27    7.90
 -10   8  -9   10.42    7.90
 -10   8  -9    4.02   10.11
 -10   8 -10   14.89    8.39
 -10   8 -10   11.82   11.96
 -10   8 -11   18.68    8.62
 -10   8 -11   28.38   11.87
 -10   8 -12   44.22    9.30
 -10   8 -12   17.33   11.24
 -10   8 -13   61.19    9.16
 -10   8 -13   78.69   12.59
 -10   8 -14   16.65   11.42
 -10   8 -14   13.72   12.45
 -10   7   8   26.40   10.02
  10  -7  -8   15.66    8.12
 -10   7   7   -2.89    8.62
  10  -7  -7   -3.56    7.35
 -10   7   6   38.71    9.57
  10  -7  -6   33.44    8.98
 -10   7   5   10.42    7.90
  10  -7  -5   22.83    8.98
 -10   7   4  206.03   14.53
  10  -7  -4  167.90   12.23
 -10   7   3  110.68   10.69
  10  -7  -3   75.58    9.79
 -10   7   2    5.91    8.39
 -10   7   1   18.82    8.17
 -10   7   0   58.30    8.57
 -10   7  -1   32.40    7.54
 -10   7  -2  246.77   14.71
 -10   7  -3  145.70   10.96
 -10   7  -4  191.72   12.95
 -10   7  -5  326.37   18.18
 -10   7  -5  328.85   18.09
 -10   7  -5  326.05   17.64
 -10   7  -6   93.09    9.57
 -10   7  -6   89.12    9.57
 -10   7  -6   81.76    8.71
 -10   7  -7  102.83   10.02
 -10   7  -7   83.57    9.93
 -10   7  -7   90.92   10.11
 -10   7  -8   91.10    9.61
 -10   7  -8  105.72   10.69
 -10   7  -8   87.27   10.83
 -10   7  -9  105.90    9.84
 -10   7  -9  120.70    9.97
 -10   7  -9   77.88   10.83
 -10   7 -10    8.21    7.54
 -10   7 -10   -2.84    9.02
 -10   7 -11    9.20    7.08
 -10   7 -11    3.43   10.74
 -10   7 -12  181.12   13.04
 -10   7 -12  182.56   16.20
 -10   7 -13   15.30    8.21
 -10   7 -13    7.99   11.87
 -10   7 -14  104.41   10.15
 -10   7 -14   87.54   12.45
 -10   6   8   28.79    9.52
  10  -6  -8   -2.62    8.08
 -10   6   7   -2.48    9.79
  10  -6  -7    0.36    8.21
 -10   6   6  153.73   12.68
  10  -6  -6  162.62   12.09
 -10   6   5   51.94    9.30
  10  -6  -5   67.59   10.02
 -10   6   4  338.55   18.64
  10  -6  -4  327.22   18.32
 -10   6   3   27.61    8.44
  10  -6  -3   37.54    7.63
 -10   6   2  167.36   12.59
  10  -6  -2  189.33   13.27
 -10   6   1   20.44    8.21
 -10   6   0    8.98    7.67
 -10   6  -1   68.54    8.75
 -10   6  -2   22.83    7.63
 -10   6  -3  323.97   18.18
 -10   6  -4   96.97   10.29
 -10   6  -5  244.38   15.07
 -10   6  -5  253.00   15.48
 -10   6  -5  283.55   16.06
 -10   6  -6   31.86    8.12
 -10   6  -6   11.55    7.17
 -10   6  -6    7.58    6.14
 -10   6  -7  251.10   15.57
 -10   6  -7  279.39   16.33
 -10   6  -7  312.60   18.86
 -10   6  -8   70.57    9.25
 -10   6  -8   75.67    9.48
 -10   6  -8   99.63   10.87
 -10   6  -9   52.48    8.71
 -10   6  -9   37.81    9.66
 -10   6 -10    8.84    7.90
 -10   6 -10   -0.86   10.11
 -10   6 -11   93.90    9.97
 -10   6 -11  100.89   13.04
 -10   6 -12   76.12    9.79
 -10   6 -12   69.22   12.14
 -10   6 -13  313.91   17.91
 -10   6 -13  290.36   20.62
 -10   6 -14   66.96    9.43
 -10   6 -14   44.85   12.41
 -10   6 -15   16.06    8.26
 -10   6 -15   17.01   12.32
 -10   5   8    9.66    7.67
  10  -5  -8   11.10    8.26
 -10   5   7   42.78   10.29
  10  -5  -7   75.67    9.70
 -10   5   6   55.77    9.93
  10  -5  -6   57.39    8.53
 -10   5   5   22.25    8.35
  10  -5  -5   33.84    8.75
 -10   5   4  170.06   12.68
  10  -5  -4  169.79   12.00
 -10   5   3  464.30   23.55
  10  -5  -3  475.58   24.55
 -10   5   2    6.95    7.85
  10  -5  -2    4.38    7.85
 -10   5   1   28.65    8.26
 -10   5   0   39.35    8.03
 -10   5  -1    0.05    7.81
 -10   5  -2   53.65    8.57
 -10   5  -3   87.99   10.02
 -10   5  -4   98.19   10.29
 -10   5  -4   93.18    6.00
 -10   5  -5    2.12    7.26
 -10   5  -5   24.86    8.08
 -10   5  -5    7.90    5.55
 -10   5  -6  280.21   16.92
 -10   5  -6  243.66   15.34
 -10   5  -6  281.47   17.06
 -10   5  -7    6.77    7.99
 -10   5  -7    4.15    8.08
 -10   5  -7   -4.06    7.99
 -10   5  -8  287.07   17.10
 -10   5  -8  305.25   19.67
 -10   5  -9   -0.90    8.26
 -10   5  -9   20.71    9.43
 -10   5 -10   76.39    9.75
 -10   5 -10   80.81   11.64
 -10   5 -11  111.86   10.92
 -10   5 -11  121.47   13.31
 -10   5 -12  162.75   12.77
 -10   5 -12  181.93   14.94
 -10   5 -13  207.20   13.76
 -10   5 -13  222.13   17.24
 -10   5 -14   -9.11    8.80
 -10   5 -14   -4.29   11.28
 -10   5 -15    9.93    8.12
 -10   5 -15   11.96   11.55
 -10   4   9    6.54    8.89
  10  -4  -9   -2.93    9.07
 -10   4   8  122.19   11.46
  10  -4  -8  117.45   11.33
 -10   4   7   -0.59    8.03
  10  -4  -7   -7.35    8.48
 -10   4   6   19.54    8.39
  10  -4  -6   20.49    6.99
 -10   4   5  192.17   14.26
  10  -4  -5  171.51   12.86
 -10   4   4  110.59   11.24
  10  -4  -4  112.67   10.47
 -10   4   3  294.65   18.09
  10  -4  -3  358.40   19.99
 -10   4   2    8.89    8.53
  10  -4  -2    3.61    7.99
 -10   4   1   22.34    8.57
  10  -4  -1   32.13    7.54
 -10   4   0   -3.52    7.58
 -10   4  -1   57.49    9.43
 -10   4  -2   84.06    9.70
 -10   4  -3   64.25    8.62
 -10   4  -4  165.01   12.45
 -10   4  -4  149.99    9.48
 -10   4  -5  767.52   36.59
 -10   4  -5  786.02   37.23
 -10   4  -5  913.27   46.79
 -10   4  -6    8.62    7.22
 -10   4  -6  -10.11    7.58
 -10   4  -6   18.68    6.54
 -10   4  -7   35.60    8.53
 -10   4  -7   31.04    8.17
 -10   4  -7   16.02    7.31
 -10   4  -8  271.00   16.79
 -10   4  -8  238.47   15.75
 -10   4  -9   45.39    9.25
 -10   4  -9   36.73    8.53
 -10   4 -10   25.45    9.25
 -10   4 -10   13.18    8.30
 -10   4 -11   79.64    9.88
 -10   4 -11  100.22   12.45
 -10   4 -12  168.85   12.95
 -10   4 -12  154.05   14.48
 -10   4 -13   14.12    8.66
 -10   4 -13   23.73   10.65
 -10   4 -14  175.70   13.04
 -10   4 -14  155.72   14.85
 -10   4 -15   28.56    8.57
 -10   4 -15   21.75   11.46
 -10   4 -16   22.20    8.57
 -10   4 -16   32.49   11.82
 -10   3   9    6.41    9.39
  10  -3  -9    0.45    9.39
  10  -3  -9   -3.84   11.24
 -10   3   8   18.32    8.03
  10  -3  -8  -10.42    8.98
 -10   3   8   -0.99   10.74
  10  -3  -8   11.05    9.70
 -10   3   7   -1.90    7.49
  10  -3  -7    0.23    8.53
 -10   3   7   -3.79    9.66
 -10   3   6  124.13   10.83
  10  -3  -6  118.40   10.29
 -10   3   6  122.05   11.28
 -10   3   5  -14.94    8.44
  10  -3  -5   -9.39    7.40
 -10   3   5    8.84    6.77
 -10   3   4  381.14   20.80
  10  -3  -4  372.80   19.94
 -10   3   4  351.05   19.31
 -10   3   3   87.36   10.56
  10  -3  -3   77.52    9.79
 -10   3   3   71.34    5.69
 -10   3   2  123.90   11.55
  10  -3  -2  162.66   12.59
 -10   3   1   73.64    9.02
  10  -3  -1   63.04    8.35
 -10   3   0    4.51    7.22
 -10   3  -1    7.81    7.04
 -10   3  -2   72.01    8.89
 -10   3  -3  472.88   23.96
 -10   3  -3  437.77   22.65
 -10   3  -3  432.22   22.65
 -10   3  -4  291.71   17.33
 -10   3  -4  294.47   16.79
 -10   3  -5   29.10    8.48
 -10   3  -5   29.10    6.68
 -10   3  -5   32.67    6.72
 -10   3  -6   13.49    7.99
 -10   3  -6    3.34    7.76
 -10   3  -6   -0.86    6.41
 -10   3  -7  130.85   11.28
 -10   3  -7  109.47   10.56
 -10   3  -8   10.65    8.17
 -10   3  -8   13.72    7.63
 -10   3  -9  262.38   16.56
 -10   3  -9  263.69   18.27
 -10   3 -10    1.44    8.98
 -10   3 -10    8.62    9.70
 -10   3 -11   30.19    9.11
 -10   3 -11   29.65    9.84
 -10   3 -12   69.44    9.93
 -10   3 -12   64.25   10.42
 -10   3 -13  126.79   10.74
 -10   3 -13  108.25   12.18
 -10   3 -14  113.12   11.28
 -10   3 -14  123.36   13.72
 -10   3 -15    5.28    8.44
 -10   3 -15   19.09   10.87
 -10   3 -16   31.77    8.75
 -10   3 -16   31.45   11.46
 -10   2   9    1.76    9.11
  10  -2  -9    8.21    9.20
 -10   2   9   -2.30   12.68
  10  -2  -9    8.62   12.77
 -10   2   8   14.17    8.30
  10  -2  -8   -8.12    8.71
 -10   2   8    8.57   11.78
  10  -2  -8  -10.24   10.15
 -10   2   7   48.01    8.84
  10  -2  -7   22.38    8.26
 -10   2   7   32.67    9.93
 -10   2   6    6.45    9.11
  10  -2  -6   17.55    7.99
 -10   2   6    9.61    9.79
 -10   2   5  189.29   13.22
  10  -2  -5  178.73   12.95
 -10   2   5  166.82   13.85
 -10   2   4   76.48   10.42
  10  -2  -4   96.74   10.38
 -10   2   4   90.69    9.48
 -10   2   3  202.15   13.58
  10  -2  -3  186.71   12.95
 -10   2   3  177.37   11.96
 -10   2   2   49.36    8.35
  10  -2  -2   25.99    7.45
 -10   2   2   35.24    5.78
 -10   2   1   25.63    7.63
  10  -2  -1   27.70    8.21
 -10   2   1   16.29    4.56
 -10   2   0   -1.99    7.45
 -10   2   0   15.93    4.47
 -10   2  -1  142.81   11.33
 -10   2  -1  143.98    8.98
 -10   2  -1  166.45    9.70
 -10   2  -2   22.74    8.62
 -10   2  -2   15.88    5.28
 -10   2  -2   10.65    4.29
 -10   2  -3   73.41    9.75
 -10   2  -3   68.99    7.04
 -10   2  -3   69.85    6.50
 -10   2  -4  135.55   11.78
 -10   2  -4  114.02    9.34
 -10   2  -5    2.35    7.94
 -10   2  -5   13.63    6.72
 -10   2  -6  218.39   14.44
 -10   2  -6  209.77   13.63
 -10   2  -6  208.64   14.57
 -10   2  -7   40.29    7.81
 -10   2  -7   30.46    8.57
 -10   2  -8  180.71   13.45
 -10   2  -8  178.55   14.08
 -10   2  -9  118.13   11.01
 -10   2  -9  129.59   13.49
 -10   2 -10    8.71    8.98
 -10   2 -10   23.91    9.79
 -10   2 -11   13.63    8.89
 -10   2 -11   20.26    9.84
 -10   2 -12   39.53    8.62
 -10   2 -12   62.09   11.15
 -10   2 -13  563.12   28.07
 -10   2 -13  565.38   32.26
 -10   2 -14    6.18    7.45
 -10   2 -14    1.90   11.01
 -10   2 -15    1.31    8.17
 -10   2 -15   -6.00   10.06
 -10   2 -16    7.90    8.35
 -10   2 -16    7.72   10.83
 -10   2 -17   39.98    8.17
 -10   2 -17   45.66   11.73
 -10   1   9   16.38    9.61
  10  -1  -9   15.48    8.93
 -10   1   9   -8.71   11.91
  10  -1  -9    1.40   12.54
 -10   1   8   11.55    8.66
  10  -1  -8   21.66    9.25
 -10   1   8    0.54   12.59
  10  -1  -8   -3.07   10.74
 -10   1   7   57.98    9.11
  10  -1  -7   51.89    9.34
 -10   1   7   77.70   12.32
  10  -1  -7   74.77   10.69
 -10   1   6  121.78   11.42
  10  -1  -6  143.31   11.28
 -10   1   6  128.82   12.77
 -10   1   5   71.83   10.20
  10  -1  -5   62.31    8.98
 -10   1   5   57.21   10.15
 -10   1   4    8.30    8.84
  10  -1  -4   13.22    7.17
 -10   1   4   11.87    7.99
 -10   1   3  133.56   12.23
  10  -1  -3  116.96   11.37
 -10   1   3  152.15   11.55
 -10   1   2  269.15   17.15
  10  -1  -2  284.09   17.15
 -10   1   2  286.88   17.15
 -10   1   1 1528.73   68.59
  10  -1  -1 1632.96   72.83
 -10   1   1 1439.39   72.60
 -10   1   0   -0.18    7.63
 -10   1   0   -3.20    5.10
 -10   1  -1   30.10    8.03
 -10   1  -1   22.38    5.55
 -10   1  -2 1165.05   52.93
 -10   1  -2 1249.88   63.17
 -10   1  -3   81.44    8.93
 -10   1  -3   69.04    7.72
 -10   1  -3   97.55    8.17
 -10   1  -4  469.27   23.64
 -10   1  -4  444.27   24.86
 -10   1  -5  237.39   14.89
 -10   1  -5  238.38   15.57
 -10   1  -6  531.54   26.94
 -10   1  -6  477.84   24.41
 -10   1  -6  510.78   28.29
 -10   1  -7  124.67   11.24
 -10   1  -7  106.17   11.15
 -10   1  -8   12.14    8.26
 -10   1  -8    2.75    7.54
 -10   1  -9   25.49    8.26
 -10   1  -9   38.31    8.62
 -10   1 -10    9.02    9.20
 -10   1 -10   16.24    7.90
 -10   1 -11   87.67   11.15
 -10   1 -11   43.68    9.30
 -10   1 -12  741.35   35.47
 -10   1 -12  721.95   39.21
 -10   1 -13   44.54    9.11
 -10   1 -13   23.73    8.71
 -10   1 -14  165.82   12.27
 -10   1 -14  202.55   16.33
 -10   1 -15   -0.63    8.30
 -10   1 -15   13.09   11.15
 -10   1 -16   -6.81    8.35
 -10   1 -16    5.73   10.60
 -10   1 -17   13.22    7.35
 -10   1 -17  -14.03   10.87
 -10   0   9   -2.08    9.97
  10   0  -9   -1.22    8.39
 -10   0   9   21.79   13.85
  10   0  -9    1.49   12.05
 -10   0   8   26.62    9.16
  10   0  -8   23.69    9.16
 -10   0   8   73.77   13.31
  10   0  -8   48.82   11.42
 -10   0   7   25.95    9.66
  10   0  -7   40.38    9.16
 -10   0   7   34.56   11.64
  10   0  -7   32.89    9.20
 -10   0   6   57.49    9.48
  10   0  -6   41.20    9.20
 -10   0   6   16.97    9.34
 -10   0   5   74.77    9.20
  10   0  -5   71.52    9.70
 -10   0   5   86.59   11.05
 -10   0   4  334.98   19.04
  10   0  -4  302.90   17.69
 -10   0   4  307.42   18.86
 -10   0   3   73.23    9.30
  10   0  -3  104.37   10.60
 -10   0   3   64.98    9.61
 -10   0   2   50.04    8.57
  10   0  -2   57.17    8.98
 -10   0   2   53.29    8.48
 -10   0   1   36.95    8.17
  10   0  -1   36.32    8.44
 -10   0   1   36.91    6.77
 -10   0   0   87.99    9.75
 -10   0   0  110.95    8.98
 -10   0  -1  154.05   11.78
 -10   0  -1  155.76   10.87
 -10   0  -2   30.23    8.12
 -10   0  -2   28.56    6.45
 -10   0  -3  245.64   15.52
 -10   0  -3  213.07   13.49
 -10   0  -4   -4.33    7.26
 -10   0  -5  982.75   45.62
 -10   0  -5  985.91   51.08
 -10   0  -6   42.28    9.07
 -10   0  -6   58.21    9.52
 -10   0  -6   52.61    8.26
 -10   0  -7   36.19    8.84
 -10   0  -7   36.05    8.03
 -10   0  -8   91.60   10.47
 -10   0  -8   85.51    9.39
 -10   0  -9  351.63   20.21
 -10   0  -9  365.22   22.15
 -10   0 -10  222.45   15.34
 -10   0 -10  216.81   15.79
 -10   0 -11  252.95   16.33
 -10   0 -11  281.74   18.73
 -10   0 -12  255.39   16.24
 -10   0 -12  227.55   17.42
 -10   0 -13   94.17   10.06
 -10   0 -13   90.79   12.45
 -10   0 -14  180.04   13.36
 -10   0 -14  188.02   15.79
 -10   0 -15    4.87    8.53
 -10   0 -15    6.18    9.39
 -10   0 -16    3.61    9.11
 -10   0 -16   39.53   10.83
 -10   0 -17   -6.27    8.21
 -10   0 -17   -7.67    9.97
 -10  -1   9   56.99   10.29
  10   1  -9   33.44    9.39
 -10  -1   9   27.70   14.66
  10   1  -9   47.87   11.82
 -10  -1   8   -5.91    8.44
  10   1  -8   -1.22    9.57
 -10  -1   8  -14.03   12.68
  10   1  -8   -3.93   10.15
 -10  -1   7   28.25    9.43
  10   1  -7   39.30    8.80
 -10  -1   7   61.91   11.82
  10   1  -7   64.34   10.33
 -10  -1   6  303.44   18.27
  10   1  -6  277.36   16.47
 -10  -1   6  302.90   19.58
 -10  -1   5  232.51   15.43
  10   1  -5  218.30   14.21
 -10  -1   5  228.77   15.75
 -10  -1   4  343.33   19.49
  10   1  -4  339.90   19.09
 -10  -1   4  328.94   20.08
 -10  -1   3   59.92    8.98
  10   1  -3   29.78    8.62
 -10  -1   3   39.44    8.53
 -10  -1   2  250.92   16.29
  10   1  -2  213.38   14.17
 -10  -1   2  229.94   15.75
 -10  -1   1   -4.47    7.45
  10   1  -1    4.11    7.13
 -10  -1   1    4.15    6.59
 -10  -1   0  137.58   11.64
 -10  -1   0  130.76   10.74
 -10  -1  -1   13.54    6.63
 -10  -1  -1   14.66    6.27
 -10  -1  -2   16.97    7.58
 -10  -1  -2   31.81    6.50
 -10  -1  -3   23.06    6.86
 -10  -1  -3   21.97    6.68
 -10  -1  -4  707.96   33.62
 -10  -1  -5   14.75    7.31
 -10  -1  -5   -3.88    6.45
 -10  -1  -6   59.92    8.84
 -10  -1  -6   52.93    8.35
 -10  -1  -6   90.29    9.07
 -10  -1  -7  172.09   13.27
 -10  -1  -7  176.47   13.63
 -10  -1  -8   94.58   10.42
 -10  -1  -8   81.49    9.79
 -10  -1  -9  180.89   13.27
 -10  -1  -9  169.57   14.30
 -10  -1 -10  180.22   14.08
 -10  -1 -10  207.24   16.70
 -10  -1 -11  112.58   12.00
 -10  -1 -11  122.78   12.95
 -10  -1 -12   -1.71    7.63
 -10  -1 -12  -10.51    9.61
 -10  -1 -14    2.93    7.35
 -10  -1 -14    8.35    9.16
 -10  -1 -15   16.38    7.49
 -10  -1 -15   -2.35    9.84
 -10  -1 -16   24.28    8.21
 -10  -1 -16   32.40    9.88
 -10  -1 -17   41.20    8.62
 -10  -1 -17   42.69   10.24
 -10  -2   9   -4.65    8.48
  10   2  -9    8.71    8.98
 -10  -2   9   -4.65   12.90
  10   2  -9    5.32   10.20
 -10  -2   8    3.47    7.67
  10   2  -8   -8.98    8.66
 -10  -2   8    8.17   12.45
  10   2  -8   -5.05   10.06
 -10  -2   7   37.63    9.07
  10   2  -7   37.68    9.20
 -10  -2   7   37.41   11.46
  10   2  -7   25.00    8.93
 -10  -2   6   55.86    9.66
  10   2  -6   55.18    9.20
 -10  -2   6   53.02   11.05
 -10  -2   5  137.94   11.78
  10   2  -5  159.69   12.05
 -10  -2   5  161.63   13.85
 -10  -2   4   15.75    7.90
  10   2  -4    4.11    7.85
 -10  -2   4    7.35    8.26
 -10  -2   3  321.31   18.00
  10   2  -3  322.49   18.64
 -10  -2   3  382.36   22.70
 -10  -2   2   11.05    7.13
  10   2  -2    7.85    7.08
 -10  -2   2    0.00    7.22
 -10  -2   1  325.33   18.36
  10   2  -1  333.32   18.73
 -10  -2   1  387.06   22.38
 -10  -2   0  136.09   11.37
 -10  -2   0  158.20   12.23
 -10  -2  -1   14.53    8.35
 -10  -2  -1   34.02    6.99
 -10  -2  -2   34.83    8.12
 -10  -2  -2   57.53    7.45
 -10  -2  -3  118.81   10.74
 -10  -2  -3  135.41   10.65
 -10  -2  -4   47.51    8.17
 -10  -2  -5   95.43    9.88
 -10  -2  -5  111.90    9.79
 -10  -2  -7  106.94   10.96
 -10  -2  -7  123.81   12.14
 -10  -2  -8   28.88    8.62
 -10  -2  -8   18.27    9.43
 -10  -2  -9   23.28    8.48
 -10  -2  -9   33.12    9.20
 -10  -2 -10   46.34    9.70
 -10  -2 -10   46.97   10.15
 -10  -2 -11  259.86   16.60
 -10  -2 -11  277.36   18.82
 -10  -2 -12  610.50   30.41
 -10  -2 -12  592.00   32.85
 -10  -2 -13  226.92   15.12
 -10  -2 -13  211.62   15.48
 -10  -2 -14   72.60   10.56
 -10  -2 -14   69.80   10.87
 -10  -2 -15   25.67    8.93
 -10  -2 -15   15.57    9.52
 -10  -2 -16    0.95    8.53
 -10  -2 -16  -10.15   10.20
 -10  -2 -17   32.58    8.57
 -10  -2 -17   32.89    9.70
 -10  -3   9  -13.31    9.39
  10   3  -9    6.50    9.34
 -10  -3   9    6.68   12.81
  10   3  -9    0.63   10.74
 -10  -3   8   59.79    9.57
  10   3  -8   54.82    9.88
 -10  -3   8   38.99   11.33
  10   3  -8   54.28   12.27
 -10  -3   7   -0.45    9.16
  10   3  -7    9.02    9.34
 -10  -3   7   -7.85   10.87
  10   3  -7   -4.65    9.52
 -10  -3   6  154.72   12.41
  10   3  -6  123.45   11.42
 -10  -3   6  134.28   13.45
 -10  -3   5   57.35    9.97
  10   3  -5   51.75    8.75
 -10  -3   5   39.39    9.52
 -10  -3   4   88.35   10.69
  10   3  -4   92.59    9.79
 -10  -3   4  125.98   12.90
 -10  -3   3   28.11    9.66
  10   3  -3   36.46    8.44
 -10  -3   3   44.58    9.75
 -10  -3   2   18.73    8.39
  10   3  -2   -1.08    7.72
 -10  -3   2   16.06    8.12
 -10  -3   1  241.04   15.30
  10   3  -1  234.45   15.21
 -10  -3   1  236.12   15.88
 -10  -3   0   26.04    7.04
 -10  -3   0   18.95    7.31
 -10  -3  -1   53.92    7.99
 -10  -3  -1   60.19    7.85
 -10  -3  -2   80.54    8.62
 -10  -3  -2   70.39    8.21
 -10  -3  -3   70.30    8.48
 -10  -3  -3   76.62    8.89
 -10  -3  -4    2.39    6.27
 -10  -3  -5  596.51   29.46
 -10  -3  -5  631.71   30.73
 -10  -3  -6   56.76    8.66
 -10  -3  -6   57.76    8.44
 -10  -3  -7  103.28   10.51
 -10  -3  -8    5.55    8.44
 -10  -3  -8   -1.94    8.17
 -10  -3  -9    5.69    8.66
 -10  -3  -9    2.53    8.08
 -10  -3 -10   13.76    8.62
 -10  -3 -10    1.44    8.30
 -10  -3 -11  202.28   14.66
 -10  -3 -11  200.61   15.03
 -10  -3 -12  390.53   21.39
 -10  -3 -12  347.30   21.79
 -10  -3 -13   33.98    9.84
 -10  -3 -13   60.33   11.05
 -10  -3 -14   99.22   11.28
 -10  -3 -14  109.60   12.27
 -10  -3 -15   -1.31    8.80
 -10  -3 -15   15.39    9.43
 -10  -3 -16   25.81    9.02
 -10  -3 -16   25.13    9.57
 -10  -3 -17    2.26    7.76
  10   3  17   -7.90    6.09
 -10  -3 -17    9.75    8.53
 -10  -4   8   11.69    8.26
  10   4  -8   15.70    8.89
 -10  -4   8    3.61   11.19
  10   4  -8   -3.20   10.83
 -10  -4   7   43.72   10.29
  10   4  -7   49.63   10.69
 -10  -4   7   50.67   10.51
  10   4  -7   48.91   10.02
 -10  -4   6   40.34    8.93
  10   4  -6   43.90    9.34
 -10  -4   6   61.82   10.96
 -10  -4   5    8.80    8.98
  10   4  -5    3.61    7.72
 -10  -4   5   -2.17    9.70
 -10  -4   4  109.65   11.10
  10   4  -4  124.45   10.74
 -10  -4   4  128.78   12.32
 -10  -4   3    8.62    7.90
  10   4  -3    0.18    8.21
 -10  -4   3    2.53    9.16
 -10  -4   2  110.50   10.65
  10   4  -2  151.47   11.87
 -10  -4   2   90.29   10.20
 -10  -4   1   64.12    9.88
 -10  -4   1  101.98   11.15
 -10  -4   0  348.39   19.54
 -10  -4   0  354.88   21.66
 -10  -4  -1    0.23    8.12
 -10  -4  -1    6.00    7.31
 -10  -4  -2   49.41    8.35
 -10  -4  -2   63.04    8.75
 -10  -4  -3   15.07    7.45
 -10  -4  -3   12.95    6.77
 -10  -4  -4  242.26   14.94
 -10  -4  -4  237.25   15.70
 -10  -4  -5  368.87   19.72
 -10  -4  -5  328.49   18.27
 -10  -4  -6  158.38   11.60
 -10  -4  -6  177.15   12.54
 -10  -4  -7   66.06    9.07
 -10  -4  -8   54.73    8.75
 -10  -4  -9  571.24   28.56
 -10  -4  -9  670.96   36.46
 -10  -4 -10   14.80    8.75
 -10  -4 -10   22.02    8.39
 -10  -4 -11  166.18   13.22
 -10  -4 -11  151.84   13.72
 -10  -4 -12    9.25    8.71
 -10  -4 -12   -5.91   10.06
 -10  -4 -13  288.10   17.10
 -10  -4 -13  249.66   18.18
 -10  -4 -14   58.07   10.38
 -10  -4 -14   76.48   11.19
 -10  -4 -15   17.87    8.44
 -10  -4 -15    0.63    8.98
 -10  -4 -16   14.39    8.98
 -10  -4 -16  -10.83    9.75
 -10  -4 -17   36.64    7.58
  10   4  17   17.33    7.67
 -10  -4 -17   39.57   10.47
 -10  -5   8   12.54    9.79
  10   5  -8    2.57    8.66
 -10  -5   8   11.15   10.15
  10   5  -8   15.97    8.44
 -10  -5   7   14.21    9.48
  10   5  -7   -9.20    8.57
 -10  -5   7    0.14   11.10
 -10  -5   6  -10.11    8.98
  10   5  -6   23.10    9.30
 -10  -5   6   16.74    9.52
 -10  -5   5  177.69   13.45
  10   5  -5  183.92   13.31
 -10  -5   5  178.32   14.62
 -10  -5   4   16.24    8.21
  10   5  -4   22.02    8.21
 -10  -5   4    3.34    8.44
 -10  -5   3   28.07    9.25
  10   5  -3   22.06    8.30
 -10  -5   3   22.92    8.93
 -10  -5   2   -2.26    7.63
  10   5  -2  -10.15    7.17
 -10  -5   2   11.19    8.39
 -10  -5   1  237.88   14.80
 -10  -5   1  253.77   17.15
 -10  -5   0  165.42   11.46
 -10  -5   0  193.30   13.94
 -10  -5  -1   77.93    8.71
 -10  -5  -1   83.25   10.47
 -10  -5  -2  160.54   11.46
 -10  -5  -2  138.66   11.87
 -10  -5  -3   -2.71    6.95
 -10  -5  -3   -1.53    7.13
 -10  -5  -4  794.14   37.59
 -10  -5  -4  780.16   37.14
 -10  -5  -4  750.38   40.47
 -10  -5  -5   29.46    7.94
 -10  -5  -5   10.33    8.39
 -10  -5  -6  441.02   23.10
 -10  -5  -6  437.19   23.19
 -10  -5  -7   -0.41    7.31
 -10  -5  -8    4.69    7.67
 -10  -5  -9   59.61    9.48
 -10  -5  -9   56.45    9.02
 -10  -5 -10   23.19    8.66
 -10  -5 -10   46.79   10.06
 -10  -5 -11  106.53   10.96
 -10  -5 -11   94.98   11.69
 -10  -5 -12  163.39   12.86
 -10  -5 -12  136.76   12.86
 -10  -5 -13  267.89   16.74
 -10  -5 -13  277.82   18.45
 -10  -5 -14   32.89    9.66
 -10  -5 -14   22.97    9.52
 -10  -5 -15   -9.70    8.80
 -10  -5 -15    0.00    8.17
 -10  -5 -16    6.86    8.26
 -10  -5 -16    1.85    8.80
 -10  -5 -17   -3.34    8.08
  10   5  17   -2.53    7.67
 -10  -5 -17   14.12    8.39
 -10  -6   8   -4.74   11.46
 -10  -6   8    2.12   10.65
 -10  -6   7   43.36    9.75
  10   6  -7   28.11    9.66
 -10  -6   7   -1.62   10.65
 -10  -6   6  104.73   11.87
  10   6  -6  101.21   10.78
 -10  -6   6   74.04   11.96
 -10  -6   5   27.57    9.34
  10   6  -5   32.44    9.16
 -10  -6   5   20.21   10.24
 -10  -6   4   24.14    8.66
  10   6  -4   10.69    8.17
 -10  -6   4    7.58    9.39
 -10  -6   3   88.53    9.75
  10   6  -3   66.74    9.34
 -10  -6   3   88.80   11.05
 -10  -6   2   78.24    9.88
 -10  -6   2   98.46   10.65
 -10  -6   1  353.44   19.67
 -10  -6   1  319.37   20.08
 -10  -6   0   45.03    9.07
 -10  -6   0   45.26    8.35
 -10  -6  -1   68.00    8.44
 -10  -6  -1   54.24    8.93
 -10  -6  -2   53.83    7.58
 -10  -6  -2   47.47    8.48
 -10  -6  -3  611.40   29.10
 -10  -6  -3  685.85   37.41
 -10  -6  -4   19.54    6.63
 -10  -6  -4   13.99    7.90
 -10  -6  -4   29.46    9.07
 -10  -6  -5  457.08   23.33
 -10  -6  -5  450.00   22.52
 -10  -6  -6  105.99    9.79
 -10  -6  -6  124.99    9.97
 -10  -6  -7   22.43    8.03
 -10  -6  -8  293.02   17.51
 -10  -6  -9    4.56    7.94
 -10  -6 -10  313.10   18.27
 -10  -6 -10  285.62   18.73
 -10  -6 -11   75.22    9.93
 -10  -6 -11   74.14   10.02
 -10  -6 -12  341.44   19.72
 -10  -6 -12  347.80   21.70
 -10  -6 -13   12.54    8.89
 -10  -6 -13    6.81    9.57
 -10  -6 -14  101.21   11.78
 -10  -6 -14  105.40   11.51
 -10  -6 -15   -4.06    8.62
 -10  -6 -15   -4.74    8.66
 -10  -6 -16   24.14    8.66
 -10  -6 -16   14.66   10.60
 -10  -6 -17   -1.58    7.85
  10   6  17   -1.62    6.77
 -10  -6 -17    1.31    9.02
 -10  -7   7   20.71   10.87
  10   7  -7   20.08    9.20
 -10  -7   7   13.54   11.15
 -10  -7   6  216.00   15.03
  10   7  -6  190.91   14.12
 -10  -7   6  168.12   14.35
 -10  -7   5    9.93    9.02
  10   7  -5    2.44    9.25
 -10  -7   5    3.56    9.52
 -10  -7   4  140.19   12.68
  10   7  -4  166.63   12.59
 -10  -7   4  171.10   14.53
 -10  -7   3   -2.03    8.35
  10   7  -3   10.56    7.72
 -10  -7   3   19.04    9.16
 -10  -7   2   26.13    8.12
 -10  -7   2   -3.65    9.20
 -10  -7   1  107.30    9.79
 -10  -7   1   92.77   10.78
 -10  -7   0  270.55   15.34
 -10  -7   0  283.77   18.68
 -10  -7  -1   27.25    7.26
 -10  -7  -1   36.41    8.93
 -10  -7  -2  167.31   11.82
 -10  -7  -2  133.02   11.64
 -10  -7  -3   68.77    7.90
 -10  -7  -3   74.45    8.39
 -10  -7  -3   56.09    8.66
 -10  -7  -4  192.53   12.41
 -10  -7  -4  195.11   13.45
 -10  -7  -4  198.31   14.48
 -10  -7  -5  302.63   16.83
 -10  -7  -5  301.55   17.42
 -10  -7  -5  286.39   18.68
 -10  -7  -6   41.11    8.08
 -10  -7  -6   50.18    8.12
 -10  -7  -7   41.47    8.84
 -10  -7  -7   40.79    8.57
 -10  -7  -8   11.60    7.90
 -10  -7  -9   -2.21    7.54
 -10  -7 -10   54.69    9.30
 -10  -7 -11  305.93   17.82
 -10  -7 -11  304.44   19.45
 -10  -7 -12  281.83   16.83
 -10  -7 -12  258.46   17.82
 -10  -7 -13  396.98   21.66
 -10  -7 -13  365.58   21.88
 -10  -7 -14  123.27   12.09
 -10  -7 -14   98.14   11.60
 -10  -7 -15   20.89    9.75
 -10  -7 -15   25.18    8.89
 -10  -7 -16   22.52    8.93
 -10  -7 -16   -1.58    9.16
 -10  -8   6    8.35    9.57
  10   8  -6  -10.11   10.11
 -10  -8   6    9.16   10.15
 -10  -8   5   64.57   11.28
  10   8  -5   52.66   10.65
 -10  -8   5   63.67   11.78
 -10  -8   4   31.22    9.02
  10   8  -4    8.89    7.81
 -10  -8   4   16.02    9.39
 -10  -8   3   27.03    8.62
 -10  -8   3   37.63    9.30
 -10  -8   2   84.96    9.84
 -10  -8   2   79.14   10.60
 -10  -8   1  100.49    9.84
 -10  -8   1   83.97   10.74
 -10  -8   0   48.73    8.62
 -10  -8   0   68.40    9.79
 -10  -8  -1   53.51    8.12
 -10  -8  -1   48.91    9.57
 -10  -8  -2   54.28    7.49
 -10  -8  -2   51.89    8.66
 -10  -8  -3    1.31    6.59
 -10  -8  -3    7.76    6.72
 -10  -8  -3   12.45    7.31
 -10  -8  -4  357.05   18.64
 -10  -8  -4  318.74   16.92
 -10  -8  -4  337.38   20.76
 -10  -8  -5   24.46    7.04
 -10  -8  -5   26.22    6.81
 -10  -8  -5   25.85    8.84
 -10  -8  -6    6.99    6.99
 -10  -8  -6   -0.90    6.41
 -10  -8  -7    5.46    6.23
 -10  -8  -7   -6.77    7.72
 -10  -8  -8   60.60    8.98
 -10  -8  -9   15.97    7.94
 -10  -8 -10    8.57    7.94
 -10  -8 -11  746.77   35.60
 -10  -8 -11  735.03   39.71
 -10  -8 -12   43.23    9.11
 -10  -8 -12   43.68    9.52
 -10  -8 -13  499.50   25.90
 -10  -8 -13  430.33   25.90
 -10  -8 -14   13.09    9.57
 -10  -8 -14   10.42    8.62
 -10  -8 -15   33.71    9.70
 -10  -8 -15   35.10    9.52
 -10  -8 -16    0.09    9.25
 -10  -8 -16   -3.56    8.84
 -10  -9   6   15.57   10.83
  10   9  -6   -7.04   10.92
 -10  -9   6   22.97   10.83
 -10  -9   5   37.14   10.06
  10   9  -5   31.31    9.97
 -10  -9   5   48.60   10.42
 -10  -9   4   -1.08   10.33
 -10  -9   4    4.96    9.39
 -10  -9   3   -6.23    8.93
 -10  -9   3    8.53    9.75
 -10  -9   2    8.84    9.25
 -10  -9   2   20.53    8.57
 -10  -9   1   79.46   10.11
 -10  -9   1   97.91   11.28
 -10  -9   0   15.97    8.26
 -10  -9   0   16.24    8.48
 -10  -9  -1   28.47    8.21
 -10  -9  -1   71.20   10.69
 -10  -9  -2    2.75    6.68
 -10  -9  -2   -1.71    6.86
 -10  -9  -2   23.60    9.02
 -10  -9  -3  275.69   17.78
 -10  -9  -4  258.59   14.75
 -10  -9  -4  259.72   14.71
 -10  -9  -4  272.85   17.87
 -10  -9  -5   74.99    8.57
 -10  -9  -5   89.34    8.80
 -10  -9  -5   71.20    9.43
 -10  -9  -6  375.73   20.08
 -10  -9  -6  373.34   19.54
 -10  -9  -6  366.07   22.11
 -10  -9  -7    7.94    7.99
 -10  -9  -7   13.85    6.90
 -10  -9  -8   21.97    8.12
 -10  -9  -8   21.93    7.26
 -10  -9  -9  151.52   11.82
 -10  -9 -10   96.88   10.29
 -10  -9 -11   49.05    9.25
 -10  -9 -11   68.09    8.21
 -10  -9 -12  192.44   13.85
 -10  -9 -12  200.43   14.80
 -10  -9 -13   28.07    9.11
 -10  -9 -13   22.83    8.71
 -10  -9 -14  108.74   12.05
 -10  -9 -14  117.45   11.87
 -10  -9 -15   -7.94   10.51
 -10  -9 -15  -11.91    8.75
 -10  -9 -16   -7.04   10.65
 -10  -9 -16   -2.21    8.39
 -10 -10   5   -4.60   11.51
 -10 -10   5    2.26   10.78
 -10 -10   4   18.23   11.33
 -10 -10   4    6.68    9.30
 -10 -10   3    7.17   10.56
 -10 -10   3   13.18    9.02
 -10 -10   2   -7.94    9.79
 -10 -10   2   -2.66    8.66
 -10 -10   1   87.36   10.69
 -10 -10   1   97.64   11.42
 -10 -10   0  195.29   13.36
 -10 -10   0  183.56   14.03
 -10 -10  -1  121.02   10.51
 -10 -10  -1  102.47    9.57
 -10 -10  -1  114.38   11.73
 -10 -10  -2   18.27    7.22
 -10 -10  -2    3.56    6.99
 -10 -10  -2   17.60    8.08
 -10 -10  -3  710.67   33.16
 -10 -10  -3  758.95   35.29
 -10 -10  -3  670.06   36.41
 -10 -10  -4  217.94   13.27
 -10 -10  -4  260.35   15.34
 -10 -10  -4  204.99   14.62
 -10 -10  -5  102.43    9.48
 -10 -10  -5  105.00    9.30
 -10 -10  -5   92.82   10.11
 -10 -10  -6   54.78    8.21
 -10 -10  -6   42.69    7.90
 -10 -10  -6   38.44    8.30
 -10 -10  -7   16.88    7.67
 -10 -10  -7    9.57    7.31
 -10 -10  -7    7.85    7.17
 -10 -10  -8   88.08   10.51
 -10 -10  -8   87.94    9.11
 -10 -10  -9   24.19    8.75
 -10 -10 -10   29.19    9.02
 -10 -10 -11   21.48    9.43
 -10 -10 -12   92.18   10.69
 -10 -10 -12  112.26   11.19
 -10 -10 -13   28.97    9.30
 -10 -10 -13   27.48    8.57
 -10 -10 -14    3.61    9.93
 -10 -10 -14   21.57    8.84
 -10 -10 -15    5.64   11.46
 -10 -10 -15   10.11    8.39
 -10 -11   4   21.43   12.32
 -10 -11   4   36.95   10.78
 -10 -11   3   34.34   11.01
 -10 -11   3   34.70    9.79
 -10 -11   2    1.08   10.33
 -10 -11   2   -9.93    7.67
 -10 -11   1   25.49    9.20
 -10 -11   1   20.26    8.62
 -10 -11   0   32.76    7.81
 -10 -11   0   30.95    8.57
 -10 -11   0   36.55    8.89
 -10 -11  -1    2.08    6.54
 -10 -11  -1    1.35    7.94
 -10 -11  -1   -5.60    7.99
 -10 -11  -2  149.35   10.51
 -10 -11  -2  151.29   11.33
 -10 -11  -2  152.60   11.96
 -10 -11  -3   28.25    7.17
 -10 -11  -3   38.80    7.76
 -10 -11  -3   39.35    8.39
 -10 -11  -4   50.40    7.85
 -10 -11  -4   36.77    7.31
 -10 -11  -4   27.61    8.35
 -10 -11  -5  126.21   10.42
 -10 -11  -5  146.92   10.56
 -10 -11  -5  104.68    9.66
 -10 -11  -6   80.54    9.34
 -10 -11  -6   70.84    8.35
 -10 -11  -6   81.54    9.11
 -10 -11  -7   -8.08    7.63
 -10 -11  -7  -21.61    6.77
 -10 -11  -7   -1.40    6.50
 -10 -11  -9   11.05    8.08
 -10 -11  -9    2.21    8.39
 -10 -11 -10    9.16    9.02
 -10 -11 -11  132.70   11.69
 -10 -11 -12   -7.17    9.20
 -10 -11 -12   14.44    8.35
 -10 -11 -13   43.54    9.57
 -10 -11 -13   58.25    9.43
 -10 -11 -14   -6.95    9.25
 -10 -11 -14   -5.60    7.94
 -10 -12   3    4.24   11.05
 -10 -12   3   19.27    9.88
 -10 -12   2    5.05    9.66
 -10 -12   2   -2.66    9.30
 -10 -12   2    6.05    8.57
 -10 -12   1  126.34   11.91
 -10 -12   1  120.02   11.87
 -10 -12   1  133.97   11.73
 -10 -12   0   79.78    9.52
 -10 -12   0   96.70   11.05
 -10 -12   0   90.42   10.11
 -10 -12  -1  226.51   13.54
 -10 -12  -1  230.21   14.03
 -10 -12  -1  199.93   13.99
 -10 -12  -2    6.18    6.99
 -10 -12  -2    5.10    6.86
 -10 -12  -2    3.97    7.63
 -10 -12  -3   94.58    8.93
 -10 -12  -3   98.41    9.11
 -10 -12  -3  108.02   10.20
 -10 -12  -4  139.02   10.65
 -10 -12  -4  138.39   10.83
 -10 -12  -4  132.34   11.19
 -10 -12  -5    3.38    7.54
 -10 -12  -5    3.34    7.26
 -10 -12  -5   18.95    8.39
 -10 -12  -6   -2.12    8.03
 -10 -12  -6    2.75    7.17
 -10 -12  -6    7.94    7.04
 -10 -12  -7    4.15    8.21
 -10 -12  -7    4.65    7.22
 -10 -12  -7   -0.63    7.17
 -10 -12  -8  208.55   14.30
 -10 -12  -8  186.85   13.58
 -10 -12  -8  203.50   14.17
 -10 -12  -9   10.24    9.07
 -10 -12  -9   14.80    9.34
 -10 -12 -10  102.11   11.64
 -10 -12 -11   25.40    9.75
 -10 -12 -12   92.86   11.55
 -10 -12 -12   96.79   10.69
 -10 -12 -13   39.48   11.01
 -10 -12 -13   37.09    8.48
 -10 -13   2    5.41   10.02
 -10 -13   2  -11.73   10.60
 -10 -13   2    7.76    9.20
 -10 -13   1   -0.45    7.45
 -10 -13   1   -1.94    7.67
 -10 -13   0   62.31    9.97
 -10 -13  -1   72.65    9.39
 -10 -13  -2   16.60    7.40
 -10 -13  -3  183.15   13.27
 -10 -13  -4   -1.40    6.68
 -10 -13  -4   -1.40    5.82
 -10 -13  -4   -1.62    7.08
 -10 -13  -5   36.91    8.12
 -10 -13  -5   48.05    6.99
 -10 -13  -5   53.06    8.26
 -10 -13  -6    8.44    8.30
 -10 -13  -6    4.11    6.95
 -10 -13  -6    3.38    6.77
 -10 -13  -7  153.78   12.00
 -10 -13  -8   90.33   11.69
 -10 -13  -8   99.18   10.42
 -10 -13  -8   81.72    9.93
 -10 -13  -9   99.22   12.00
 -10 -13  -9  123.95   11.33
 -10 -13  -9  110.41   10.60
 -10 -13 -10   59.83   11.05
 -10 -13 -10   40.20   10.65
 -10 -13 -11   30.14   11.19
 -10 -13 -12  171.37   16.20
 -10 -13 -12  177.55   12.72
 -10 -14   0   84.38   10.20
 -10 -14  -1   10.11    8.03
 -10 -14  -2   64.48    9.48
 -10 -14  -3   82.89   10.92
 -10 -14  -4  110.23   11.33
 -10 -14  -5   -0.59    7.72
 -10 -14  -6   13.90    8.35
 -10 -14  -7    2.39    7.54
 -10 -14  -7    2.84    7.13
 -10 -14  -7    1.76    7.26
 -10 -14  -8   -6.72    9.39
 -10 -14  -8    6.00    7.99
 -10 -14  -8   -4.60    7.13
 -10 -14  -9  171.19   12.18
 -10 -14 -10  -20.03   14.08
 -10 -14 -10   -9.57    9.30
 -10 -14 -10    2.08    7.40
 -10 -14 -11   80.63   17.06
 -10 -14 -11   99.63   12.68
 -10 -15  -3   38.17   10.47
 -10 -15  -4   81.17   10.11
 -10 -15  -5   20.17    8.93
 -10 -15  -6   48.19    8.84
 -10 -15  -7   -5.32    7.35
 -10 -15  -8   90.38   10.15
 -11  12   1  199.21   13.85
 -11  12   0   20.53    8.62
 -11  12  -1  184.82   12.95
 -11  12  -2  -13.99    8.08
 -11  12  -2   -0.68    8.21
 -11  12  -3   23.42    9.39
 -11  12  -3   14.57    8.93
 -11  12  -4   17.42    8.66
 -11  12  -4   16.83    8.89
 -11  12  -5  112.26   11.42
 -11  12  -5  116.10   11.69
 -11  12  -6   11.69    9.30
 -11  12  -6   32.22    9.07
 -11  12  -7   10.11    9.79
 -11  12  -7   33.39    9.34
 -11  11   3    0.41    7.26
 -11  11   2   64.93    9.02
 -11  11   1    2.66    7.63
 -11  11   0   90.92   10.20
 -11  11  -1   62.45    8.80
 -11  11  -2   12.14    8.12
 -11  11  -3   38.58    8.62
 -11  11  -3   43.86    8.93
 -11  11  -4   36.55    8.44
 -11  11  -4   32.62    8.30
 -11  11  -5   62.81    9.39
 -11  11  -5   61.59    9.07
 -11  11  -6   27.89    8.75
 -11  11  -6   29.69    8.98
 -11  11  -7   90.33   10.60
 -11  11  -7   85.64   10.06
 -11  11  -8   -0.59    9.20
 -11  11  -8   -0.77    7.67
 -11  11  -8    0.05   11.10
 -11  11  -9   65.29   10.42
 -11  11  -9   75.94    9.79
 -11  11  -9   54.82   15.75
 -11  10   4   29.01    8.30
 -11  10   3   67.46    8.80
 -11  10   2   71.70    9.11
 -11  10   1  101.21    9.88
 -11  10   0   91.64    9.39
 -11  10  -1   33.07    7.76
 -11  10  -2  131.17   10.78
 -11  10  -3    7.04    7.81
 -11  10  -4   27.98    8.21
 -11  10  -4   14.21    7.49
 -11  10  -5   63.40    9.48
 -11  10  -5   72.69    8.53
 -11  10  -6   92.59   10.51
 -11  10  -6   74.86    9.11
 -11  10  -7   -3.97    8.75
 -11  10  -7    3.11    8.08
 -11  10  -7   19.18    8.98
 -11  10  -8   12.41    9.16
 -11  10  -8   11.05    7.90
 -11  10  -8   26.49   12.09
 -11  10  -9   79.37   10.60
 -11  10  -9   86.27    9.57
 -11  10  -9   86.95   14.66
 -11  10 -10   59.38   11.05
 -11  10 -10   33.53    8.98
 -11  10 -10   46.84   13.90
 -11  10 -11   57.44   10.38
 -11  10 -11   55.59    9.11
 -11  10 -11   56.27   15.57
 -11   9   5    6.23    7.94
  11  -9  -5   -4.65    6.86
 -11   9   4   20.44    7.99
 -11   9   3   71.29    8.89
 -11   9   2   78.56    9.61
 -11   9   1  126.43   10.87
 -11   9   0   39.48    8.48
 -11   9  -1  418.10   22.11
 -11   9  -2   16.29    8.08
 -11   9  -3   26.71    8.12
 -11   9  -4   13.58    7.26
 -11   9  -4    1.49    7.58
 -11   9  -5  132.25   11.51
 -11   9  -5  142.72   11.10
 -11   9  -6   97.19   10.20
 -11   9  -6   99.99    9.79
 -11   9  -7   38.17    8.84
 -11   9  -7   18.77    7.58
 -11   9  -7   27.21    8.44
 -11   9  -8   78.33    9.79
 -11   9  -8   80.95    9.39
 -11   9  -8   83.34   11.33
 -11   9  -9    3.70    8.57
 -11   9  -9   17.64    8.98
 -11   9  -9    2.48   11.42
 -11   9 -10  124.27   11.60
 -11   9 -10  134.91   11.55
 -11   9 -10  137.80   16.11
 -11   9 -11    1.62    8.89
 -11   9 -11   11.91    7.81
 -11   9 -11   -1.17   13.22
 -11   9 -12   -2.44    9.52
 -11   9 -12   14.62    8.08
 -11   9 -12   11.96   13.22
 -11   8   6    3.16    9.88
  11  -8  -6   -5.19    7.08
 -11   8   5    6.86    8.26
  11  -8  -5   20.49    8.08
 -11   8   4  158.87   12.41
  11  -8  -4  171.55   12.41
 -11   8   3    8.71    8.03
 -11   8   2   74.54    9.97
 -11   8   1   54.06    9.07
 -11   8   0  142.13   11.33
 -11   8  -1   89.88    9.93
 -11   8  -2    9.57    7.72
 -11   8  -3   21.43    7.81
 -11   8  -4   -0.09    6.05
 -11   8  -4    0.18    7.26
 -11   8  -5  767.97   36.14
 -11   8  -5  739.55   35.15
 -11   8  -6   68.31    8.93
 -11   8  -6   95.84    9.97
 -11   8  -6   64.61    6.45
 -11   8  -7  119.84   10.51
 -11   8  -7  103.24   10.06
 -11   8  -7   85.96    9.79
 -11   8  -8    2.80    7.85
 -11   8  -8   -3.20    7.26
 -11   8  -8  -15.07    9.79
 -11   8  -9  208.33   13.76
 -11   8  -9  203.86   13.99
 -11   8  -9  188.34   16.11
 -11   8 -10   -2.53    7.99
 -11   8 -10    3.65    7.22
 -11   8 -10   13.36   12.18
 -11   8 -11    7.72    8.21
 -11   8 -11    2.03    8.44
 -11   8 -11   14.98   11.28
 -11   8 -12   11.37    8.30
 -11   8 -12   -5.60   11.46
 -11   8 -13  -21.07    8.62
 -11   8 -13    5.78   10.60
 -11   7   6    0.90    8.93
  11  -7  -6    0.81    7.76
 -11   7   5   -2.93    8.08
  11  -7  -5   15.79    8.30
 -11   7   4    7.31    8.21
  11  -7  -4   25.76    8.62
 -11   7   3  120.52   11.28
  11  -7  -3  134.78   10.65
 -11   7   2   67.19    9.79
 -11   7   1   85.24    9.66
 -11   7   0   32.71    8.39
 -11   7  -1   22.25    7.49
 -11   7  -2   18.09    7.04
 -11   7  -3   88.26    9.48
 -11   7  -4  661.49   31.59
 -11   7  -5   -0.32    6.95
 -11   7  -5    1.08    7.08
 -11   7  -6  145.83   11.37
 -11   7  -6  118.94   10.29
 -11   7  -6  122.19    9.39
 -11   7  -7  238.65   14.75
 -11   7  -7  215.91   13.67
 -11   7  -7  206.48   14.21
 -11   7  -8   45.71    8.53
 -11   7  -8   39.84    8.71
 -11   7  -8   46.93   10.33
 -11   7  -9   49.18    8.57
 -11   7  -9   40.97    8.57
 -11   7  -9   44.35   11.42
 -11   7 -10   49.81    9.07
 -11   7 -10   68.40    9.61
 -11   7 -10   78.56   13.09
 -11   7 -11   -5.23    7.99
 -11   7 -11    6.72   10.42
 -11   7 -12   11.73    7.54
 -11   7 -12    3.25   11.24
 -11   7 -13   59.11    9.52
 -11   7 -13   45.44   11.60
 -11   7 -14    0.50    8.62
 -11   7 -14   12.27   11.19
 -11   6   7   12.81    9.70
  11  -6  -7    4.47    7.04
 -11   6   6    3.47    8.57
  11  -6  -6   -0.95    7.49
 -11   6   5    2.71    7.58
  11  -6  -5    7.76    8.35
 -11   6   4   56.54    9.11
  11  -6  -4   46.75    8.17
 -11   6   3   44.13    9.02
  11  -6  -3   68.40    9.93
 -11   6   2    4.56    7.72
 -11   6   1  190.41   13.04
 -11   6   0   29.15    8.93
 -11   6  -1  147.05   11.64
 -11   6  -2   -5.32    7.04
 -11   6  -3   19.31    7.17
 -11   6  -4   60.01    8.44
 -11   6  -5  322.40   18.18
 -11   6  -5  327.04   18.18
 -11   6  -6  195.69   13.31
 -11   6  -6  228.63   14.48
 -11   6  -6  238.29   14.35
 -11   6  -7   19.67    7.67
 -11   6  -7   23.37    8.57
 -11   6  -7   12.00    6.86
 -11   6  -8  176.52   12.77
 -11   6  -8  186.80   12.77
 -11   6  -8  207.61   14.89
 -11   6  -9   -2.17    7.40
 -11   6  -9    3.02    7.90
 -11   6  -9    3.02    9.39
 -11   6 -10  128.64   11.19
 -11   6 -10  160.14   14.44
 -11   6 -11   10.87    7.22
 -11   6 -11   39.26   11.69
 -11   6 -12    3.75    8.12
 -11   6 -12    4.96   11.60
 -11   6 -13   27.70    8.44
 -11   6 -13   -1.40   12.00
 -11   6 -14   93.72   10.60
 -11   6 -14   98.59   14.21
 -11   5   7    6.63    9.93
  11  -5  -7   -0.41    7.49
 -11   5   6   26.26    9.97
  11  -5  -6    0.45    7.31
 -11   5   5   22.34    8.57
  11  -5  -5    0.45    7.45
 -11   5   4   32.94    9.30
  11  -5  -4   47.33    8.62
 -11   5   3   19.67    7.94
  11  -5  -3   30.73    8.03
 -11   5   2  137.89   11.60
  11  -5  -2  180.49   11.69
 -11   5   1  184.41   13.13
 -11   5   0   40.56    9.34
 -11   5  -1  180.26   12.63
 -11   5  -2    9.34    7.45
 -11   5  -3    3.38    7.45
 -11   5  -4   20.35    8.21
 -11   5  -5  681.79   32.98
 -11   5  -5  641.18   30.91
 -11   5  -5  583.88   30.10
 -11   5  -6   61.37    9.30
 -11   5  -6   70.03    9.39
 -11   5  -6   60.15    7.08
 -11   5  -7  270.51   16.29
 -11   5  -7  274.07   16.15
 -11   5  -7  270.14   16.88
 -11   5  -8    8.71    7.90
 -11   5  -8    6.45    7.22
 -11   5  -8    5.60    8.30
 -11   5  -9  138.75   13.72
 -11   5 -10   81.44    9.75
 -11   5 -10   75.62   11.91
 -11   5 -11   19.27    8.26
 -11   5 -11    8.84   10.20
 -11   5 -12   26.71    8.62
 -11   5 -12   19.27   10.33
 -11   5 -13   26.76    9.07
 -11   5 -13   22.20   11.24
 -11   5 -14   18.50    9.70
 -11   5 -14   16.02   11.78
 -11   5 -15    3.34    8.93
 -11   5 -15   18.23   11.78
 -11   4   8   -5.73    9.57
 -11   4   7   33.89    9.20
  11  -4  -7   34.16    7.85
 -11   4   6   10.47    8.75
  11  -4  -6   20.67    8.21
 -11   4   5   -8.66    6.81
  11  -4  -5   -6.14    6.99
 -11   4   4  242.98   15.61
  11  -4  -4  245.60   15.25
 -11   4   3  160.63   13.09
  11  -4  -3  180.49   12.72
 -11   4   2  266.67   16.60
  11  -4  -2  234.09   15.03
 -11   4   1   -1.26    7.85
 -11   4   0  337.15   19.09
 -11   4  -1   -2.35    7.35
 -11   4  -2   21.43    7.85
 -11   4  -3   21.43    7.72
 -11   4  -4  168.58   12.45
 -11   4  -5  161.22   11.33
 -11   4  -6  164.88   12.27
 -11   4  -6  171.24   12.14
 -11   4  -6  147.86   11.28
 -11   4  -7   21.75    7.58
 -11   4  -7   17.37    8.03
 -11   4  -7    8.89    7.94
 -11   4  -8    4.29    8.48
 -11   4  -8    2.17    8.12
 -11   4  -8    9.43    7.99
 -11   4  -9  418.96   22.43
 -11   4  -9  401.13   23.91
 -11   4 -10   62.72    9.93
 -11   4 -10   57.53    9.88
 -11   4 -11    2.53    8.71
 -11   4 -11   -2.62    8.62
 -11   4 -12   32.49    8.62
 -11   4 -12   25.13   11.37
 -11   4 -13   26.94    8.80
 -11   4 -13   34.61   12.09
 -11   4 -14    9.93    8.17
 -11   4 -14   -8.75   10.60
 -11   4 -15    5.10    9.07
 -11   4 -15   13.81   12.36
 -11   3   8    5.01    8.53
  11  -3  -8    8.89    8.35
 -11   3   7   -2.48    8.35
  11  -3  -7   -0.86    8.44
 -11   3   6    9.93    7.67
  11  -3  -6    7.13    8.62
 -11   3   5   11.82    8.53
  11  -3  -5   -7.04    6.90
 -11   3   4   42.46    9.11
  11  -3  -4   37.72    8.12
 -11   3   3  198.22   13.76
  11  -3  -3  202.87   13.85
 -11   3   2   53.65    9.61
  11  -3  -2   79.59    9.34
 -11   3   1  162.35   12.59
 -11   3   0   53.74    8.71
 -11   3  -1   17.33    7.58
 -11   3  -2   31.54    7.72
 -11   3  -3   22.65    7.63
 -11   3  -3   27.07    3.88
 -11   3  -3   36.23    5.01
 -11   3  -4   13.00    7.63
 -11   3  -4   10.96    5.01
 -11   3  -4   18.64    5.96
 -11   3  -5    6.90    7.90
 -11   3  -5   13.13    6.63
 -11   3  -6  181.34   13.45
 -11   3  -6  164.60   12.50
 -11   3  -6  142.00   11.15
 -11   3  -7   46.39    9.25
 -11   3  -7   36.59    8.75
 -11   3  -7   38.80    8.48
 -11   3  -8  381.87   20.98
 -11   3  -8  365.04   19.99
 -11   3  -8  330.70   20.94
 -11   3  -9   31.95    8.21
 -11   3  -9   30.01    9.48
 -11   3 -10  167.72   12.45
 -11   3 -10  166.82   14.48
 -11   3 -11   25.67    8.66
 -11   3 -11   17.82    9.57
 -11   3 -12   -0.41    8.39
 -11   3 -12    9.43   10.38
 -11   3 -13   34.11    8.89
 -11   3 -13   27.98   11.69
 -11   3 -14   46.57    9.75
 -11   3 -14   31.81   12.18
 -11   3 -15    7.45    9.02
 -11   3 -15    3.20   11.51
 -11   3 -16   31.81    9.16
 -11   3 -16   33.35   11.78
 -11   2   8  -11.10   10.51
  11  -2  -8  -12.68    8.44
 -11   2   8  -21.07   12.86
 -11   2   7   -2.62    9.07
  11  -2  -7   14.53    9.11
 -11   2   7    6.63   11.46
 -11   2   6   34.34    8.03
  11  -2  -6   15.61    9.02
 -11   2   6   30.37   10.56
 -11   2   5   -1.35    8.12
  11  -2  -5    6.54    7.72
 -11   2   5    1.58    8.66
 -11   2   4   58.93    9.66
  11  -2  -4   54.15    9.34
 -11   2   4   53.15    8.62
 -11   2   3   87.13    9.88
  11  -2  -3   84.87    9.48
 -11   2   3   87.85    8.75
 -11   2   2   85.14   10.24
  11  -2  -2   71.47    9.61
 -11   2   2   52.57    6.77
 -11   2   1   22.97    8.17
 -11   2   1   14.85    5.10
 -11   2   0   20.21    7.99
 -11   2   0   31.99    5.19
 -11   2  -1   12.45    7.26
 -11   2  -1    6.00    4.33
 -11   2  -1   -1.35    4.56
 -11   2  -2   73.77    8.57
 -11   2  -2   77.29    6.54
 -11   2  -2   74.63    6.63
 -11   2  -3   27.75    8.30
 -11   2  -3   25.13    5.28
 -11   2  -3   28.83    6.32
 -11   2  -4   92.82   10.42
 -11   2  -4   96.43    8.12
 -11   2  -4   97.28    8.57
 -11   2  -5 1076.16   49.68
 -11   2  -5 1076.61   54.87
 -11   2  -6    1.40    6.81
 -11   2  -6   -5.78    7.85
 -11   2  -6    7.35    6.45
 -11   2  -7  203.95   14.17
 -11   2  -7  244.79   14.66
 -11   2  -7  216.72   14.44
 -11   2  -8    3.75    8.48
 -11   2  -8    2.84    7.22
 -11   2  -9  127.15   11.87
 -11   2  -9  139.47   12.05
 -11   2 -10   42.01    9.30
 -11   2 -10   24.10    9.43
 -11   2 -11    8.89    8.57
 -11   2 -11    4.96    8.26
 -11   2 -12   68.22   10.06
 -11   2 -12   79.01   11.87
 -11   2 -13   27.89    8.30
 -11   2 -13   19.36   10.92
 -11   2 -14  144.25   12.05
 -11   2 -14  120.93   13.76
 -11   2 -15    7.67    9.43
 -11   2 -15   -9.79   10.87
 -11   2 -16   89.57   10.56
 -11   2 -16  106.49   13.85
 -11   1   8   13.09    8.93
  11  -1  -8    4.29    9.11
 -11   1   8   -0.54   12.77
 -11   1   7    8.93    7.17
  11  -1  -7   19.72    9.39
 -11   1   7    1.85   13.36
 -11   1   6   12.86    8.30
  11  -1  -6   -1.44    8.71
 -11   1   6    0.72   11.82
 -11   1   5    9.84    7.90
  11  -1  -5    8.57    7.76
 -11   1   5   19.49    9.93
 -11   1   4  120.43   11.01
  11  -1  -4  100.35   10.33
 -11   1   4  110.50   11.73
 -11   1   3   24.05    8.93
  11  -1  -3   33.03    8.80
 -11   1   3   28.43    8.17
 -11   1   2  315.72   18.73
  11  -1  -2  254.98   16.02
 -11   1   2  289.86   17.28
 -11   1   1    0.45    7.90
 -11   1   1   10.29    6.18
 -11   1   0   28.43    8.30
 -11   1   0   12.00    6.05
 -11   1  -1  331.24   18.59
 -11   1  -1  382.18   20.80
 -11   1  -2   88.98    9.52
 -11   1  -2   88.62    7.76
 -11   1  -3  752.18   35.51
 -11   1  -3  787.38   40.84
 -11   1  -3  726.46   37.81
 -11   1  -4  479.19   23.91
 -11   1  -4  470.17   25.49
 -11   1  -4  478.74   25.85
 -11   1  -5 1470.97   65.70
 -11   1  -5 1397.87   70.71
 -11   1  -6   59.52    8.75
 -11   1  -7  171.15   12.81
 -11   1  -7  160.90   12.45
 -11   1  -7  154.63   12.50
 -11   1  -8   45.66    9.43
 -11   1  -8   29.28    9.07
 -11   1  -9  256.74   16.56
 -11   1  -9  251.37   17.06
 -11   1 -10    0.63    8.66
 -11   1 -10   11.55    9.07
 -11   1 -11    7.26    8.75
 -11   1 -11  -12.09    9.61
 -11   1 -12   18.32    8.93
 -11   1 -12   -6.00    9.34
 -11   1 -13  244.61   15.07
 -11   1 -13  235.85   17.33
 -11   1 -14   -8.26    8.39
 -11   1 -14  -10.69   11.46
 -11   1 -15   -7.63    8.98
 -11   1 -15   12.45   10.78
 -11   1 -16   83.43   10.24
 -11   1 -16   80.72   12.36
 -11   0   8   13.04    9.97
  11   0  -8   15.88    9.16
 -11   0   8   -2.03   14.12
 -11   0   7   -6.54    8.39
  11   0  -7   15.88    8.93
 -11   0   7   12.05   12.50
 -11   0   6    3.88    8.71
  11   0  -6   17.28    8.84
 -11   0   6    4.33   10.65
 -11   0   5   24.19    8.98
  11   0  -5  -13.63    7.45
 -11   0   5   10.38    9.70
 -11   0   4    3.97    7.67
  11   0  -4   16.70    7.45
 -11   0   4    3.52    8.26
 -11   0   3  521.16   26.04
  11   0  -3  455.28   23.96
 -11   0   3  495.89   27.61
 -11   0   2    7.76    7.13
  11   0  -2   16.74    8.12
 -11   0   2    7.31    7.40
 -11   0   1   19.63    6.86
 -11   0   1   10.51    7.17
 -11   0   0   59.15    8.62
 -11   0   0   70.89    8.17
 -11   0  -1   29.01    7.90
 -11   0  -1   41.11    7.04
 -11   0  -2   18.41    7.22
 -11   0  -2    9.79    5.23
 -11   0  -3   54.06    8.66
 -11   0  -3   36.10    5.91
 -11   0  -4  254.17   15.93
 -11   0  -4  237.48   15.12
 -11   0  -5   -1.94    7.76
 -11   0  -5    0.05    6.90
 -11   0  -6  539.66   30.32
 -11   0  -7    6.27    8.08
 -11   0  -7    7.45    8.17
 -11   0  -7    2.44    7.54
 -11   0  -8  163.07   12.81
 -11   0  -8  139.11   13.18
 -11   0  -9   74.63   10.83
 -11   0  -9   49.54   10.74
 -11   0 -10  124.22   11.15
 -11   0 -10  110.73   12.41
 -11   0 -11   25.67    8.35
 -11   0 -11   36.64   10.11
 -11   0 -12   41.65    9.39
 -11   0 -12   66.33   11.64
 -11   0 -13   58.57    9.11
 -11   0 -13   66.33   11.33
 -11   0 -14   47.20    9.57
 -11   0 -14   38.40   10.65
 -11   0 -15   74.00   10.47
 -11   0 -15   68.77   11.46
 -11   0 -16   41.51    9.30
 -11   0 -16   54.51   11.46
 -11   0 -17   37.14    9.52
 -11   0 -17   28.38   10.74
 -11  -1   8   15.66    9.79
  11   1  -8   16.47    8.80
 -11  -1   8   17.24   13.00
 -11  -1   7   -9.70    8.75
  11   1  -7    0.81    8.84
 -11  -1   7    4.51   12.41
 -11  -1   6   42.60    9.16
  11   1  -6   38.80    9.07
 -11  -1   6   44.22   11.33
 -11  -1   5   54.15    8.98
  11   1  -5   50.76    8.98
 -11  -1   5   62.67   10.15
 -11  -1   4  255.48   16.38
  11   1  -4  265.45   16.47
 -11  -1   4  274.21   17.64
 -11  -1   3  155.90   12.45
  11   1  -3  167.63   12.77
 -11  -1   3  146.19   12.32
 -11  -1   2   22.29    8.35
  11   1  -2   15.75    8.12
 -11  -1   2    3.25    7.49
 -11  -1   1   16.60    7.99
 -11  -1   1   19.54    7.13
 -11  -1   0    8.21    7.72
 -11  -1   0    9.34    6.41
 -11  -1  -1   -0.68    7.08
 -11  -1  -1   14.21    6.59
 -11  -1  -2   39.21    7.54
 -11  -1  -2   36.41    7.85
 -11  -1  -3   -3.97    7.04
 -11  -1  -3   -2.53    5.87
 -11  -1  -4  281.20   16.24
 -11  -1  -4  263.06   16.20
 -11  -1  -5  529.73   26.40
 -11  -1  -6    6.72    7.85
 -11  -1  -6   27.66    7.85
 -11  -1  -6    8.30    8.30
 -11  -1  -7    1.67    6.95
 -11  -1  -7    3.93    7.72
 -11  -1  -7   25.58    8.98
 -11  -1  -8  140.64   12.50
 -11  -1  -8  116.14   11.60
 -11  -1  -9  242.98   16.24
 -11  -1  -9  238.65   16.47
 -11  -1 -10    5.91    9.11
 -11  -1 -10    2.21    8.71
 -11  -1 -11   43.59    9.75
 -11  -1 -11   56.04   11.01
 -11  -1 -12  208.37   14.08
 -11  -1 -12  192.17   14.80
 -11  -1 -13    4.47    8.80
 -11  -1 -13   10.33    9.11
 -11  -1 -14  560.41   27.57
 -11  -1 -14  607.79   34.52
 -11  -1 -15   34.65    9.57
 -11  -1 -15   32.80   10.74
 -11  -1 -16   43.68    8.03
 -11  -1 -16   58.70   10.92
 -11  -1 -17   58.52    9.79
 -11  -1 -17   79.73   11.46
 -11  -2   8    9.48    8.21
  11   2  -8   -3.75    8.21
 -11  -2   8   22.74   14.03
 -11  -2   7   10.11    7.76
  11   2  -7    8.62    8.71
 -11  -2   7   -7.04   11.24
 -11  -2   6    9.20    8.48
  11   2  -6   -2.93    8.26
 -11  -2   6    0.86   10.65
 -11  -2   5   25.27    8.39
  11   2  -5   25.95    8.12
 -11  -2   5   18.68    9.93
 -11  -2   4   32.04    8.35
  11   2  -4   22.97    8.12
 -11  -2   4   33.03    9.34
 -11  -2   3   50.31    7.67
  11   2  -3   40.75    8.17
 -11  -2   3   30.01    9.48
 -11  -2   2  543.27   26.62
  11   2  -2  534.69   26.94
 -11  -2   2  580.27   31.86
 -11  -2   1    6.27    7.40
 -11  -2   1    6.81    7.17
 -11  -2   0   12.45    7.13
 -11  -2   0    8.12    6.99
 -11  -2  -1   70.30    9.25
 -11  -2  -1   85.10    8.80
 -11  -2  -2   62.09    8.93
 -11  -2  -2   61.05    8.30
 -11  -2  -3   78.87   10.20
 -11  -2  -3   84.92    9.16
 -11  -2  -4  128.55   11.55
 -11  -2  -4  137.85   11.51
 -11  -2  -5  203.36   13.45
 -11  -2  -5  206.25   14.53
 -11  -2  -6   -8.35    7.63
 -11  -2  -6    4.38    8.08
 -11  -2  -7  118.72   11.19
 -11  -2  -7  111.54   11.10
 -11  -2  -7  116.23   11.46
 -11  -2  -8   30.23    8.89
 -11  -2  -8   29.74    8.80
 -11  -2  -9  317.84   18.77
 -11  -2  -9  311.39   19.67
 -11  -2 -10    8.98    9.20
 -11  -2 -10   20.76    8.57
 -11  -2 -11   -9.20    8.71
 -11  -2 -11    5.37    9.79
 -11  -2 -12   36.14    9.30
 -11  -2 -12   38.49   11.10
 -11  -2 -13  248.17   16.15
 -11  -2 -13  285.80   20.35
 -11  -2 -14  123.63   12.36
 -11  -2 -14  118.17   13.63
 -11  -2 -15   14.12    8.57
 -11  -2 -15   -7.58    9.30
 -11  -2 -16   90.69    9.88
 -11  -2 -16  103.28   11.69
 -11  -2 -17   -0.81    8.62
 -11  -2 -17    1.99    8.98
 -11  -3   7   37.59    9.43
  11   3  -7   24.95    8.89
 -11  -3   7   15.88   11.19
 -11  -3   6    5.60    9.07
  11   3  -6   -0.90    8.53
 -11  -3   6   -0.23    9.52
 -11  -3   5   47.33    8.44
  11   3  -5   45.48    9.43
 -11  -3   5   39.30   11.69
 -11  -3   4   49.90    9.57
  11   3  -4   48.73    9.11
 -11  -3   4   29.96    9.79
 -11  -3   3  315.81   18.82
  11   3  -3  336.74   18.86
 -11  -3   3  338.50   20.71
 -11  -3   2  172.77   13.94
  11   3  -2  168.98   12.77
 -11  -3   2  175.43   13.18
 -11  -3   1   23.82    9.34
 -11  -3   1   11.73    8.12
 -11  -3   0  329.84   18.32
 -11  -3   0  300.92   18.91
 -11  -3  -1   44.04    8.03
 -11  -3  -1   43.50    8.39
 -11  -3  -2   91.78    9.20
 -11  -3  -2   90.02    9.79
 -11  -3  -3   32.40    7.49
 -11  -3  -3   46.48    7.94
 -11  -3  -4    7.72    7.63
 -11  -3  -4    1.35    6.41
 -11  -3  -5  158.87   12.00
 -11  -3  -5  122.87   10.51
 -11  -3  -6  309.72   17.64
 -11  -3  -6  284.09   16.79
 -11  -3  -7    7.58    7.90
 -11  -3  -7    5.60    8.21
 -11  -3  -8  110.01   11.33
 -11  -3  -8  117.63   11.42
 -11  -3  -9  356.15   20.21
 -11  -3  -9  340.49   21.88
 -11  -3 -10   48.46    9.88
 -11  -3 -10   51.30   10.29
 -11  -3 -11   -0.32    8.62
 -11  -3 -11    3.93    9.88
 -11  -3 -12   24.41    8.03
 -11  -3 -12   23.15   10.15
 -11  -3 -13  152.51   13.04
 -11  -3 -13  159.82   14.30
 -11  -3 -14   67.28   10.69
 -11  -3 -14   69.40   10.87
 -11  -3 -15   58.12   10.38
 -11  -3 -15   39.53    9.39
 -11  -3 -16  -11.82    7.85
 -11  -3 -16   -4.15    9.11
 -11  -3 -17   62.72    9.20
 -11  -3 -17   78.65   10.83
 -11  -4   7   -9.52    8.93
  11   4  -7   13.22    8.30
 -11  -4   7  -11.01   10.47
 -11  -4   6   -7.40    8.71
  11   4  -6   -1.08    8.66
 -11  -4   6    3.84   10.69
 -11  -4   5   44.72    9.52
  11   4  -5   43.36    9.52
 -11  -4   5   70.34   11.55
 -11  -4   4   87.49   10.96
  11   4  -4   76.44    9.79
 -11  -4   4   84.02   10.92
 -11  -4   3  164.29   12.72
  11   4  -3  188.20   13.27
 -11  -4   3  152.83   13.72
 -11  -4   2    6.32    8.17
  11   4  -2    5.10    6.68
 -11  -4   2    2.62    8.26
 -11  -4   1   66.51    9.34
 -11  -4   1   61.32    9.30
 -11  -4   0   18.95    7.99
 -11  -4   0   37.86    7.90
 -11  -4  -1   39.08    8.48
 -11  -4  -1   33.30    7.67
 -11  -4  -2    5.05    7.58
 -11  -4  -2    1.35    6.63
 -11  -4  -3   11.82    7.22
 -11  -4  -3    7.67    6.45
 -11  -4  -4  245.37   15.48
 -11  -4  -4  250.92   16.15
 -11  -4  -5  270.69   16.20
 -11  -4  -5  285.67   16.56
 -11  -4  -6  136.85   11.69
 -11  -4  -6  128.01   10.96
 -11  -4  -7   62.18    8.53
 -11  -4  -7   59.11    8.48
 -11  -4  -8   87.04   10.02
 -11  -4  -9  336.25   19.58
 -11  -4  -9  350.33   21.97
 -11  -4 -10   -9.66    8.39
 -11  -4 -10    4.51    9.48
 -11  -4 -11    8.30    8.39
 -11  -4 -11  -14.30    9.02
 -11  -4 -12  123.95   11.69
 -11  -4 -12  169.97   13.76
 -11  -4 -13   -8.53    8.17
 -11  -4 -13   11.28    9.30
 -11  -4 -14  227.37   15.21
 -11  -4 -14  197.68   15.12
 -11  -4 -15   -0.95    8.03
 -11  -4 -15  -10.38    8.98
 -11  -4 -16   19.40    8.80
 -11  -4 -16   24.68    9.93
 -11  -4 -17   31.99    9.25
 -11  -4 -17   45.35    9.70
 -11  -5   7   -8.93   10.56
  11   5  -7   12.45    9.34
 -11  -5   7    2.80   10.87
 -11  -5   6   37.59   10.29
  11   5  -6   31.09    8.89
 -11  -5   6   29.24   10.96
 -11  -5   5    8.89    8.66
  11   5  -5   -3.11    9.02
 -11  -5   5  -11.78    8.75
  11   5  -4  168.12   13.09
 -11  -5   3   13.27    8.48
  11   5  -3    1.31    7.90
 -11  -5   3   -3.16    9.20
 -11  -5   2   55.09   10.42
 -11  -5   2   30.59    8.44
 -11  -5   1  112.17   11.24
 -11  -5   1   94.98   11.33
 -11  -5   0  -14.03    8.03
 -11  -5   0    7.72    7.45
 -11  -5  -1  435.83   22.34
 -11  -5  -1  440.52   25.27
 -11  -5  -2   64.89    8.66
 -11  -5  -2   55.50    9.25
 -11  -5  -3  406.82   20.94
 -11  -5  -3  396.71   23.10
 -11  -5  -4   17.33    7.45
 -11  -5  -4   10.20    7.72
 -11  -5  -5  500.85   25.31
 -11  -5  -5  468.36   24.05
 -11  -5  -5  481.45   27.39
 -11  -5  -6   22.02    8.03
 -11  -5  -6   31.22    8.03
 -11  -5  -7  197.99   13.99
 -11  -5  -7  191.09   13.54
 -11  -5  -8    3.47    7.72
 -11  -5  -9  460.69   24.00
 -11  -5  -9  480.10   27.84
 -11  -5 -10   47.38    8.80
 -11  -5 -10   39.08    8.71
 -11  -5 -11   83.16   10.38
 -11  -5 -11   58.57   10.11
 -11  -5 -12   -5.96    8.39
 -11  -5 -12   14.89    9.84
 -11  -5 -13  232.51   15.34
 -11  -5 -13  248.13   17.78
 -11  -5 -14  104.64   11.55
 -11  -5 -14  107.80   11.78
 -11  -5 -15   -1.08    8.44
 -11  -5 -15    4.65    9.39
 -11  -5 -16   28.65    7.94
 -11  -5 -16   23.96    9.88
 -11  -5 -17   -3.88    9.02
 -11  -5 -17    2.93    8.30
 -11  -6   6    9.79   10.20
  11   6  -6    3.70    9.93
 -11  -6   6   17.78   10.24
 -11  -6   5  108.56   12.18
  11   6  -5  110.01   11.73
 -11  -6   5  108.88   12.41
 -11  -6   4   20.35    8.71
  11   6  -4   -3.02    8.39
 -11  -6   4    7.13   10.06
 -11  -6   3   38.40    9.39
  11   6  -3   40.70    9.02
 -11  -6   3   55.23    9.48
 -11  -6   2  226.15   14.85
 -11  -6   2  163.30   13.00
 -11  -6   1    3.34    7.45
 -11  -6   1   -1.08    8.84
 -11  -6   0    6.18    7.26
 -11  -6   0   -0.90    7.90
 -11  -6  -1   12.95    7.17
 -11  -6  -1   20.44    8.08
 -11  -6  -2   63.35    8.75
 -11  -6  -2   77.97    9.70
 -11  -6  -3    2.71    7.58
 -11  -6  -3   -6.09    7.35
 -11  -6  -4   86.59    9.48
 -11  -6  -4   64.03    8.62
 -11  -6  -4   82.48    9.79
 -11  -6  -5   29.15    7.54
 -11  -6  -5   26.17    7.31
 -11  -6  -5   45.62    9.25
 -11  -6  -6   84.83    8.84
 -11  -6  -6   63.08    8.39
 -11  -6  -7  110.68   10.11
 -11  -6  -7  121.74   10.96
 -11  -6  -8  136.76   11.82
 -11  -6  -9   38.85    8.75
 -11  -6 -10   36.19    9.02
 -11  -6 -10   13.90    9.02
 -11  -6 -11    6.86    7.90
 -11  -6 -11    5.78    8.89
 -11  -6 -12   -0.99    8.17
 -11  -6 -12    4.38    8.80
 -11  -6 -13  317.39   18.50
 -11  -6 -13  291.31   18.82
 -11  -6 -14    5.87    8.26
 -11  -6 -14   20.71    9.02
 -11  -6 -15   54.87    8.89
 -11  -6 -15   63.04   11.05
 -11  -6 -16   -4.87    7.94
 -11  -6 -16    4.38    9.79
 -11  -7   6   24.10   11.73
  11   7  -6   42.46   10.33
 -11  -7   6   30.68   11.19
 -11  -7   5   64.34   10.78
  11   7  -5   63.49   10.38
 -11  -7   5   87.31   12.45
 -11  -7   4   15.39    9.11
  11   7  -4    8.62    8.53
 -11  -7   4  -11.91    9.66
 -11  -7   3  202.01   14.26
 -11  -7   3  179.54   14.53
 -11  -7   2   -2.89    8.12
 -11  -7   2    1.71    9.11
 -11  -7   1   95.21    9.75
 -11  -7   1   84.92   10.47
 -11  -7   0   -5.96    7.72
 -11  -7   0   26.76    8.39
 -11  -7  -1   -4.96    6.90
 -11  -7  -1    0.63    7.45
 -11  -7  -2   40.47    7.54
 -11  -7  -2   49.86    9.16
 -11  -7  -3   18.59    6.50
 -11  -7  -3   19.18    7.72
 -11  -7  -4   28.70    7.45
 -11  -7  -4   49.27    8.03
 -11  -7  -4   51.39    8.44
 -11  -7  -5    3.70    6.77
 -11  -7  -5   -1.40    6.63
 -11  -7  -5   -1.17    8.12
 -11  -7  -6  291.67   17.06
 -11  -7  -6  306.42   17.15
 -11  -7  -6  297.40   18.91
 -11  -7  -7  104.68   10.38
 -11  -7  -7   95.75    9.84
 -11  -7  -8   61.86    8.89
 -11  -7  -8   48.42    9.11
 -11  -7  -9   32.04    8.30
 -11  -7 -10    2.71    7.85
 -11  -7 -11   37.77    9.02
 -11  -7 -11   42.55    9.30
 -11  -7 -12  605.08   29.87
 -11  -7 -12  614.11   33.84
 -11  -7 -13    7.85    8.89
 -11  -7 -13   -4.42    9.30
 -11  -7 -14  286.75   17.33
 -11  -7 -14  312.33   20.17
 -11  -7 -15   32.89    8.93
 -11  -7 -15   32.31    9.02
 -11  -7 -16   18.45    9.39
 -11  -7 -16   38.49    9.66
 -11  -8   5    1.80   10.65
  11   8  -5   10.65    9.25
 -11  -8   5   18.64   10.47
 -11  -8   4  105.40   12.23
 -11  -8   4   97.01   11.96
 -11  -8   3   17.55    9.11
 -11  -8   3   10.29    9.25
 -11  -8   2   33.71    9.61
 -11  -8   2   29.60    8.98
 -11  -8   1   15.16    8.75
 -11  -8   1    2.12    8.39
 -11  -8   0   16.70    8.71
 -11  -8   0    0.99    7.94
 -11  -8  -1   25.81    8.66
 -11  -8  -1   20.12    8.12
 -11  -8  -2    5.23    6.54
 -11  -8  -2    5.50    8.17
 -11  -8  -3    0.36    7.45
 -11  -8  -3    5.78    7.45
 -11  -8  -3   25.40    8.80
 -11  -8  -4   54.91    7.81
 -11  -8  -4   59.06    8.44
 -11  -8  -4   57.53    9.02
 -11  -8  -5  401.36   20.89
 -11  -8  -5  394.82   20.40
 -11  -8  -5  386.65   22.83
 -11  -8  -6   28.16    7.49
 -11  -8  -6   23.28    7.49
 -11  -8  -6   31.36    7.99
 -11  -8  -7   35.33    7.58
 -11  -8  -7   43.77    8.21
 -11  -8  -8   27.80    8.03
 -11  -8  -8   25.58    8.39
 -11  -8  -9  413.05   21.70
 -11  -8 -10  445.53   23.15
 -11  -8 -11  138.03   11.64
 -11  -8 -11  188.02   14.30
 -11  -8 -12   98.91   10.74
 -11  -8 -12   90.29   10.65
 -11  -8 -13    7.81    8.26
 -11  -8 -13    4.74    8.62
 -11  -8 -14  381.46   21.12
 -11  -8 -14  406.82   23.42
 -11  -8 -15    7.90    8.93
 -11  -8 -15    7.99    8.98
 -11  -8 -16   45.80   11.05
 -11  -8 -16   30.01    8.93
 -11  -9   4   78.29   11.96
 -11  -9   4   75.44   12.00
 -11  -9   3   43.72   10.11
 -11  -9   3   41.96    9.93
 -11  -9   2   59.83   10.06
 -11  -9   2   74.00   10.60
 -11  -9   1   -0.63    8.75
 -11  -9   1    2.26    8.66
 -11  -9   0   13.67    9.11
 -11  -9   0    7.94    8.84
 -11  -9  -1   11.15    8.39
 -11  -9  -1    2.84    7.49
 -11  -9  -2    4.83    7.17
 -11  -9  -2   15.66    7.13
 -11  -9  -2  -18.68    7.35
 -11  -9  -3   32.04    8.17
 -11  -9  -3   34.52    7.81
 -11  -9  -3   40.38    8.35
 -11  -9  -4   78.69    9.16
 -11  -9  -4  109.78   10.15
 -11  -9  -4   77.93    9.25
 -11  -9  -5   10.24    7.76
 -11  -9  -5   10.15    7.26
 -11  -9  -5   25.67    7.99
 -11  -9  -6  204.76   13.22
 -11  -9  -6  223.35   13.99
 -11  -9  -6  227.68   15.66
 -11  -9  -7   99.76    9.20
 -11  -9  -7  122.96   10.78
 -11  -9  -7  116.14   10.96
 -11  -9  -8    4.51    7.76
 -11  -9  -8   -2.39    7.76
 -11  -9  -9  463.40   23.78
 -11  -9  -9  502.66   25.00
 -11  -9 -10   42.23    9.02
 -11  -9 -11   -1.13    8.62
 -11  -9 -12   48.15    9.61
 -11  -9 -12   63.53    9.70
 -11  -9 -13  246.23   16.20
 -11  -9 -13  249.16   16.38
 -11  -9 -14   -2.57    9.11
 -11  -9 -14    6.81    9.57
 -11  -9 -15   47.51   11.60
 -11  -9 -15   42.32    9.79
 -11 -10   4   23.46   13.00
 -11 -10   4    8.21   11.69
 -11 -10   3   32.98   11.69
 -11 -10   3   26.13   10.47
 -11 -10   2   49.68   11.05
 -11 -10   2   46.61    9.39
 -11 -10   1   27.25    9.93
 -11 -10   1   23.96    8.66
 -11 -10   0   19.72    8.89
 -11 -10   0   17.91    8.35
 -11 -10  -1   28.47    7.17
 -11 -10  -1   33.39    9.25
 -11 -10  -1   13.49    8.03
 -11 -10  -2   58.12    8.30
 -11 -10  -2   75.67    9.57
 -11 -10  -2   55.82    9.39
 -11 -10  -3    6.00    6.77
 -11 -10  -3    7.58    7.81
 -11 -10  -3   12.90    8.62
 -11 -10  -4  163.03   11.91
 -11 -10  -4  148.99   11.69
 -11 -10  -4  163.66   12.63
 -11 -10  -5   36.86    8.08
 -11 -10  -6   80.68    9.52
 -11 -10  -6   77.34    8.62
 -11 -10  -6   51.26    8.12
 -11 -10  -7   -1.44    8.08
 -11 -10  -7    6.09    7.22
 -11 -10  -7    1.67    6.86
 -11 -10  -8   24.14    8.93
 -11 -10  -8   29.42    8.57
 -11 -10  -9   -2.71    8.44
 -11 -10  -9    7.17    8.53
 -11 -10 -10    0.68    8.62
 -11 -10 -11   -0.63    9.25
 -11 -10 -12   34.65    9.97
 -11 -10 -12   22.11    8.66
 -11 -10 -13   38.08   10.29
 -11 -10 -13   44.04    9.75
 -11 -10 -14   32.53   10.02
 -11 -10 -14   36.19    9.30
 -11 -11   3   12.63   13.18
 -11 -11   3   11.01   10.24
 -11 -11   2   23.37   12.09
 -11 -11   2   16.74    9.07
 -11 -11   1   76.75   12.00
 -11 -11   1   54.06    9.75
 -11 -11   0   37.32    9.52
 -11 -11   0   42.82   10.15
 -11 -11   0   31.81    8.62
 -11 -11  -1    6.63    7.49
 -11 -11  -1   21.66    9.02
 -11 -11  -1    9.11    7.99
 -11 -11  -2    6.27    7.26
 -11 -11  -2   13.13    8.12
 -11 -11  -2    6.77    8.89
 -11 -11  -3   35.65    7.81
 -11 -11  -3   44.94    9.20
 -11 -11  -3   38.44    8.21
 -11 -11  -4   35.29    7.54
 -11 -11  -4   27.12    8.48
 -11 -11  -4   24.55    7.72
 -11 -11  -5  144.75   11.42
 -11 -11  -5  129.86   11.51
 -11 -11  -5  141.14   12.09
 -11 -11  -6    7.58    7.08
 -11 -11  -6   21.57    7.67
 -11 -11  -6   -5.55    7.49
 -11 -11  -7   85.60   10.15
 -11 -11  -7   70.98    9.88
 -11 -11  -7   75.17    9.25
 -11 -11  -8    5.19    8.35
 -11 -11  -8   27.98    8.80
 -11 -11  -8   24.64    7.22
 -11 -11  -9   28.79    9.43
 -11 -11  -9   34.25    9.25
 -11 -11 -10   11.24    9.07
 -11 -11 -10   -8.71    8.98
 -11 -11 -11   11.05    9.16
 -11 -11 -12   88.57   11.51
 -11 -11 -12   80.36    9.75
 -11 -11 -13   13.00   10.33
 -11 -11 -13   19.04    7.54
 -11 -11 -14   36.59   11.28
 -11 -11 -14   41.29    8.62
 -11 -12   1    6.81   11.15
 -11 -12   1   -4.38   10.56
 -11 -12   1    5.10    8.75
 -11 -12   0   36.14   10.15
 -11 -12   0   38.58   10.24
 -11 -12   0   25.00    8.12
 -11 -12  -1   59.38   10.20
 -11 -12  -1   83.25   10.38
 -11 -12  -1   65.38   10.33
 -11 -12  -2   75.62    9.66
 -11 -12  -2   75.85   10.51
 -11 -12  -2   94.35   10.20
 -11 -12  -3   48.60    9.70
 -11 -12  -3   63.49    8.93
 -11 -12  -3   49.50    8.30
 -11 -12  -4   29.78    9.02
 -11 -12  -4   23.19    8.12
 -11 -12  -4   43.36    8.30
 -11 -12  -5   72.74    9.88
 -11 -12  -5   75.17   10.15
 -11 -12  -5   59.56    8.35
 -11 -12  -6  103.74    9.93
 -11 -12  -6   86.95   10.60
 -11 -12  -6   98.14    9.88
 -11 -12  -7   42.19    9.75
 -11 -12  -7   48.73    8.39
 -11 -12  -7   42.82    7.94
 -11 -12  -8   24.59    9.88
 -11 -12  -8    8.89    8.66
 -11 -12  -8    6.72    7.22
 -11 -12  -9   73.23   10.56
 -11 -12  -9   51.84   10.15
 -11 -12  -9   48.37    7.76
 -11 -12 -10   -9.16    9.61
 -11 -12 -10   15.43    9.07
 -11 -12 -11  107.80   10.92
 -11 -12 -11   95.61   11.60
 -11 -12 -12   15.34    9.97
 -11 -12 -12   -2.98    7.22
 -11 -12 -13   76.53   13.54
 -11 -12 -13  103.55    9.75
 -11 -13   0    6.05   10.38
 -11 -13   0    9.30    9.39
 -11 -13   0   28.34    7.81
 -11 -13  -1   -7.35    9.02
 -11 -13  -1   23.46    8.62
 -11 -13  -1   22.88    8.48
 -11 -13  -2  -13.04    9.25
 -11 -13  -2   -6.27    7.90
 -11 -13  -2    2.26    9.07
 -11 -13  -3    3.70    8.39
 -11 -13  -3  -17.64    9.30
 -11 -13  -3    3.02    9.20
 -11 -13  -4  151.79   12.90
 -11 -13  -5    3.75    9.48
 -11 -13  -5   35.10    8.89
 -11 -13  -5   25.54    8.21
 -11 -13  -6   10.69    9.43
 -11 -13  -6   23.51    9.07
 -11 -13  -6   22.15    7.94
 -11 -13  -7    9.48    9.39
 -11 -13  -7   -7.67    8.75
 -11 -13  -7    1.62    7.63
 -11 -13  -8   -1.71   10.33
 -11 -13  -8   -4.83    7.85
 -11 -13  -8   -4.47    7.76
 -11 -13  -9   -8.21   10.69
 -11 -13  -9   -8.17   10.15
 -11 -13  -9   -0.18    7.17
 -11 -13 -10    7.08   11.37
 -11 -13 -10   19.04   10.65
 -11 -13 -10   19.45    7.90
 -11 -13 -11   47.60   12.63
 -11 -13 -11   32.22   11.24
 -11 -14  -3   54.28    9.34
 -11 -14  -4    2.48    8.75
 -11 -14  -5   35.06    8.44
 -11 -14  -6    1.58    7.67
 -11 -14  -6   10.78    7.26
 -11 -14  -6   30.46    9.20
 -11 -14  -7   -5.82   10.33
 -11 -14  -7   15.93    8.39
 -11 -14  -7    9.61    7.81
 -11 -14  -8   47.15    8.26
 -11 -14  -9   -0.86   14.12
 -11 -14  -9    4.65   11.19
 -11 -14  -9   -0.54    7.26
 -12  11   0   38.31    8.66
 -12  11  -1  120.43   10.87
 -12  11  -2  -11.69    7.17
 -12  11  -3  125.03   10.78
 -12  11  -3  146.42   11.24
 -12  11  -4   33.39    9.57
 -12  11  -4   16.88    8.75
 -12  11  -5   -3.25    8.66
 -12  11  -5   -2.03    8.57
 -12  11  -6    8.93    8.26
 -12  11  -6    2.26    8.80
 -12  11  -7    1.44    9.70
 -12  11  -7   -7.31    8.66
 -12  11  -8   25.72   10.15
 -12  11  -8   27.12   10.83
 -12  10   2   41.74    8.53
 -12  10   1   24.77    8.30
 -12  10   0   43.86    8.98
 -12  10  -1   93.85    9.66
 -12  10  -2   31.54    8.75
 -12  10  -3  111.36   10.15
 -12  10  -4    8.35    7.72
 -12  10  -4    6.90    7.67
 -12  10  -5   -4.87    7.76
 -12  10  -5   -8.93    7.85
 -12  10  -6    0.68    8.35
 -12  10  -6   11.46    7.40
 -12  10  -7    6.45    8.35
 -12  10  -7   23.87    7.58
 -12  10  -8    1.40    8.57
 -12  10  -8    7.54    7.67
 -12  10  -8    1.22    9.20
 -12  10  -9  104.19   11.73
 -12  10  -9   77.38    9.43
 -12  10  -9   47.38   14.53
 -12  10 -10   12.81   10.87
 -12  10 -10    4.69    8.89
 -12  10 -10   23.91   18.41
 -12   9   3    3.20    8.48
 -12   9   2   43.14    8.44
 -12   9   1   21.39    8.30
 -12   9   0   57.30    8.35
 -12   9  -1   40.52    8.08
 -12   9  -2  218.12   13.90
 -12   9  -3   -6.95    6.45
 -12   9  -4   36.37    8.17
 -12   9  -4   42.69    7.76
 -12   9  -5    6.23    8.17
 -12   9  -5    5.69    6.95
 -12   9  -6   -2.75    7.67
 -12   9  -6    0.63    7.35
 -12   9  -7   21.48    8.17
 -12   9  -7   17.82    8.08
 -12   9  -8   47.69    8.75
 -12   9  -8   64.03    8.93
 -12   9  -8   62.04   12.09
 -12   9  -9    8.08    8.66
 -12   9  -9   12.72    7.90
 -12   9  -9   -0.27   12.54
 -12   9 -10    0.81    9.02
 -12   9 -10   23.64    8.21
 -12   9 -10   21.52   15.12
 -12   9 -11   46.97    9.70
 -12   9 -11   17.10    8.48
 -12   9 -11   25.99   15.52
 -12   8   4   10.78    8.98
 -12   8   3   -0.59    8.39
 -12   8   2    4.65    8.39
 -12   8   1   44.35    9.02
 -12   8   0   -3.97    7.40
 -12   8  -1  347.12   19.22
 -12   8  -2   18.55    8.30
 -12   8  -3   63.04    8.98
 -12   8  -4   59.43    7.76
 -12   8  -4   54.06    8.98
 -12   8  -5   -1.53    7.13
 -12   8  -5    0.72    7.49
 -12   8  -6    4.15    6.86
 -12   8  -6   16.47    7.54
 -12   8  -7  215.23   13.99
 -12   8  -7  209.41   13.90
 -12   8  -7  203.14   13.31
 -12   8  -8    7.40    7.94
 -12   8  -8    5.23    7.58
 -12   8  -8    4.20    9.25
 -12   8  -9    8.80    8.26
 -12   8  -9   10.87    8.62
 -12   8  -9   17.46   10.96
 -12   8 -10  161.40   12.36
 -12   8 -10  171.42   12.90
 -12   8 -10  189.15   17.69
 -12   8 -11    5.69    8.35
 -12   8 -11   -5.96    8.12
 -12   8 -11   -1.26   13.04
 -12   8 -12   46.79    8.48
 -12   8 -12   39.21    8.03
 -12   8 -12   29.42   12.86
 -12   7   5    8.66    9.34
  12  -7  -5    7.26    7.45
 -12   7   4   61.77    9.97
  12  -7  -4   41.60    7.08
 -12   7   3   -8.44    8.57
 -12   7   2   18.86    8.80
 -12   7   1   60.37    9.52
 -12   7   0   70.66   10.24
 -12   7  -1  160.50   12.27
 -12   7  -2   18.18    8.03
 -12   7  -3  161.45   12.27
 -12   7  -4   76.30    8.93
 -12   7  -5   90.33    9.39
 -12   7  -5   99.85   10.33
 -12   7  -6   58.93    8.66
 -12   7  -6   53.11    8.71
 -12   7  -7  101.75    9.84
 -12   7  -7  113.53   10.24
 -12   7  -7   84.60    9.16
 -12   7  -8   79.05    9.25
 -12   7  -8   65.74    8.80
 -12   7  -8   78.60   11.01
 -12   7  -9   97.06   10.56
 -12   7  -9  125.94   11.24
 -12   7  -9  112.22   13.54
 -12   7 -10   73.41   10.20
 -12   7 -10   99.63   10.47
 -12   7 -10   48.37   12.95
 -12   7 -11    0.00    7.49
 -12   7 -11   -8.39    8.03
 -12   7 -11    2.17   10.65
 -12   7 -12   75.67    9.93
 -12   7 -12   50.40   12.32
 -12   7 -13   14.53    8.39
 -12   7 -13   19.49   11.69
 -12   6   5   -4.60    7.99
  12  -6  -5   -4.87    7.26
 -12   6   4   14.30    9.07
  12  -6  -4    7.81    7.31
 -12   6   3   13.13    8.44
 -12   6   2  165.78   13.27
 -12   6   1   84.74   10.20
 -12   6   0  117.00   10.56
 -12   6  -1   29.74    8.08
 -12   6  -2  378.93   20.21
 -12   6  -3  -12.81    7.22
 -12   6  -4    8.39    7.13
 -12   6  -6   60.91    9.25
 -12   6  -6   76.89    8.80
 -12   6  -6   55.50    6.54
 -12   6  -7  208.19   13.90
 -12   6  -7  223.94   13.76
 -12   6  -7  249.79   15.75
 -12   6  -8   44.45    8.89
 -12   6  -8   71.16    8.93
 -12   6  -8   78.96   10.60
 -12   6  -9   96.88   10.24
 -12   6  -9   82.21    9.84
 -12   6  -9   98.64   12.72
 -12   6 -10   11.05    8.35
 -12   6 -10    3.16    8.57
 -12   6 -10   -2.44   10.92
 -12   6 -11   88.39    8.62
 -12   6 -11   79.01   10.47
 -12   6 -11   69.67   13.54
 -12   6 -12    3.02    8.48
 -12   6 -12   -7.40   12.50
 -12   6 -13   12.54    9.02
 -12   6 -13   -0.14   11.64
 -12   6 -14   -1.04    8.03
 -12   6 -14   22.47   13.81
 -12   5   6   -0.99    7.99
  12  -5  -6    9.34    7.63
 -12   5   5  106.17   10.20
  12  -5  -5  108.16    9.57
 -12   5   4   15.52    8.71
  12  -5  -4    1.44    7.13
 -12   5   3   37.27    7.94
  12  -5  -3   12.41    6.77
 -12   5   2   56.18    9.97
 -12   5   1   44.40    9.25
 -12   5   0   19.40    7.76
 -12   5  -1  494.08   25.22
 -12   5  -2  179.99   12.81
 -12   5  -3   36.32    8.21
 -12   5  -4   64.84    8.89
 -12   5  -5   30.19    7.58
 -12   5  -5   42.28    8.44
 -12   5  -6   47.74    8.35
 -12   5  -6   23.37    7.45
 -12   5  -6   38.08    6.99
 -12   5  -7   84.24   10.06
 -12   5  -7  103.69    9.43
 -12   5  -7   85.51    9.79
 -12   5  -8   54.28    9.30
 -12   5  -8   40.02    8.26
 -12   5  -8   50.40    9.79
 -12   5  -9   52.25    8.39
 -12   5  -9   41.29    9.07
 -12   5  -9   63.08   10.92
 -12   5 -10  235.67   15.12
 -12   5 -10  258.64   15.30
 -12   5 -10  230.30   17.46
 -12   5 -11   42.14    9.11
 -12   5 -11   62.22   11.96
 -12   5 -12  138.12   11.96
 -12   5 -12  153.14   15.84
 -12   5 -13   14.17    8.71
 -12   5 -13   26.89   11.24
 -12   5 -14    9.61    9.43
 -12   5 -14    4.60   11.51
 -12   4   6    1.40    8.03
  12  -4  -6    4.42    7.81
 -12   4   5   -2.35    7.40
  12  -4  -5  -12.81    7.72
 -12   4   4   46.48    9.39
  12  -4  -4   70.07    9.16
 -12   4   3    1.04    8.26
  12  -4  -3    0.14    7.85
 -12   4   2    3.43    8.17
 -12   4   1  105.90   10.87
 -12   4   0    7.99    7.90
 -12   4  -1  589.29   29.46
 -12   4  -2    6.18    7.49
 -12   4  -3  236.26   14.85
 -12   4  -4   -2.89    7.49
 -12   4  -5  146.38   11.24
 -12   4  -5  157.07    9.93
 -12   4  -5  145.43   10.20
 -12   4  -6   34.43    8.93
 -12   4  -6   42.01    8.08
 -12   4  -6   19.54    7.63
 -12   4  -7   57.17    8.80
 -12   4  -7   43.09    8.93
 -12   4  -7   50.18    8.62
 -12   4  -8  140.60   11.82
 -12   4  -8  143.85   11.78
 -12   4  -8  131.76   12.36
 -12   4  -9  106.49   11.01
 -12   4  -9  100.08   10.74
 -12   4  -9  111.59   11.87
 -12   4 -10  218.80   14.57
 -12   4 -10  216.99   16.11
 -12   4 -11   -4.11    8.17
 -12   4 -11    7.58   10.96
 -12   4 -12   32.35    8.89
 -12   4 -12   24.41   12.32
 -12   4 -13    1.40    8.26
 -12   4 -13   21.25   11.10
 -12   4 -14    2.62    9.43
 -12   4 -14   -9.79   11.37
 -12   4 -15   10.02    9.70
 -12   4 -15   19.94   12.32
 -12   3   6    9.25    8.17
  12  -3  -6   12.63    7.76
 -12   3   5    8.26    7.40
  12  -3  -5    4.29    8.44
 -12   3   4   -8.75    7.94
  12  -3  -4   19.72    7.63
 -12   3   3    6.27    8.21
  12  -3  -3   -0.86    7.63
 -12   3   2   28.43    7.94
 -12   3   1   19.54    8.17
 -12   3   0  522.96   26.26
 -12   3  -1  113.12   10.06
 -12   3  -2  305.57   17.10
 -12   3  -3   75.58    9.16
 -12   3  -4    2.26    7.81
 -12   3  -4   -2.39    4.56
 -12   3  -4   -1.08    5.55
 -12   3  -5   22.02    7.54
 -12   3  -5   16.33    5.37
 -12   3  -5   16.02    6.27
 -12   3  -6   -0.90    7.45
 -12   3  -6    9.66    7.81
 -12   3  -6    9.30    6.95
 -12   3  -7  396.80   21.48
 -12   3  -7  414.58   22.52
 -12   3  -7  394.41   22.83
 -12   3  -8   93.36   10.38
 -12   3  -8   80.14   10.56
 -12   3  -8   81.94    9.70
 -12   3  -9    9.93    7.58
 -12   3  -9   26.40    7.81
 -12   3  -9   30.64    9.61
 -12   3 -10   12.59    7.76
 -12   3 -10   11.82   10.47
 -12   3 -11   12.23    8.66
 -12   3 -11   20.21    9.75
 -12   3 -12    0.23    6.90
 -12   3 -12   24.86   11.51
 -12   3 -13   -6.36    8.89
 -12   3 -13    7.94   11.28
 -12   3 -14    9.52    8.71
 -12   3 -14    2.57   11.33
 -12   3 -15   12.68    9.48
 -12   3 -15    7.94   11.87
 -12   2   7   11.96   10.69
 -12   2   7    5.50   13.13
 -12   2   6    5.46    8.75
  12  -2  -6    1.80    8.39
 -12   2   6    1.85   10.56
 -12   2   5    1.58    6.72
  12  -2  -5   -4.11    8.30
 -12   2   5  -18.95   10.20
 -12   2   4    4.56    7.49
  12  -2  -4    1.58    8.08
 -12   2   4    0.27    7.94
 -12   2   3   16.65    9.16
  12  -2  -3   -2.21    7.72
 -12   2   3    8.62    6.54
 -12   2   2   17.78    8.21
  12  -2  -2    1.40    6.18
 -12   2   2    0.18    5.73
 -12   2   1  203.00   13.81
 -12   2   1  219.83   12.45
 -12   2   0   65.88    9.57
 -12   2  -1  214.24   14.66
 -12   2  -1  242.21   13.31
 -12   2  -1  238.11   13.45
 -12   2  -2  258.28   16.02
 -12   2  -2  302.63   16.70
 -12   2  -2  278.72   16.06
 -12   2  -3   15.25    7.81
 -12   2  -3    9.02    5.23
 -12   2  -3   13.94    6.18
 -12   2  -4   -9.39    8.21
 -12   2  -4    0.59    5.55
 -12   2  -4    8.12    5.91
 -12   2  -5  478.29   24.55
 -12   2  -5  430.19   23.96
 -12   2  -5  494.54   26.98
 -12   2  -6   66.28    8.12
 -12   2  -6   52.25    8.53
 -12   2  -6   56.27    8.48
 -12   2  -7   74.81    9.97
 -12   2  -7   61.37    9.48
 -12   2  -7   65.25    8.93
 -12   2  -8  151.29   11.60
 -12   2  -8  114.29   11.01
 -12   2  -8  172.73   13.58
 -12   2  -9    2.89    8.03
 -12   2  -9   11.19    6.36
 -12   2  -9    7.04    9.16
 -12   2 -10  133.43   11.78
 -12   2 -10  118.58   12.77
 -12   2 -11   26.89    8.98
 -12   2 -11   19.36    8.84
 -12   2 -12   74.41    9.07
 -12   2 -12   35.74   10.20
 -12   2 -13    6.27    8.35
 -12   2 -13   22.74   12.18
 -12   2 -14    1.49    9.39
 -12   2 -14    0.86   11.51
 -12   2 -15   18.32    9.61
 -12   2 -15  -14.53   11.60
 -12   2 -16   23.33    9.57
 -12   2 -16   16.20   11.37
 -12   1   7    5.78    9.75
  12  -1  -7    1.40    8.71
 -12   1   7   -2.89   13.58
 -12   1   6    5.73    8.12
  12  -1  -6    0.86    8.08
 -12   1   6  -16.70   12.72
 -12   1   5   51.66    9.75
  12  -1  -5   52.52    9.93
 -12   1   5   14.21   11.91
 -12   1   4   -1.80    8.17
  12  -1  -4   -6.54    7.94
 -12   1   4   -4.15    9.88
 -12   1   3   85.60    9.84
  12  -1  -3   75.67    9.66
 -12   1   3  112.58   11.91
 -12   1   2   52.52    9.25
  12  -1  -2   75.08    8.89
 -12   1   2   80.45    9.20
 -12   1   1   33.84    8.53
 -12   1   1   38.26    7.49
 -12   1   0    1.17    7.90
 -12   1   0   15.12    6.68
 -12   1  -1  234.41   15.16
 -12   1  -1  238.56   14.53
 -12   1  -2  164.15   12.18
 -12   1  -2  167.54   11.33
 -12   1  -3   37.72    7.81
 -12   1  -3   44.58    6.63
 -12   1  -3   33.48    6.72
 -12   1  -4    4.06    7.40
 -12   1  -4    2.48    5.28
 -12   1  -4    3.34    6.59
 -12   1  -5   85.42    9.07
 -12   1  -5   74.72    9.34
 -12   1  -6  565.38   27.84
 -12   1  -6  608.24   29.33
 -12   1  -6  656.07   35.60
 -12   1  -7  112.26   11.01
 -12   1  -7  119.26   11.15
 -12   1  -7   98.05   11.96
 -12   1  -8  385.43   23.19
 -12   1  -9    3.52    8.03
 -12   1  -9  -13.36    8.89
 -12   1 -10  435.47   23.01
 -12   1 -10  406.55   24.55
 -12   1 -11   21.16    9.07
 -12   1 -11    3.52    9.75
 -12   1 -12   -4.02    6.86
 -12   1 -12   10.33   10.06
 -12   1 -13    8.53    8.39
 -12   1 -13   -7.85   10.20
 -12   1 -14   11.46    9.02
 -12   1 -14   -4.87   10.38
 -12   1 -15    7.22    9.39
 -12   1 -15    8.57   12.54
 -12   1 -16   54.91   10.69
 -12   1 -16   69.62   12.36
 -12   0   7    2.48    9.57
  12   0  -7    1.08    9.16
 -12   0   7   -0.05   16.15
 -12   0   6   22.25    8.39
  12   0  -6   11.05    7.81
 -12   0   6   -7.81   12.90
 -12   0   5   17.01    7.35
  12   0  -5   27.89    8.71
 -12   0   5    1.71   11.60
 -12   0   4   31.13    9.20
  12   0  -4   77.97    9.66
 -12   0   4   40.84   10.38
 -12   0   3   13.85    8.21
  12   0  -3   21.61    8.26
 -12   0   3   22.34    8.71
 -12   0   2   31.31    8.30
  12   0  -2   23.10    7.49
 -12   0   2   23.73    8.98
 -12   0   1   24.46    8.12
 -12   0   1   34.61    8.44
 -12   0   0  321.58   18.18
 -12   0   0  302.81   18.09
 -12   0  -1  270.42   16.24
 -12   0  -1  298.80   17.78
 -12   0  -2  119.03   11.01
 -12   0  -2  115.92    9.34
 -12   0  -3  167.22   12.41
 -12   0  -3  180.31   12.50
 -12   0  -4    9.75    8.08
 -12   0  -4    2.84    6.45
 -12   0  -4   13.18    7.31
 -12   0  -5  363.82   20.30
 -12   0  -5  360.48   21.21
 -12   0  -6   26.22    8.12
 -12   0  -6   33.75    8.26
 -12   0  -6   52.12    8.84
 -12   0  -7  635.32   31.22
 -12   0  -7  712.93   34.20
 -12   0  -7  656.97   35.56
 -12   0  -8   26.04    7.45
 -12   0  -8    8.35    8.26
 -12   0  -8   11.82    7.49
 -12   0  -9  317.88   18.09
 -12   0  -9  301.55   19.90
 -12   0 -10   52.79    8.26
 -12   0 -10   38.90    9.30
 -12   0 -11   68.13   10.11
 -12   0 -11   60.51   10.02
 -12   0 -12   40.75    8.98
 -12   0 -12   27.21    9.16
 -12   0 -13    3.20    8.44
 -12   0 -13    8.08   10.15
 -12   0 -14   -0.86    8.39
 -12   0 -14   35.29   11.91
 -12   0 -15   13.09    7.99
 -12   0 -15  -15.75   11.01
 -12   0 -16   21.12    8.71
 -12   0 -16   21.21   11.60
 -12  -1   7   16.42    9.84
 -12  -1   7   -4.92   14.66
 -12  -1   6    5.69    9.07
  12   1  -6   -2.03    8.26
 -12  -1   6   -0.77   12.63
 -12  -1   5   14.17    7.94
  12   1  -5  -14.17    8.08
 -12  -1   5   21.57   11.87
 -12  -1   4   37.45    9.25
  12   1  -4   43.59    8.84
 -12  -1   4   15.52    9.30
 -12  -1   3   73.28    9.84
  12   1  -3   59.20    9.20
 -12  -1   3   55.77   10.65
 -12  -1   2  140.15   12.18
  12   1  -2  124.36   10.33
 -12  -1   2  129.77   11.64
 -12  -1   1   62.00    9.57
 -12  -1   1   62.22    9.11
 -12  -1   0  786.47   37.77
 -12  -1   0  809.03   42.41
 -12  -1  -1   81.13    9.39
 -12  -1  -1   85.55    9.25
 -12  -1  -2  289.95   16.38
 -12  -1  -2  287.83   17.51
 -12  -1  -3   -3.61    6.86
 -12  -1  -3   -1.35    5.91
 -12  -1  -4    3.52    7.31
 -12  -1  -4   -1.44    6.27
 -12  -1  -5   23.33    7.45
 -12  -1  -5   12.50    5.82
 -12  -1  -6  344.91   18.64
 -12  -1  -6  301.59   17.42
 -12  -1  -6  337.24   20.03
 -12  -1  -7   56.45    9.07
 -12  -1  -7   58.21    9.34
 -12  -1  -7   46.43    8.26
 -12  -1  -8  155.13   12.50
 -12  -1  -8  166.95   12.81
 -12  -1  -8  163.30   12.95
 -12  -1  -9   88.17   10.60
 -12  -1  -9  106.26   11.55
 -12  -1 -10   95.30   10.42
 -12  -1 -10  102.92   12.00
 -12  -1 -11   50.63    9.02
 -12  -1 -11   27.43    9.88
 -12  -1 -12   16.33    8.93
 -12  -1 -12    8.80    9.84
 -12  -1 -13   10.51    7.63
 -12  -1 -13    8.21    9.66
 -12  -1 -14   11.69    9.02
 -12  -1 -14   16.88   11.10
 -12  -1 -15   13.72    8.71
 -12  -1 -15   -2.89   10.60
 -12  -1 -16    3.16    8.93
 -12  -1 -16   -6.77   10.11
 -12  -2   6   13.54    8.89
  12   2  -6   11.51    8.26
 -12  -2   6    1.80   12.90
 -12  -2   5   -0.99    8.35
  12   2  -5    9.70    8.21
 -12  -2   5    9.57   11.24
 -12  -2   4    4.83    8.08
  12   2  -4   11.78    8.08
 -12  -2   4    1.04    9.43
 -12  -2   3   20.17    9.16
  12   2  -3   24.59    7.90
 -12  -2   3   26.26    9.84
 -12  -2   2   16.51    7.76
 -12  -2   2   22.06    8.26
 -12  -2   1  121.69   10.51
 -12  -2   1   85.96   10.06
 -12  -2   0    3.02    7.54
 -12  -2   0    0.86    6.99
 -12  -2  -1  283.14   16.11
 -12  -2  -1  267.44   16.79
 -12  -2  -2   83.25    9.61
 -12  -2  -2   96.70    9.75
 -12  -2  -3   70.57    9.43
 -12  -2  -3   60.60    8.21
 -12  -2  -4    2.84    8.17
 -12  -2  -4    0.14    6.72
 -12  -2  -5  435.20   23.06
 -12  -2  -5  395.22   21.43
 -12  -2  -5  423.74   24.28
 -12  -2  -6   94.21   10.38
 -12  -2  -6  101.39   10.42
 -12  -2  -7   13.67    7.81
 -12  -2  -7   22.83    8.35
 -12  -2  -7   12.23    8.57
 -12  -2  -8  282.82   16.65
 -12  -2  -8  236.26   15.57
 -12  -2  -8  236.62   16.92
 -12  -2  -9   42.82    9.34
 -12  -2  -9   66.64   10.38
 -12  -2 -10  121.15   11.55
 -12  -2 -10  138.48   13.67
 -12  -2 -11    1.17    8.80
 -12  -2 -11    0.45   10.24
 -12  -2 -12   -0.50    9.02
 -12  -2 -12   -3.43    9.39
 -12  -2 -13  116.32   11.24
 -12  -2 -13  128.46   13.09
 -12  -2 -14   12.50    8.93
 -12  -2 -14    2.30    9.93
 -12  -2 -15    7.54    8.57
 -12  -2 -15   15.75   10.24
 -12  -2 -16   55.09    8.66
 -12  -2 -16   72.01   11.19
 -12  -3   6   25.76   10.06
  12   3  -6   40.61    8.71
 -12  -3   6   29.65   12.95
 -12  -3   5    0.27    8.84
  12   3  -5   16.02    8.89
 -12  -3   5   12.59   10.87
 -12  -3   4    6.99    8.44
  12   3  -4    8.71    8.66
 -12  -3   4   18.27   10.92
 -12  -3   3   33.53    9.07
  12   3  -3   27.80    8.62
 -12  -3   3   31.77   10.24
 -12  -3   2  287.65   17.51
 -12  -3   2  304.30   19.04
 -12  -3   1   15.16    8.75
 -12  -3   1    2.21    7.99
 -12  -3   0   50.94    9.84
 -12  -3   0   78.74    9.52
 -12  -3  -1  217.62   14.66
 -12  -3  -1  211.31   14.66
 -12  -3  -2   12.63    7.81
 -12  -3  -2   37.00    8.21
 -12  -3  -3   28.16    7.45
 -12  -3  -3   31.95    8.12
 -12  -3  -4   87.18    9.20
 -12  -3  -4   95.61    9.39
 -12  -3  -5  282.42   16.60
 -12  -3  -5  284.27   16.15
 -12  -3  -5  263.51   16.60
 -12  -3  -6   30.82    7.67
 -12  -3  -6    3.02    7.72
 -12  -3  -7  314.68   18.05
 -12  -3  -7  345.63   19.36
 -12  -3  -8    3.43    8.30
 -12  -3  -8   -9.70    7.85
 -12  -3  -8    2.75    7.81
 -12  -3  -9  122.69   11.87
 -12  -3  -9  128.28   12.72
 -12  -3 -10   50.99    9.61
 -12  -3 -10   77.56   11.05
 -12  -3 -11   97.64   11.15
 -12  -3 -11   71.61   10.60
 -12  -3 -12   13.54    8.80
 -12  -3 -12    2.71    8.75
 -12  -3 -13  119.62   11.87
 -12  -3 -13  110.32   12.72
 -12  -3 -14    5.64    8.08
 -12  -3 -14   18.41   10.24
 -12  -3 -15   -3.20    8.03
 -12  -3 -15   -3.79    9.75
 -12  -3 -16   68.68    9.30
 -12  -3 -16   46.30   10.42
 -12  -4   6    1.94   10.06
  12   4  -6  -22.83    7.90
 -12  -4   6    4.92   12.00
 -12  -4   5   -8.89    8.66
  12   4  -5    3.38    7.76
 -12  -4   5   -6.95   11.82
 -12  -4   4   26.17    9.20
  12   4  -4   36.37    8.89
 -12  -4   4   39.48   10.83
 -12  -4   3  156.26   12.54
  12   4  -3  157.79   11.87
 -12  -4   3  148.00   13.54
 -12  -4   2   31.00    9.20
 -12  -4   2   41.06    9.61
 -12  -4   1    2.84    8.26
 -12  -4   1   12.59    8.62
 -12  -4   0  461.15   23.55
 -12  -4   0  469.27   26.89
 -12  -4  -1    7.54    7.45
 -12  -4  -1    2.57    8.17
 -12  -4  -2  134.78   11.96
 -12  -4  -2  121.51   10.60
 -12  -4  -3   -1.40    7.81
 -12  -4  -3   16.20    7.54
 -12  -4  -4  154.59   12.18
 -12  -4  -4  139.83   11.82
 -12  -4  -5    4.74    7.63
 -12  -4  -5    5.87    7.13
 -12  -4  -5    6.27    8.03
 -12  -4  -6  253.90   15.34
 -12  -4  -6  250.52   15.30
 -12  -4  -7    1.94    7.54
 -12  -4  -7    5.46    7.85
 -12  -4  -8    3.97    8.08
 -12  -4  -8   15.79    8.30
 -12  -4  -9  345.45   19.09
 -12  -4  -9  320.68   20.40
 -12  -4 -10   28.38    8.44
 -12  -4 -10   58.16    9.52
 -12  -4 -11   58.43    9.93
 -12  -4 -11   35.24    9.84
 -12  -4 -12    1.58    8.26
 -12  -4 -12    7.08    9.93
 -12  -4 -13   -5.87    8.03
 -12  -4 -13   -1.76    9.39
 -12  -4 -14    7.58    8.66
 -12  -4 -14   -3.25    9.11
 -12  -4 -15   -1.53    7.54
 -12  -4 -15    4.60    9.61
 -12  -4 -16    7.40    7.72
 -12  -4 -16   11.33    8.93
 -12  -5   5   -3.65   10.06
  12   5  -5   10.92    8.35
 -12  -5   5    2.21   11.87
 -12  -5   4    9.16    9.11
  12   5  -4    7.58    8.21
 -12  -5   4   13.72   10.38
 -12  -5   3   75.76   10.15
 -12  -5   3   67.41   11.78
 -12  -5   2  -16.88    9.48
 -12  -5   2    5.10    8.08
 -12  -5   1   12.27    8.03
 -12  -5   1   20.80    8.21
 -12  -5   0   55.18    9.48
 -12  -5   0   35.24    9.11
 -12  -5  -1   52.34    9.11
 -12  -5  -1   66.33    8.98
 -12  -5  -2    9.16    7.58
 -12  -5  -2   -2.75    7.31
 -12  -5  -3    4.38    7.35
 -12  -5  -3   -4.33    7.67
 -12  -5  -4  149.80   11.10
 -12  -5  -4  157.79   12.50
 -12  -5  -5   91.82    9.11
 -12  -5  -5  107.16    9.75
 -12  -5  -5  126.07   11.96
 -12  -5  -6  435.83   22.56
 -12  -5  -6  431.55   22.15
 -12  -5  -7   79.01    9.39
 -12  -5  -7  101.89    9.97
 -12  -5  -8  318.06   18.45
 -12  -5  -8  294.51   17.69
 -12  -5  -9    9.11    7.94
 -12  -5  -9   13.00    8.30
 -12  -5 -10  179.45   13.22
 -12  -5 -10  205.67   16.47
 -12  -5 -11   -2.03    7.81
 -12  -5 -11   -6.59    9.39
 -12  -5 -12    2.17    8.89
 -12  -5 -12  -13.67    8.89
 -12  -5 -13    6.81    8.84
 -12  -5 -13    2.48    8.35
 -12  -5 -14    4.47    9.16
 -12  -5 -14   10.69    9.07
 -12  -5 -15    9.25    9.07
 -12  -5 -15   18.86    9.39
 -12  -5 -16   33.66    8.89
 -12  -5 -16   33.53    9.79
 -12  -6   5   10.83   11.82
  12   6  -5    0.50    9.16
 -12  -6   5    2.08   10.60
 -12  -6   4  -12.23    9.79
 -12  -6   4   -2.21    9.61
 -12  -6   3   42.96    9.48
 -12  -6   3   37.90    9.57
 -12  -6   2  108.43   10.87
 -12  -6   2  128.64   12.86
 -12  -6   1   18.50    8.53
 -12  -6   1   22.97   10.15
 -12  -6   0   23.60    8.84
 -12  -6   0   14.57    9.02
 -12  -6  -1  127.56   10.78
 -12  -6  -1  133.83   11.82
 -12  -6  -2   27.52    6.95
 -12  -6  -2   29.28    7.72
 -12  -6  -3   -5.50    7.72
 -12  -6  -3   -0.14    8.17
 -12  -6  -4    0.09    6.86
 -12  -6  -4   -0.23    7.99
 -12  -6  -4    9.39    7.26
 -12  -6  -5  530.63   26.35
 -12  -6  -5  526.12   26.49
 -12  -6  -5  560.41   31.00
 -12  -6  -6   80.18    9.34
 -12  -6  -6   77.97    9.25
 -12  -6  -6   81.08    9.93
 -12  -6  -7  210.31   14.08
 -12  -6  -7  240.14   15.43
 -12  -6  -8  146.65   11.69
 -12  -6  -8  166.27   12.72
 -12  -6  -9  422.57   22.15
 -12  -6  -9  456.63   23.51
 -12  -6 -10   13.09    8.62
 -12  -6 -10   13.58    8.57
 -12  -6 -11    3.84    9.11
 -12  -6 -11   11.73    8.48
 -12  -6 -12   -3.38    8.84
 -12  -6 -12   -4.60    9.11
 -12  -6 -13   14.62    9.34
 -12  -6 -13   11.24    9.39
 -12  -6 -14  164.92   13.49
 -12  -6 -14  160.86   13.81
 -12  -6 -15   30.41    8.62
 -12  -6 -15   35.01    9.52
 -12  -6 -16    2.84    8.21
 -12  -6 -16   19.99    8.53
 -12  -7   4   69.62   12.54
 -12  -7   4   73.50   11.51
 -12  -7   3   11.19   10.06
 -12  -7   3    9.52    9.34
 -12  -7   2  516.19   25.95
 -12  -7   2  526.57   30.05
 -12  -7   1    4.47    9.30
 -12  -7   1   -1.31    8.12
 -12  -7   0  214.15   14.80
 -12  -7   0  203.18   14.94
 -12  -7  -1    3.25    8.12
 -12  -7  -1   16.02    7.81
 -12  -7  -2    7.35    7.54
 -12  -7  -2   24.19    8.21
 -12  -7  -3   24.82    7.58
 -12  -7  -3   16.88    8.89
 -12  -7  -4  203.73   13.45
 -12  -7  -4  198.85   13.00
 -12  -7  -4  209.95   14.62
 -12  -7  -5  116.69   10.51
 -12  -7  -5  113.48    9.66
 -12  -7  -5  134.28   11.55
 -12  -7  -6   70.62    9.48
 -12  -7  -6   56.67    8.80
 -12  -7  -6   64.34    9.20
 -12  -7  -7  181.84   13.22
 -12  -7  -7  171.15   11.60
 -12  -7  -8   60.73    9.02
 -12  -7  -8   51.53    7.94
 -12  -7  -9  267.44   16.11
 -12  -7  -9  245.19   14.94
 -12  -7 -10    5.14    8.62
 -12  -7 -11   17.42    8.66
 -12  -7 -11  -11.96    9.52
 -12  -7 -12    6.63    9.16
 -12  -7 -12   -2.75    8.66
 -12  -7 -13  351.05   20.26
 -12  -7 -13  372.35   22.70
 -12  -7 -14   30.86    9.52
 -12  -7 -14   39.39    9.39
 -12  -7 -15    4.60    8.89
 -12  -7 -15    0.72    9.11
 -12  -7 -16   -2.62    9.57
 -12  -8   4    7.49   12.95
 -12  -8   4  -12.77   10.11
 -12  -8   3  102.11   12.09
 -12  -8   3   92.91   12.14
 -12  -8   2    7.67    8.62
 -12  -8   2   -8.80    8.53
 -12  -8   1    2.26    7.72
 -12  -8   1    2.30    9.11
 -12  -8   0  165.01   12.95
 -12  -8   0  205.53   15.61
 -12  -8  -1   54.01    8.66
 -12  -8  -1   41.38    9.75
 -12  -8  -2   14.53    7.72
 -12  -8  -2   20.58    8.93
 -12  -8  -3   41.96    7.54
 -12  -8  -3   33.30    7.85
 -12  -8  -3   43.36   10.06
 -12  -8  -4   15.88    6.95
 -12  -8  -4   14.85    6.99
 -12  -8  -4    6.90    8.39
 -12  -8  -5  -12.05    6.90
 -12  -8  -5   12.05    7.67
 -12  -8  -5    2.03    7.99
 -12  -8  -6  390.39   20.49
 -12  -8  -6  337.83   18.50
 -12  -8  -6  358.27   21.61
 -12  -8  -7    3.84    7.81
 -12  -8  -7   -3.11    6.54
 -12  -8  -7    5.19    7.58
 -12  -8  -8    1.04    7.76
 -12  -8  -8   16.42    7.35
 -12  -8  -9   15.84    8.30
 -12  -8  -9    6.00    7.63
 -12  -8 -10   24.05    8.39
 -12  -8 -11   18.91    8.89
 -12  -8 -11   28.92    9.11
 -12  -8 -12    1.35    8.71
 -12  -8 -12   12.63    9.30
 -12  -8 -13   93.27   11.19
 -12  -8 -13   64.84   10.60
 -12  -8 -14   21.52    9.07
 -12  -8 -14   22.52    8.98
 -12  -8 -15   84.24   11.82
 -12  -8 -15   82.48   11.82
 -12  -9   3   24.05   12.00
 -12  -9   3   35.15    9.88
 -12  -9   2   29.87    9.97
 -12  -9   2   23.96    9.97
 -12  -9   1    2.26    8.80
 -12  -9   1    7.81    8.75
 -12  -9   0   -4.51    9.07
 -12  -9   0   -1.94    8.30
 -12  -9  -1    1.44    8.84
 -12  -9  -1   13.90    8.30
 -12  -9  -2    1.94    6.77
 -12  -9  -2    8.62    8.93
 -12  -9  -2   -3.75    9.30
 -12  -9  -3  -14.30    7.35
 -12  -9  -3    6.86    8.80
 -12  -9  -3  -11.01    8.48
 -12  -9  -4   11.69    7.90
 -12  -9  -4    4.74    8.53
 -12  -9  -4    9.52    7.45
 -12  -9  -5  218.84   14.17
 -12  -9  -5  219.70   13.85
 -12  -9  -5  232.38   15.84
 -12  -9  -6   41.15    8.21
 -12  -9  -6   26.94    8.53
 -12  -9  -6   21.97    7.54
 -12  -9  -7   14.26    8.30
 -12  -9  -7   29.42    7.67
 -12  -9  -7   22.38    7.49
 -12  -9  -8   83.75    9.93
 -12  -9  -8   77.74    9.70
 -12  -9  -9   86.68   10.38
 -12  -9  -9   74.41    9.16
 -12  -9 -10   32.53    9.16
 -12  -9 -10   49.77    9.52
 -12  -9 -11    8.89    9.34
 -12  -9 -12    1.35   10.02
 -12  -9 -12    7.67    8.12
 -12  -9 -13   30.37    9.75
 -12  -9 -13   18.64    8.35
 -12  -9 -14   96.61   12.72
 -12  -9 -14  131.98   12.09
 -12 -10   2  236.57   18.91
 -12 -10   2  230.17   16.65
 -12 -10   1   -0.18   11.19
 -12 -10   1    1.26    8.30
 -12 -10   0   17.51    9.75
 -12 -10   0    9.30    8.21
 -12 -10  -1   20.12    8.93
 -12 -10  -1   15.39    9.30
 -12 -10  -1   17.55    8.75
 -12 -10  -2    7.63    7.85
 -12 -10  -2    6.00    8.62
 -12 -10  -2    2.39    8.80
 -12 -10  -3    4.83    7.99
 -12 -10  -3   18.41    8.75
 -12 -10  -3    7.22    7.67
 -12 -10  -4   27.30    8.48
 -12 -10  -4   10.92    8.98
 -12 -10  -4   21.21    8.75
 -12 -10  -5  242.30   14.80
 -12 -10  -5  258.14   15.97
 -12 -10  -5  250.52   16.70
 -12 -10  -6    8.12    8.21
 -12 -10  -6    1.44    7.67
 -12 -10  -6    0.32    7.67
 -12 -10  -7  238.88   15.16
 -12 -10  -7  208.91   13.90
 -12 -10  -7  211.44   14.66
 -12 -10  -8   42.05    9.70
 -12 -10  -8   70.07    9.70
 -12 -10  -8   45.03    8.12
 -12 -10  -9  253.77   16.79
 -12 -10  -9  272.58   16.02
 -12 -10 -10   -8.71    9.07
 -12 -10 -10   -1.76    7.99
 -12 -10 -11   48.28   10.51
 -12 -10 -12   14.75    8.80
 -12 -10 -12    2.08    7.35
 -12 -10 -13   31.22   10.02
 -12 -10 -13   36.64    8.98
 -12 -10 -14   11.10   10.02
 -12 -10 -14    3.65    8.21
 -12 -11   1    7.22   13.76
 -12 -11   1    2.30    9.30
 -12 -11   0   24.37   11.24
 -12 -11   0   41.78   12.23
 -12 -11   0   44.08    9.02
 -12 -11  -1    3.97    9.79
 -12 -11  -1   -2.57   10.83
 -12 -11  -1    7.17    8.62
 -12 -11  -2   11.69    8.62
 -12 -11  -2   15.16   10.02
 -12 -11  -2   19.13    9.52
 -12 -11  -3   -9.66    9.25
 -12 -11  -3    4.15    9.07
 -12 -11  -3   12.50    7.31
 -12 -11  -4   52.30    9.48
 -12 -11  -4   34.61    9.16
 -12 -11  -4   39.08    8.35
 -12 -11  -5   -3.29    7.81
 -12 -11  -5    8.53    8.71
 -12 -11  -5   -4.78    7.17
 -12 -11  -6  146.24   12.86
 -12 -11  -6  151.79   12.00
 -12 -11  -6  169.03   12.59
 -12 -11  -7   16.56    8.98
 -12 -11  -7   -3.16    8.12
 -12 -11  -7   -0.59    6.81
 -12 -11  -8    0.63    9.02
 -12 -11  -8   -4.20    9.20
 -12 -11  -8    7.13    7.31
 -12 -11  -9  123.41   12.90
 -12 -11  -9   99.81   11.82
 -12 -11  -9  110.82   10.83
 -12 -11 -10   56.72   11.01
 -12 -11 -10   65.38   10.47
 -12 -11 -11   -2.98    9.20
 -12 -11 -11  -17.37    9.34
 -12 -11 -12    2.39    9.16
 -12 -11 -12    5.10    7.72
 -12 -11 -13   31.45   11.46
 -12 -11 -13   28.97    8.39
 -12 -12  -1   -8.62   11.15
 -12 -12  -1   -6.09   12.36
 -12 -12  -1   -6.95    8.57
 -12 -12  -2   20.12   11.46
 -12 -12  -2   14.30   10.24
 -12 -12  -2   32.62    9.25
 -12 -12  -3   52.57   11.24
 -12 -12  -3   45.75   10.24
 -12 -12  -3   65.43    9.88
 -12 -12  -4   72.19   11.01
 -12 -12  -4   90.51   11.51
 -12 -12  -4   78.83   10.38
 -12 -12  -5   73.41   11.91
 -12 -12  -5   70.07   10.78
 -12 -12  -5   76.48    9.70
 -12 -12  -6  212.48   15.93
 -12 -12  -6  195.20   14.12
 -12 -12  -6  192.53   14.12
 -12 -12  -7   40.16   11.15
 -12 -12  -7   31.18    9.57
 -12 -12  -7   33.35    8.84
 -12 -12  -8    4.83   11.10
 -12 -12  -8   20.30    9.39
 -12 -12  -8  -13.36    7.76
 -12 -12  -9    1.04   11.01
 -12 -12  -9    0.95   10.51
 -12 -12  -9  -10.11    7.35
 -12 -12 -10   17.55   10.78
 -12 -12 -10   12.32   10.47
 -12 -12 -10   20.35    7.85
 -12 -12 -11   10.92   11.82
 -12 -12 -11    9.16    8.71
 -12 -12 -12   28.11    6.86
 -12 -13  -3    9.20   12.00
 -12 -13  -3   22.11   10.69
 -12 -13  -3   19.63   10.24
 -12 -13  -4    5.05   12.05
 -12 -13  -4   -4.74    9.20
 -12 -13  -4   -0.18    8.03
 -12 -13  -5  160.72   12.68
 -12 -13  -6   15.75   13.45
 -12 -13  -6    5.69    9.66
 -12 -13  -6    6.63    8.08
 -12 -13  -7   18.50   12.23
 -12 -13  -7   38.35   11.37
 -12 -13  -7   29.96    8.44
 -12 -13  -8   11.91   12.36
 -12 -13  -8    1.76   10.51
 -12 -13  -8   -0.95    7.17
 -12 -13  -9  135.19   15.43
 -12 -13  -9  152.83   14.66
 -12 -13  -9  150.30   11.60
 -12 -13 -10   11.10   13.58
 -12 -13 -10   17.37   11.64
 -12 -13 -10   12.36    7.45
 -13  10  -1   48.37    8.44
 -13  10  -2   28.61    7.76
 -13  10  -3   72.65    8.57
 -13  10  -3   69.80    8.75
 -13  10  -4   40.84    8.17
 -13  10  -4   37.72    8.62
 -13  10  -5   -0.32    7.49
 -13  10  -5    2.48    8.08
 -13  10  -6   21.79    8.98
 -13  10  -6   53.15    8.80
 -13  10  -7    8.89    9.02
 -13  10  -7    7.54    8.44
 -13   9   1   15.03    9.25
 -13   9   0   10.87    8.26
 -13   9  -1  142.45   11.10
 -13   9  -2   -1.31    8.08
 -13   9  -3  150.03   11.33
 -13   9  -4   -5.37    7.35
 -13   9  -4   10.83    7.94
 -13   9  -5   68.72    8.71
 -13   9  -5   58.21    9.25
 -13   9  -6    3.25    7.26
 -13   9  -6   13.72    7.76
 -13   9  -7   87.54    9.57
 -13   9  -7   83.11    9.43
 -13   9  -8  -10.47    7.45
 -13   9  -8  -14.21    7.13
 -13   9  -9   12.27    8.62
 -13   9  -9    1.04    6.95
 -13   9  -9   -5.37   12.68
 -13   8   2    6.72   10.29
 -13   8   1  -13.49    9.20
 -13   8   0   34.79    8.75
 -13   8  -1   -3.84    8.12
 -13   8  -2   64.61    8.84
 -13   8  -3    1.85    7.35
 -13   8  -4   73.41    7.81
 -13   8  -4   83.84    9.30
 -13   8  -5   42.87    8.75
 -13   8  -5   47.29    8.80
 -13   8  -6   -8.62    7.72
 -13   8  -6   -2.75    7.81
 -13   8  -7   20.94    7.99
 -13   8  -7    5.73    7.72
 -13   8  -8   -0.63    7.13
 -13   8  -8   17.51    7.85
 -13   8  -8   -9.43    8.80
 -13   8  -9   34.92    8.53
 -13   8  -9   33.57    8.35
 -13   8  -9   16.47   13.27
 -13   8 -10   64.61    8.80
 -13   8 -10   50.27    8.39
 -13   8 -10   56.45   15.97
 -13   8 -11   56.40    9.61
 -13   8 -11   56.22    9.30
 -13   8 -11   31.90   15.03
 -13   7   3    1.26    9.02
 -13   7   2   -3.38    8.26
 -13   7   1    1.04    8.62
 -13   7   0   68.22    9.25
 -13   7  -1  250.88   15.07
 -13   7  -2   -4.06    7.45
 -13   7  -3   45.21    8.39
 -13   7  -4   58.61    8.89
 -13   7  -5   25.31    7.90
 -13   7  -5   24.77    7.72
 -13   7  -6    8.17    7.67
 -13   7  -6   15.43    7.26
 -13   7  -7   18.00    7.76
 -13   7  -7   10.51    7.35
 -13   7  -8   13.40    8.21
 -13   7  -8   18.36    7.99
 -13   7  -8   28.07    9.39
 -13   7  -9   14.53    7.72
 -13   7  -9   -3.34    7.85
 -13   7  -9    1.76   10.65
 -13   7 -10   60.91    9.66
 -13   7 -10   79.64   10.11
 -13   7 -10   63.80   13.22
 -13   7 -11    3.47    7.58
 -13   7 -11   24.05    8.12
 -13   7 -11   44.94   13.09
 -13   7 -12   54.64    9.39
 -13   7 -12   61.32    9.43
 -13   7 -12   39.98   13.04
 -13   6   4    1.22    9.02
 -13   6   3   54.73    8.89
 -13   6   2   -0.68    8.44
 -13   6   1  105.22   10.65
 -13   6   0   16.33    8.08
 -13   6  -1   51.80    9.20
 -13   6  -2   18.36    8.44
 -13   6  -3  322.44   18.14
 -13   6  -4    4.29    7.67
 -13   6  -5    4.42    6.86
 -13   6  -5   12.72    7.58
 -13   6  -6    6.86    7.76
 -13   6  -6    4.74    6.68
 -13   6  -7   29.06    7.63
 -13   6  -7    8.26    7.63
 -13   6  -7   12.45    7.35
 -13   6  -8   15.43    8.08
 -13   6  -8   43.45    8.08
 -13   6  -8   15.07    9.70
 -13   6  -9   66.01    8.80
 -13   6  -9   40.25    8.75
 -13   6  -9   82.48   12.32
 -13   6 -10   74.63   10.02
 -13   6 -10  101.30   10.92
 -13   6 -10   61.59   13.13
 -13   6 -11   13.00    8.84
 -13   6 -11    1.94    8.39
 -13   6 -11    4.15   13.04
 -13   6 -12  319.15   23.01
 -13   6 -13    3.75    8.84
 -13   6 -13   -0.27   13.63
 -13   5   4   19.04    9.43
 -13   5   2   31.99    9.34
 -13   5   1   64.57    9.57
 -13   5   0    2.48    7.45
 -13   5  -1  106.49   11.10
 -13   5  -2  141.59   11.91
 -13   5  -3  126.21   11.42
 -13   5  -4   45.71    8.21
 -13   5  -5   68.04    8.30
 -13   5  -5   47.38    8.35
 -13   5  -6    3.70    7.81
 -13   5  -6   -7.99    7.04
 -13   5  -7    1.94    6.99
 -13   5  -7    4.24    6.68
 -13   5  -7   -1.90    7.67
 -13   5  -8   20.49    8.08
 -13   5  -8   11.91    7.81
 -13   5  -8    2.30    8.93
 -13   5  -9   42.64   11.15
 -13   5 -10   -3.38    8.12
 -13   5 -10    0.68    8.12
 -13   5 -10   -7.94   11.24
 -13   5 -11  131.08   11.10
 -13   5 -11   95.25   10.92
 -13   5 -11  123.18   15.79
 -13   5 -12   19.90    9.20
 -13   5 -12    8.62   12.05
 -13   5 -13   48.37    9.97
 -13   5 -13   19.72   12.45
 -13   5 -14   35.01   14.94
 -13   4   5   74.41    9.75
 -13   4   4   30.32    8.08
  13  -4  -4   15.52    8.39
 -13   4   3    6.32    7.67
 -13   4   2   18.32    8.93
 -13   4   1   -3.29    8.12
 -13   4   0   87.67    9.48
 -13   4  -1  131.76   11.01
 -13   4  -2  110.50   10.29
 -13   4  -3   29.78    8.21
 -13   4  -4  198.99   13.00
 -13   4  -5    9.61    7.45
 -13   4  -6   30.46    8.30
 -13   4  -6   12.68    7.49
 -13   4  -6   10.92    5.64
 -13   4  -6   20.17    7.22
 -13   4  -7   27.43    7.76
 -13   4  -7   32.98    8.17
 -13   4  -7   24.68    8.98
 -13   4  -8    6.59    7.72
 -13   4  -8    0.59    7.40
 -13   4  -8    6.77    9.75
 -13   4  -9   -8.26   10.24
 -13   4 -10  232.20   14.71
 -13   4 -10  236.17   14.85
 -13   4 -10  227.10   18.64
 -13   4 -11  -10.78    8.39
 -13   4 -11  -19.04    8.66
 -13   4 -11  -12.54   11.05
 -13   4 -12   -9.02    8.75
 -13   4 -12   -5.46   10.42
 -13   4 -13  117.18   10.83
 -13   4 -13  144.71   15.84
 -13   4 -14   14.08    8.48
 -13   4 -14   -6.41   12.72
 -13   3   5    3.88    8.44
  13  -3  -5   15.12    7.76
 -13   3   4   -8.66    7.99
  13  -3  -4    5.05    7.40
 -13   3   3   12.27    7.58
 -13   3   2   -1.80    8.08
 -13   3   1   39.08    8.75
 -13   3   0    2.53    7.99
 -13   3  -1  202.87   13.90
 -13   3  -2   31.09    8.12
 -13   3  -3  306.47   17.73
 -13   3  -4   63.62    8.66
 -13   3  -5    6.81    8.08
 -13   3  -5   11.69    5.46
 -13   3  -5    6.36    6.68
 -13   3  -6   25.40    8.26
 -13   3  -6   -0.36    6.63
 -13   3  -6   18.23    7.94
 -13   3  -7    0.72    7.58
 -13   3  -7   14.21    8.17
 -13   3  -7   33.84    8.93
 -13   3  -8   64.43    9.11
 -13   3  -8   73.55    9.34
 -13   3  -8   74.27   11.05
 -13   3  -9  -10.33    7.85
 -13   3  -9   -8.89    7.40
 -13   3  -9   -0.63   10.24
 -13   3 -10  116.87   11.42
 -13   3 -10   93.76    9.88
 -13   3 -10  105.68   13.22
 -13   3 -11   23.15    8.53
 -13   3 -11   21.66   11.96
 -13   3 -12  273.08   16.47
 -13   3 -12  256.29   18.82
 -13   3 -13    0.50    9.02
 -13   3 -13    0.68   10.87
 -13   3 -14   49.32   10.51
 -13   3 -14   77.97   14.39
 -13   3 -15    0.09    9.43
 -13   3 -15    2.44   12.54
 -13   2   5    3.43    8.21
  13  -2  -5   -9.11    7.99
 -13   2   5    6.36    8.84
 -13   2   4    5.37    7.67
  13  -2  -4    2.84    8.57
 -13   2   4    2.53    5.73
 -13   2   3   -4.69    7.17
 -13   2   2    2.80    7.49
 -13   2   1   43.50    8.53
 -13   2   0   36.55    9.34
 -13   2  -1   73.68    9.52
 -13   2  -2   44.54    9.11
 -13   2  -3  356.91   19.67
 -13   2  -3  354.03   19.18
 -13   2  -3  372.12   20.53
 -13   2  -4   48.55    8.57
 -13   2  -4   29.42    6.59
 -13   2  -4   45.03    8.12
 -13   2  -5   -6.68    6.68
 -13   2  -5    5.55    6.45
 -13   2  -5    5.14    7.13
 -13   2  -6  116.46   10.60
 -13   2  -6  138.57   11.42
 -13   2  -6  144.30   11.69
 -13   2  -7   17.46    8.17
 -13   2  -7   32.89    7.94
 -13   2  -7   27.98    8.08
 -13   2  -8    7.22    7.58
 -13   2  -8    5.46    7.94
 -13   2  -8    9.16    8.71
 -13   2  -9  290.09   17.19
 -13   2  -9  274.61   16.74
 -13   2  -9  270.55   18.32
 -13   2 -10   -4.33    7.49
 -13   2 -10   -3.79    7.94
 -13   2 -10   19.18    9.88
 -13   2 -11   70.98    9.93
 -13   2 -11   54.78   11.51
 -13   2 -12   56.45    9.11
 -13   2 -12   55.18   12.68
 -13   2 -13   62.13   10.24
 -13   2 -13  103.78   13.45
 -13   2 -14   18.09    9.79
 -13   2 -14   24.28   12.50
 -13   2 -15    2.75    9.79
 -13   2 -15    8.48   11.64
 -13   1   5   48.69   10.33
  13  -1  -5   38.31    8.71
 -13   1   5   45.75   13.13
 -13   1   4   12.36    6.95
  13  -1  -4    5.14    8.53
 -13   1   4   11.60   12.05
 -13   1   3   17.96    7.40
 -13   1   3    2.84    9.75
 -13   1   2   76.80    9.75
 -13   1   2   80.18   10.65
 -13   1   1   44.40    8.08
 -13   1   1   40.88    8.03
 -13   1   0   19.99    7.76
 -13   1   0   13.45    6.81
 -13   1  -1   -1.53    6.86
 -13   1  -1    0.99    6.72
 -13   1  -2  469.72   23.55
 -13   1  -2  457.08   24.77
 -13   1  -2  475.13   25.85
 -13   1  -3  145.97   11.15
 -13   1  -3  133.88   10.65
 -13   1  -3  155.35   11.64
 -13   1  -4   44.31    7.40
 -13   1  -4   32.31    7.63
 -13   1  -4   24.10    7.67
 -13   1  -5  174.49   12.14
 -13   1  -5  175.21   12.05
 -13   1  -5  191.05   13.94
 -13   1  -6   31.50    7.40
 -13   1  -6   15.93    7.72
 -13   1  -6   12.23    8.44
 -13   1  -7  356.24   19.76
 -13   1  -7  315.27   17.55
 -13   1  -7  387.87   23.28
 -13   1  -8   51.53    8.84
 -13   1  -8   57.89   10.02
 -13   1  -8   80.05   11.46
 -13   1  -9  174.31   13.36
 -13   1  -9  197.86   14.21
 -13   1  -9  191.81   15.84
 -13   1 -10   57.17    9.66
 -13   1 -10   33.62    7.90
 -13   1 -10   28.52    9.30
 -13   1 -11  112.58   11.24
 -13   1 -11  147.91   14.66
 -13   1 -12   32.71    8.62
 -13   1 -12   25.99   11.05
 -13   1 -13   44.54    9.84
 -13   1 -13   41.51   11.87
 -13   1 -14    8.71    9.70
 -13   1 -14   -2.71   10.92
 -13   1 -15   82.62   11.46
 -13   1 -15   72.01   12.59
 -13   0   5   58.03    9.48
  13   0  -5   72.10    9.16
 -13   0   5   53.29   15.21
 -13   0   4    2.03    8.35
  13   0  -4  -10.06    8.03
 -13   0   4   -7.81   13.18
 -13   0   3   -0.86    8.08
 -13   0   3   -0.27   10.38
 -13   0   2   29.37    9.30
 -13   0   2   14.80    9.52
 -13   0   1    6.45    8.48
 -13   0   1   11.37    9.20
 -13   0   0   27.52    8.03
 -13   0   0   -3.43    8.26
 -13   0  -1  417.20   21.97
 -13   0  -1  453.02   25.45
 -13   0  -2    1.35    7.72
 -13   0  -2    2.98    6.54
 -13   0  -3  201.78   13.94
 -13   0  -3  238.38   15.21
 -13   0  -4   32.08    7.94
 -13   0  -4   19.45    6.81
 -13   0  -4   28.16    7.54
 -13   0  -5   48.15    8.48
 -13   0  -5   56.94    7.76
 -13   0  -5   39.84    8.44
 -13   0  -6   -4.11    6.81
 -13   0  -6    4.78    7.31
 -13   0  -6   -0.99    7.72
 -13   0  -7   62.18    9.66
 -13   0  -7   67.82    9.25
 -13   0  -7   77.52   10.06
 -13   0  -8   81.67    9.34
 -13   0  -8   75.53    9.43
 -13   0  -8   85.87   10.92
 -13   0  -9    2.44    7.26
 -13   0  -9    1.58    8.35
 -13   0  -9    6.86    8.71
 -13   0 -10  676.83   32.71
 -13   0 -10  730.97   39.80
 -13   0 -11   10.15    8.48
 -13   0 -11   -2.39    8.84
 -13   0 -12  115.33   10.87
 -13   0 -12   85.19   11.96
 -13   0 -13   46.75    9.43
 -13   0 -13   54.33   12.05
 -13   0 -14   33.80    9.48
 -13   0 -14   37.32   11.55
 -13   0 -15  -22.88    9.61
 -13   0 -15   -3.75   10.33
 -13   0 -16   12.86   12.72
  13   1  -5    7.81    7.85
 -13  -1   4    5.14    8.35
  13   1  -4    6.86    8.17
 -13  -1   4   11.42   11.51
 -13  -1   3   14.03    7.76
 -13  -1   3  -14.94    9.57
 -13  -1   2   18.23    8.26
 -13  -1   2   17.73   10.74
 -13  -1   1  120.02   10.87
 -13  -1   1  128.37   11.55
 -13  -1   0   64.93    9.30
 -13  -1   0   91.91    9.75
 -13  -1  -1  185.09   13.49
 -13  -1  -1  163.57   12.41
 -13  -1  -2   -2.03    7.08
 -13  -1  -2   14.44    7.26
 -13  -1  -3  331.10   18.05
 -13  -1  -3  297.13   18.05
 -13  -1  -4   14.21    7.72
 -13  -1  -4   23.87    6.90
 -13  -1  -5   46.61    8.03
 -13  -1  -5   57.35    8.03
 -13  -1  -5   31.72    7.90
 -13  -1  -6   54.78    9.34
 -13  -1  -6   40.79    7.81
 -13  -1  -6   58.03    9.39
 -13  -1  -7   14.35    8.66
 -13  -1  -7   20.08    7.81
 -13  -1  -7   32.22    8.89
 -13  -1  -8    8.08    8.35
 -13  -1  -8    9.43    8.35
 -13  -1  -8   16.65    8.75
 -13  -1  -9  164.74   14.71
 -13  -1 -10   60.91    9.61
 -13  -1 -10   57.39   10.47
 -13  -1 -11   17.78    8.80
 -13  -1 -11   23.19    9.66
 -13  -1 -12  139.65   12.23
 -13  -1 -12  175.66   15.34
 -13  -1 -13    4.65    7.35
 -13  -1 -13   27.66   10.60
 -13  -1 -14    1.94    7.63
 -13  -1 -14   14.57   11.24
 -13  -1 -15    2.08    8.57
 -13  -1 -15   11.55   10.60
 -13  -1 -16   15.03   10.33
 -13  -1 -16   22.52   10.69
 -13  -2   5   24.73    9.11
  13   2  -5   24.59    8.26
 -13  -2   5   32.89   12.81
 -13  -2   4   17.60    8.21
  13   2  -4   20.30    8.03
 -13  -2   4   18.23   12.09
 -13  -2   3    4.87    7.94
 -13  -2   3   12.86   11.01
 -13  -2   2    0.77    7.85
 -13  -2   2    7.58    9.70
 -13  -2   1   25.18    8.57
 -13  -2   1   22.70    8.84
 -13  -2   0   43.77    8.08
 -13  -2   0   46.75    8.80
 -13  -2  -1    7.22    7.45
 -13  -2  -1    2.93    6.95
 -13  -2  -2  505.36   25.45
 -13  -2  -2  471.97   26.44
 -13  -2  -3   47.83    9.07
 -13  -2  -3   69.67    8.75
 -13  -2  -4   50.94    9.02
 -13  -2  -4   38.22    7.58
 -13  -2  -5   32.89    8.12
 -13  -2  -5   28.43    8.44
 -13  -2  -5   22.47    7.63
 -13  -2  -6    5.37    8.30
 -13  -2  -6    4.33    7.31
 -13  -2  -6    7.45    6.45
 -13  -2  -7   18.36    8.17
 -13  -2  -7   -4.24    7.90
 -13  -2  -7    0.41    8.57
 -13  -2  -8   86.09    9.88
 -13  -2  -8  104.82   10.96
 -13  -2  -8   87.58   11.51
 -13  -2  -9   30.10    9.48
 -13  -2  -9   27.57    8.30
 -13  -2  -9   15.34    9.39
 -13  -2 -10    7.76    8.39
 -13  -2 -10    0.50    9.11
 -13  -2 -11   32.35    9.25
 -13  -2 -11   36.64   10.42
 -13  -2 -12    2.21    8.84
 -13  -2 -12  -13.45    9.75
 -13  -2 -13   45.21    9.79
 -13  -2 -13   59.06   12.00
 -13  -2 -14   -3.65    8.57
 -13  -2 -14    4.06   10.15
 -13  -2 -15   47.24    9.52
 -13  -2 -15   43.18   11.37
 -13  -2 -16    6.99    9.88
 -13  -2 -16  -11.01   11.05
 -13  -3   5   28.65    9.52
  13   3  -5   17.06    8.35
 -13  -3   5   35.20   12.68
 -13  -3   4    0.81    7.45
  13   3  -4   -8.57    6.77
 -13  -3   4  -11.05   13.13
 -13  -3   3   -1.67    8.17
 -13  -3   3    7.40   10.60
 -13  -3   2   17.37    7.22
 -13  -3   2    9.39   10.02
 -13  -3   1   47.60    9.34
 -13  -3   1   55.32    9.61
 -13  -3   0   14.48    8.66
 -13  -3   0   -1.17    7.85
 -13  -3  -1  107.75   11.33
 -13  -3  -1   91.28   10.20
 -13  -3  -2  248.85   16.02
 -13  -3  -2  242.35   16.24
 -13  -3  -3  205.85   13.99
 -13  -3  -3  215.59   14.85
 -13  -3  -4  198.81   13.04
 -13  -3  -4  220.65   14.98
 -13  -3  -5    1.31    7.13
 -13  -3  -5   -3.25    7.40
 -13  -3  -5    7.49    6.50
 -13  -3  -6   10.20    7.17
 -13  -3  -6   -5.23    7.63
 -13  -3  -6   -1.26    7.58
 -13  -3  -7   28.11    8.44
 -13  -3  -7   25.27    8.44
 -13  -3  -8    2.35    7.76
 -13  -3  -8    9.52    8.66
 -13  -3  -8   16.51    7.72
 -13  -3  -9   21.21    8.75
 -13  -3  -9    5.46    8.39
 -13  -3  -9   13.13    8.17
 -13  -3 -10  146.87   12.36
 -13  -3 -10  178.82   14.17
 -13  -3 -11   79.50   10.60
 -13  -3 -11   91.01   11.33
 -13  -3 -12   72.65   10.65
 -13  -3 -12   73.91   11.19
 -13  -3 -13   15.25    9.70
 -13  -3 -13   17.82   10.42
 -13  -3 -14   20.94    9.48
 -13  -3 -14    9.97   10.56
 -13  -3 -15   20.94    9.97
 -13  -3 -15   35.20   10.42
 -13  -3 -16    5.28    9.57
 -13  -3 -16    4.11    9.97
 -13  -4   4    7.94    8.35
 -13  -4   4    1.04   12.90
 -13  -4   3   35.20    9.48
 -13  -4   3   26.85   11.01
 -13  -4   2   20.85    8.66
 -13  -4   2   13.99   10.29
 -13  -4   1   14.03    8.44
 -13  -4   1    9.93    8.26
 -13  -4   0   -6.09    8.03
 -13  -4   0   14.62    9.11
 -13  -4  -1  306.11   17.33
 -13  -4  -1  289.28   18.77
 -13  -4  -2   24.28    7.72
 -13  -4  -2   43.00    8.21
 -13  -4  -3  185.18   13.09
 -13  -4  -3  206.21   14.94
 -13  -4  -4    0.63    7.35
 -13  -4  -4   -4.65    6.72
 -13  -4  -5   52.03    8.75
 -13  -4  -5   29.65    8.30
 -13  -4  -5   15.21    6.99
 -13  -4  -6   15.39    8.12
 -13  -4  -6    9.84    8.30
 -13  -4  -6   18.82    7.40
 -13  -4  -7  129.91   11.28
 -13  -4  -7  115.38   11.28
 -13  -4  -8   43.27    8.66
 -13  -4  -8   28.65    8.57
 -13  -4  -9   68.31    9.88
 -13  -4  -9   68.72    9.25
 -13  -4  -9   80.54   10.51
 -13  -4 -10  222.72   14.89
 -13  -4 -10  224.44   16.29
 -13  -4 -11   47.56    9.61
 -13  -4 -11   79.78   11.87
 -13  -4 -12   85.05   11.10
 -13  -4 -12  100.98   12.27
 -13  -4 -13   22.70    9.30
 -13  -4 -13   10.78   10.87
 -13  -4 -14    0.41    9.20
 -13  -4 -14    1.53    9.52
 -13  -4 -15   -3.79    9.57
 -13  -4 -15    6.45    9.75
 -13  -4 -16   18.32   10.15
 -13  -4 -16   23.64   10.29
 -13  -5   4    8.62   10.06
 -13  -5   4   28.79   12.63
 -13  -5   3   14.44    9.11
 -13  -5   3   -3.79   11.05
 -13  -5   2   12.14    8.71
 -13  -5   2   17.64   10.33
 -13  -5   1   11.69    8.62
 -13  -5   1    4.96    8.89
 -13  -5   0  321.99   18.55
 -13  -5   0  309.22   19.76
 -13  -5  -1   16.88    8.08
 -13  -5  -1   20.12    8.84
 -13  -5  -2  142.63   11.69
 -13  -5  -2  141.55   12.63
 -13  -5  -3   20.85    9.25
 -13  -5  -3   16.15    8.57
 -13  -5  -4   79.05    9.93
 -13  -5  -4  109.42   10.92
 -13  -5  -5  420.13   21.75
 -13  -5  -5  412.32   21.97
 -13  -5  -5  373.97   21.97
 -13  -5  -6  100.80    9.97
 -13  -5  -6   79.73    9.43
 -13  -5  -6   69.49    9.75
 -13  -5  -7  147.50   11.87
 -13  -5  -7  174.80   12.18
 -13  -5  -8   12.54    8.17
 -13  -5  -8    3.25    6.90
 -13  -5  -9  275.42   16.24
 -13  -5  -9  288.82   16.65
 -13  -5  -9  278.54   18.64
 -13  -5 -10   -4.11    7.90
 -13  -5 -10    4.11    7.13
 -13  -5 -10   -6.36    8.62
 -13  -5 -11  149.40   12.00
 -13  -5 -11  126.03   12.50
 -13  -5 -12   -9.25    8.44
 -13  -5 -12    7.31    8.89
 -13  -5 -13   34.70    9.20
 -13  -5 -13   27.93   10.42
 -13  -5 -14    7.08    8.98
 -13  -5 -14   13.13    9.57
 -13  -5 -15   17.19    9.30
 -13  -5 -15    4.87   10.20
 -13  -6   3    8.53    9.39
 -13  -6   3    7.35   11.46
 -13  -6   2   40.88    9.39
 -13  -6   2   27.39   10.06
 -13  -6   1   30.10    8.48
 -13  -6   1   28.43    9.84
 -13  -6   0   12.41    8.39
 -13  -6   0   16.65    9.25
 -13  -6  -1   66.01    9.66
 -13  -6  -1   65.70   10.42
 -13  -6  -2  272.49   16.88
 -13  -6  -2  241.13   16.70
 -13  -6  -3   81.04   10.60
 -13  -6  -3   98.37   10.24
 -13  -6  -4    0.77    7.22
 -13  -6  -4   17.60    7.04
 -13  -6  -4   17.37    8.12
 -13  -6  -5   51.30    8.80
 -13  -6  -5   33.62    8.03
 -13  -6  -5   31.22    7.49
 -13  -6  -6  107.84   10.83
 -13  -6  -6   99.58    9.88
 -13  -6  -6   73.68    9.30
 -13  -6  -7    0.41    7.94
 -13  -6  -7   -2.21    7.81
 -13  -6  -7   -4.65    7.31
 -13  -6  -8  129.23   11.33
 -13  -6  -8  125.12   11.15
 -13  -6  -9   62.85    8.80
 -13  -6  -9   60.69    9.97
 -13  -6 -10   53.92    9.66
 -13  -6 -10   51.98    8.98
 -13  -6 -10   23.33    8.30
 -13  -6 -11  160.63   12.36
 -13  -6 -11  140.06   13.00
 -13  -6 -12   38.35    9.57
 -13  -6 -12   27.34    9.79
 -13  -6 -13   -0.45    8.12
 -13  -6 -13    0.45    8.93
 -13  -6 -14    8.93    9.07
 -13  -6 -14   10.38    9.07
 -13  -6 -15   26.53   10.24
 -13  -6 -15   44.13   10.06
 -13  -7   3   58.12   12.68
 -13  -7   3   78.06   12.27
 -13  -7   2   13.54    9.16
 -13  -7   2   19.04    9.97
 -13  -7   1   40.20    9.70
 -13  -7   1   64.39   10.15
 -13  -7   0   -5.50    8.12
 -13  -7   0    1.08    8.30
 -13  -7  -1  176.88   13.22
 -13  -7  -1  170.43   13.31
 -13  -7  -2    4.87    7.94
 -13  -7  -2    6.18    7.90
 -13  -7  -3  167.85   13.40
 -13  -7  -3  173.94   13.76
 -13  -7  -4    3.97    7.54
 -13  -7  -4   -0.05    7.58
 -13  -7  -4    6.00    8.12
 -13  -7  -5   63.44    8.71
 -13  -7  -5   44.63    8.26
 -13  -7  -5   53.56    8.93
 -13  -7  -6   -8.21    7.31
 -13  -7  -6    5.78    8.26
 -13  -7  -6    3.47    7.81
 -13  -7  -7   83.39    9.39
 -13  -7  -7   89.03    9.48
 -13  -7  -7   65.97    9.52
 -13  -7  -8   75.31    9.52
 -13  -7  -8   79.05   10.15
 -13  -7  -9   13.81    7.72
 -13  -7  -9    3.20    8.03
 -13  -7 -10  142.81   12.18
 -13  -7 -10  139.56   11.87
 -13  -7 -11    5.91    9.25
 -13  -7 -11   -7.81    8.39
 -13  -7 -12    0.86    9.11
 -13  -7 -12    3.61    8.98
 -13  -7 -13    3.16    9.30
 -13  -7 -13   15.07    8.62
 -13  -7 -14   10.60   10.15
 -13  -7 -14   28.07    9.48
 -13  -7 -15    7.35   10.15
 -13  -7 -15   -5.28    9.48
 -13  -8   2    8.98   10.87
 -13  -8   2   10.96    9.66
 -13  -8   1    6.54    9.16
 -13  -8   1   12.59    8.12
 -13  -8   0   86.77   10.56
 -13  -8   0  126.21   12.09
 -13  -8  -1   45.08    9.61
 -13  -8  -1   53.92    9.84
 -13  -8  -2  128.19   11.15
 -13  -8  -2  132.93   12.50
 -13  -8  -3   79.19   10.33
 -13  -8  -3   63.17    8.30
 -13  -8  -3   81.85   10.33
 -13  -8  -4    1.80    8.17
 -13  -8  -4    5.55    7.76
 -13  -8  -4   10.87    8.66
 -13  -8  -5    4.38    7.45
 -13  -8  -5   29.10    8.80
 -13  -8  -5    7.35    8.08
 -13  -8  -6   56.40    9.30
 -13  -8  -6   49.54    8.30
 -13  -8  -6   72.47    9.61
 -13  -8  -7   23.51    7.72
 -13  -8  -7   34.02    8.89
 -13  -8  -7   27.25    7.99
 -13  -8  -8   -2.35    8.21
 -13  -8  -8    0.50    8.35
 -13  -8  -8    5.14    8.03
 -13  -8  -9  168.44   12.86
 -13  -8  -9  180.94   13.00
 -13  -8 -10    4.47    8.66
 -13  -8 -10   -7.08    8.35
 -13  -8 -11  118.85   12.00
 -13  -8 -11   92.68   10.24
 -13  -8 -11  131.26   12.00
 -13  -8 -12    2.84    9.75
 -13  -8 -12   -9.79    8.57
 -13  -8 -13   -7.40   10.56
 -13  -8 -13   27.12    8.62
 -13  -8 -14   64.39   12.45
 -13  -8 -14   48.24    9.88
 -13  -9   1    8.26   11.05
 -13  -9   1    8.57    8.71
 -13  -9   0  164.24   13.90
 -13  -9   0  156.89   13.09
 -13  -9  -1  101.93   10.60
 -13  -9  -1   81.35   10.51
 -13  -9  -2   66.74    9.84
 -13  -9  -2   59.88    9.97
 -13  -9  -2   53.24    9.30
 -13  -9  -3   14.53    8.75
 -13  -9  -3    9.16    7.58
 -13  -9  -3    6.09    8.30
 -13  -9  -4   48.91    8.62
 -13  -9  -4   41.92    8.53
 -13  -9  -4   36.91    9.20
 -13  -9  -5   17.55    8.62
 -13  -9  -5   10.47    8.35
 -13  -9  -5    6.99    9.25
 -13  -9  -6   79.87    9.70
 -13  -9  -6   58.25    9.30
 -13  -9  -6   62.31    9.97
 -13  -9  -7    3.70    8.35
 -13  -9  -7    6.99    7.45
 -13  -9  -7    1.90    7.72
 -13  -9  -8   23.64    8.71
 -13  -9  -8   36.59    8.57
 -13  -9  -8   27.57    8.26
 -13  -9  -9  152.74   12.90
 -13  -9  -9  125.98   11.28
 -13  -9 -10   57.21   10.02
 -13  -9 -10   66.37   10.11
 -13  -9 -11   41.20   10.29
 -13  -9 -11   31.09   10.11
 -13  -9 -12    6.81   10.15
 -13  -9 -12   14.48    8.03
 -13  -9 -13   15.43   11.01
 -13  -9 -13    4.11    8.75
 -13  -9 -14   -1.90   12.23
 -13  -9 -14    3.93    8.39
 -13 -10   0    4.29   11.78
 -13 -10   0   -0.90    8.17
 -13 -10  -1   71.11   11.55
 -13 -10  -1   32.40   10.38
 -13 -10  -1   37.95    9.25
 -13 -10  -2   49.86   11.05
 -13 -10  -2   61.41   10.51
 -13 -10  -2   69.53   10.38
 -13 -10  -3  166.68   12.77
 -13 -10  -3  162.62   13.49
 -13 -10  -3  175.57   14.39
 -13 -10  -4   -8.71    7.94
 -13 -10  -4    8.57    9.34
 -13 -10  -4    4.11    7.94
 -13 -10  -5   64.43   10.33
 -13 -10  -5   64.39    9.43
 -13 -10  -5   57.26    9.34
 -13 -10  -6   47.24    8.93
 -13 -10  -6   29.37    8.17
 -13 -10  -6   43.77    8.66
 -13 -10  -7    0.54    8.71
 -13 -10  -7  -16.06    9.25
 -13 -10  -7    2.80    7.81
 -13 -10  -8  162.98   12.59
 -13 -10  -8  154.95   13.40
 -13 -10  -8  160.68   12.54
 -13 -10  -9    5.73    9.07
 -13 -10  -9   -3.97    9.07
 -13 -10  -9   16.33    7.94
 -13 -10 -10   14.94   10.11
 -13 -10 -10   10.38    8.66
 -13 -10 -11   29.74   10.87
 -13 -10 -11   30.32    9.11
 -13 -10 -12   72.65   10.65
 -13 -10 -12   68.77   12.23
 -13 -10 -12   64.93    8.89
 -13 -10 -13   -2.62   10.42
 -13 -10 -13    1.08    8.21
 -13 -11  -1   67.68   12.72
 -13 -11  -1   61.05   13.81
 -13 -11  -1   88.48   10.74
 -13 -11  -2   76.17   12.72
 -13 -11  -2   71.52   12.63
 -13 -11  -2   67.82   10.78
 -13 -11  -3   16.70   11.01
 -13 -11  -3    4.47   10.33
 -13 -11  -3    9.34    9.02
 -13 -11  -4   30.82   10.33
 -13 -11  -4   33.89   11.19
 -13 -11  -4   42.28    9.25
 -13 -11  -5    0.90    9.52
 -13 -11  -5    4.51   10.42
 -13 -11  -5    5.96    8.30
 -13 -11  -6   17.10    9.93
 -13 -11  -6   -2.48    9.93
 -13 -11  -6    4.38    8.21
 -13 -11  -7  114.02   12.72
 -13 -11  -7  120.43   11.51
 -13 -11  -7  121.60   11.73
 -13 -11  -8   28.29   11.28
 -13 -11  -8    3.79    9.02
 -13 -11  -8    8.44    8.08
 -13 -11  -9  157.43   14.85
 -13 -11  -9  167.31   13.85
 -13 -11  -9  145.43   11.96
 -13 -11 -10   21.61   11.19
 -13 -11 -10    2.57    9.97
 -13 -11 -10    8.26    7.35
 -13 -11 -11   26.67   10.24
 -13 -11 -11   18.09   12.18
 -13 -12  -3    2.57   13.45
 -13 -12  -3   35.47   13.13
 -13 -12  -3   -5.05    9.20
 -13 -12  -4   -5.46   12.41
 -13 -12  -4  -19.31   11.01
 -13 -12  -4    1.13    8.08
 -13 -12  -5   33.03   12.45
 -13 -12  -5   35.20   11.87
 -13 -12  -5   26.80    9.52
 -13 -12  -6  117.77   13.76
 -13 -12  -6  143.26   15.12
 -13 -12  -6  146.24   12.41
 -13 -12  -7   51.80   13.72
 -13 -12  -7   65.70   12.81
 -13 -12  -7   55.73    9.20
 -13 -12  -8   17.91   12.72
 -13 -12  -8    5.14   11.05
 -13 -12  -8    6.77    7.58
 -13 -12  -9  112.94   15.88
 -13 -12  -9  105.09   13.27
 -13 -12  -9   98.37   10.20
 -13 -12 -10   22.43   12.72
 -13 -12 -10    7.58   10.33
 -13 -12 -10   27.98    8.75
 -14   9  -3    4.33    8.57
 -14   9  -4   30.64    8.12
 -14   9  -4   20.35    8.66
 -14   9  -5    5.60    7.63
 -14   9  -5    3.20    8.03
 -14   9  -6   90.56   10.02
 -14   9  -6   83.11    9.88
 -14   8  -1    7.26    8.80
 -14   8  -2    8.57    8.80
 -14   8  -3   33.62    9.02
 -14   8  -4    7.08    7.90
 -14   8  -4   21.03    7.58
 -14   8  -5   45.53    8.80
 -14   8  -5   25.40    8.26
 -14   8  -6   20.17    7.85
 -14   8  -6   25.72    8.44
 -14   8  -7   55.00    8.30
 -14   8  -7   56.72    9.20
 -14   8  -8   25.72    8.53
 -14   8  -8   20.62    8.08
 -14   8  -9    2.48    8.75
 -14   8  -9    0.09    8.66
 -14   8  -9    5.46   10.29
 -14   7   1   21.52   10.29
 -14   7   0   -1.80    9.20
 -14   7  -1    7.31    7.90
 -14   7  -2   17.33    7.58
 -14   7  -3   21.30    7.85
 -14   7  -4   14.08    8.17
 -14   7  -5   67.19    9.57
 -14   7  -5   81.49    9.88
 -14   7  -6   10.96    8.57
 -14   7  -6   28.11    8.84
 -14   7  -7  151.47   12.05
 -14   7  -7  142.99   11.51
 -14   7  -8    8.44    7.90
 -14   7  -8   20.17    7.94
 -14   7  -9   -5.69    7.67
 -14   7  -9   -8.30    8.44
 -14   7  -9  -10.02   11.55
 -14   7 -10   42.01    9.57
 -14   7 -10   26.17    8.44
 -14   7 -10   21.03   14.71
 -14   6   2   15.21    9.57
 -14   6   1   10.74    9.30
 -14   6   0   23.01    9.20
 -14   6  -1    3.75    8.44
 -14   6  -2   -7.94    8.48
 -14   6  -3   -3.93    7.94
 -14   6  -4  192.17   13.04
 -14   6  -5    2.12    7.76
 -14   6  -5    6.59    7.45
 -14   6  -6   80.63   10.02
 -14   6  -6   77.02    9.70
 -14   6  -7   10.24    8.39
 -14   6  -7   25.18    7.94
 -14   6  -8   24.14    8.53
 -14   6  -8   30.73    8.80
 -14   6  -8   22.11    8.71
 -14   6  -9    5.37    7.58
 -14   6  -9    2.21    7.99
 -14   6  -9   -3.34   11.05
 -14   6 -10    8.39    8.26
 -14   6 -10    9.97    8.44
 -14   6 -10   22.43   12.72
 -14   6 -11   30.23    9.70
 -14   6 -11   35.38    8.98
 -14   6 -11   31.36   13.72
 -14   6 -12   12.09    9.61
 -14   6 -12   31.04   14.94
 -14   5   2   -5.50    8.62
 -14   5   1   23.28    9.16
 -14   5   0   36.82    8.80
 -14   5  -1   39.26    9.11
 -14   5  -2   17.91    8.66
 -14   5  -3   62.18    9.02
 -14   5  -4   -1.67    7.54
 -14   5  -5   49.36    8.30
 -14   5  -5   45.12    8.44
 -14   5  -6   89.07    9.84
 -14   5  -6   82.03    9.84
 -14   5  -7   45.21    8.93
 -14   5  -7   54.15    8.98
 -14   5  -8   43.18    8.80
 -14   5  -8   39.71    9.20
 -14   5  -8   28.38   10.06
 -14   5  -9  -12.63    8.53
 -14   5  -9   -0.63    8.39
 -14   5  -9   -6.14   11.60
 -14   5 -10   -7.22    8.26
 -14   5 -10  -14.44    8.30
 -14   5 -10    5.82   12.36
 -14   5 -11   12.72    9.57
 -14   5 -11    0.27    9.25
 -14   5 -11   19.72   14.30
 -14   5 -12   96.70   10.87
 -14   5 -12   82.26   10.56
 -14   5 -12   72.96   15.70
 -14   4   3   33.03    9.34
 -14   4   2   22.43    8.84
 -14   4   1    6.95    8.75
 -14   4   0    7.63    7.81
 -14   4  -1   76.44   10.78
 -14   4  -2    3.65    7.54
 -14   4  -3   54.73    9.16
 -14   4  -4    1.67    7.72
 -14   4  -5  267.30   16.02
 -14   4  -6    3.34    7.40
 -14   4  -6    1.99    7.04
 -14   4  -7  167.76   12.09
 -14   4  -7  160.45   11.64
 -14   4  -7  142.72   11.42
 -14   4  -7  149.49   12.59
 -14   4  -8   -2.21    8.08
 -14   4  -8   -4.78    7.45
 -14   4  -8   -5.73   10.15
 -14   4  -9   10.11    8.26
 -14   4  -9   -0.36    8.21
 -14   4  -9   -6.99   11.55
 -14   4 -10   -6.05    8.66
 -14   4 -10   17.82    8.89
 -14   4 -10   -7.35   11.73
 -14   4 -11    4.60    8.44
 -14   4 -11   10.56    9.84
 -14   4 -11    2.44   12.81
 -14   4 -12   72.51   11.01
 -14   4 -12   99.18   11.01
 -14   4 -12   80.05   14.66
 -14   4 -13   43.09    6.90
 -14   4 -13   33.98    9.34
 -14   4 -13   47.83   13.81
 -14   3   3   10.74    8.71
 -14   3   2   11.37    8.62
 -14   3   1   11.78    7.17
 -14   3   0   -4.24    6.77
 -14   3  -1   19.81    8.21
 -14   3  -2    0.23    8.03
 -14   3  -3   23.10    8.17
 -14   3  -4  334.53   18.91
 -14   3  -5   50.40    8.26
 -14   3  -5   47.02    5.78
 -14   3  -5   34.56    7.13
 -14   3  -6  193.48   12.72
 -14   3  -6  186.80   12.95
 -14   3  -6  161.45   11.87
 -14   3  -6  172.09   13.13
 -14   3  -7   69.44   11.15
 -14   3  -8   46.66   11.78
 -14   3  -9   19.90    8.80
 -14   3  -9   18.05    8.12
 -14   3  -9   28.34   12.86
 -14   3 -10  -10.65    8.21
 -14   3 -10   14.80    7.58
 -14   3 -10    0.50   11.91
 -14   3 -11   17.82    9.52
 -14   3 -11   27.48    9.70
 -14   3 -11   28.65   12.14
 -14   3 -12   65.38   11.05
 -14   3 -12   62.90    9.84
 -14   3 -12   54.33   12.27
 -14   3 -13   10.74    9.75
 -14   3 -13    6.41   12.45
 -14   3 -14    2.66    9.02
 -14   3 -14   -4.11   12.77
 -14   2   3   22.43    8.98
 -14   2   2   19.18    8.53
 -14   2   1    7.04    7.26
 -14   2   0    9.07    7.04
 -14   2  -1   64.52    8.98
 -14   2  -2   -3.70    8.17
 -14   2  -3   76.17    9.34
 -14   2  -4  102.16   10.11
 -14   2  -4   95.75    8.48
 -14   2  -4  100.22    9.43
 -14   2  -5   99.94    9.75
 -14   2  -5   74.32    9.07
 -14   2  -5   79.19    9.93
 -14   2  -6   42.78    8.35
 -14   2  -6   60.15    8.57
 -14   2  -6   76.80    9.34
 -14   2  -6   45.84    9.93
 -14   2  -7    9.02    6.95
 -14   2  -7    3.65    7.22
 -14   2  -7   -4.87    9.43
 -14   2  -8   27.30    7.85
 -14   2  -8   28.74    8.26
 -14   2  -8   24.46   11.28
 -14   2  -9   74.77   12.63
 -14   2 -10   61.50    8.93
 -14   2 -10   62.99    9.30
 -14   2 -10   64.61   13.00
 -14   2 -11   45.66    9.79
 -14   2 -11   44.31    8.39
 -14   2 -11   49.77   12.14
 -14   2 -12  170.15   13.63
 -14   2 -12  156.21   12.27
 -14   2 -12  142.00   15.34
 -14   2 -13   -3.38    9.57
 -14   2 -13   -6.63   11.01
 -14   2 -14   17.73    9.48
 -14   2 -14   57.12   12.68
 -14   1   3   -4.38    8.80
 -14   1   3    9.30   10.06
 -14   1   2   19.22    7.40
 -14   1   2    6.77    8.48
 -14   1   1    9.30    6.90
 -14   1   1    1.08    7.76
 -14   1   0    9.43    8.08
 -14   1   0    4.87    7.04
 -14   1   0    7.31    6.72
 -14   1  -1  120.07   11.55
 -14   1  -1  132.75   10.69
 -14   1  -1  128.51   10.74
 -14   1  -2    8.03    7.76
 -14   1  -2    4.74    6.50
 -14   1  -2    1.80    7.90
 -14   1  -3  149.08   12.41
 -14   1  -3  172.59   12.36
 -14   1  -3  172.00   13.09
 -14   1  -4   50.27    8.44
 -14   1  -4   32.26    7.72
 -14   1  -4   39.71    9.39
 -14   1  -5   58.93    8.66
 -14   1  -5   41.47    8.26
 -14   1  -5   44.08   10.11
 -14   1  -6   32.17    8.21
 -14   1  -6   16.79    8.12
 -14   1  -6   39.21    7.85
 -14   1  -6   31.22   10.06
 -14   1  -7    0.72    6.90
 -14   1  -7   10.47    7.40
 -14   1  -7   -3.25    9.43
 -14   1  -8    7.17    7.99
 -14   1  -8   17.51    7.31
 -14   1  -8   10.02   10.20
 -14   1  -9   36.19    8.93
 -14   1  -9   50.54    8.44
 -14   1  -9   21.07   10.96
 -14   1 -10   83.97    9.97
 -14   1 -10   89.57    9.84
 -14   1 -10   69.89   12.32
 -14   1 -11   -5.55    7.04
 -14   1 -11    5.41    8.53
 -14   1 -11   -8.66   11.10
 -14   1 -12  257.24   16.20
 -14   1 -12  219.07   18.32
 -14   1 -13    4.65    9.57
 -14   1 -13    1.31   10.60
 -14   1 -14   44.35    9.93
 -14   1 -14   30.46   11.24
 -14   0   3   15.39    8.48
 -14   0   3   11.46   12.50
 -14   0   2    4.02    8.35
 -14   0   2   -1.71   11.05
 -14   0   1   13.04    7.58
 -14   0   1   16.70   10.33
 -14   0   0   -7.40    6.45
 -14   0   0    0.59    9.39
 -14   0  -1    6.59    8.30
 -14   0  -1   -7.90    8.39
 -14   0  -2   38.99   10.15
 -14   0  -2   60.51    9.39
 -14   0  -3    9.79    8.39
 -14   0  -3    5.14    7.58
 -14   0  -3   32.58    8.89
 -14   0  -4  119.71   10.65
 -14   0  -4  107.21   10.29
 -14   0  -4  125.75   11.96
 -14   0  -5  148.86   11.73
 -14   0  -5  140.06   11.42
 -14   0  -5  128.42   12.27
 -14   0  -6   73.91    8.75
 -14   0  -6   67.01    8.89
 -14   0  -6   63.08    8.93
 -14   0  -6   60.78   10.20
 -14   0  -7    7.17    7.13
 -14   0  -7   17.96    7.26
 -14   0  -7    9.75    9.02
 -14   0  -8    8.39    8.26
 -14   0  -8    2.21    7.08
 -14   0  -8   -5.14    9.88
 -14   0  -9   -2.12    8.12
 -14   0  -9    3.11    7.90
 -14   0  -9    7.90   10.15
 -14   0 -10   15.84    8.44
 -14   0 -10    1.40    7.99
 -14   0 -10    7.99    9.88
 -14   0 -11  123.72   11.55
 -14   0 -11   99.90    9.66
 -14   0 -11  121.51   13.94
 -14   0 -12   -0.50    8.80
 -14   0 -12    0.00   11.10
 -14   0 -13   87.94   10.83
 -14   0 -13   86.36   12.95
 -14   0 -14   21.30    9.52
 -14   0 -14   35.74   12.45
 -14   0 -15  131.67   12.86
 -14   0 -15  121.02   13.72
 -14  -1   3    5.23    8.21
 -14  -1   3    9.52   12.54
 -14  -1   2  -11.46    8.30
 -14  -1   2    3.93   12.23
 -14  -1   1   -3.47    6.68
 -14  -1   1   10.24   10.02
 -14  -1   0   27.93    8.17
 -14  -1   0   38.67    9.07
 -14  -1  -1   75.94   10.29
 -14  -1  -1   80.41    9.61
 -14  -1  -2    9.34    8.30
 -14  -1  -2   15.21    7.72
 -14  -1  -3   32.76    8.03
 -14  -1  -3   17.82    8.21
 -14  -1  -4  521.16   25.76
 -14  -1  -4  542.36   29.87
 -14  -1  -5   31.72    7.45
 -14  -1  -5   35.01    7.40
 -14  -1  -5   50.31    9.20
 -14  -1  -6   84.24    9.30
 -14  -1  -6   71.38    9.52
 -14  -1  -6   73.55    9.34
 -14  -1  -6   68.68   10.42
 -14  -1  -7    0.50    8.30
 -14  -1  -7   19.36    7.67
 -14  -1  -7  -11.28    8.62
 -14  -1  -8  148.27   11.87
 -14  -1  -8  139.20   11.60
 -14  -1  -8  158.47   13.76
 -14  -1  -9    5.14    8.35
 -14  -1  -9   11.78    7.35
 -14  -1  -9   15.88    9.88
 -14  -1 -10  180.67   13.72
 -14  -1 -10  189.83   13.09
 -14  -1 -10  180.53   15.61
 -14  -1 -11   -2.03    8.48
 -14  -1 -11   13.76    8.66
 -14  -1 -11    3.25   10.96
 -14  -1 -12   94.21   10.38
 -14  -1 -12  102.83   13.27
 -14  -1 -13   67.86    9.30
 -14  -1 -13   87.58   13.27
 -14  -1 -14   45.66    9.48
 -14  -1 -14   50.04   12.14
 -14  -1 -15   49.99    9.93
 -14  -1 -15   66.64   12.68
 -14  -2   3   78.11    9.79
 -14  -2   3  112.40   14.44
 -14  -2   2   12.81    8.12
 -14  -2   2    9.34   12.18
 -14  -2   1   -6.18    7.40
 -14  -2   1   -3.56    9.93
 -14  -2   0   46.48    8.57
 -14  -2   0   29.33    9.25
 -14  -2  -1   32.62    8.53
 -14  -2  -1   40.97    9.61
 -14  -2  -2   19.18    9.39
 -14  -2  -2   -2.66    7.94
 -14  -2  -3  252.46   16.24
 -14  -2  -3  260.17   17.37
 -14  -2  -4    7.26    7.76
 -14  -2  -4    5.05    7.54
 -14  -2  -5   72.92    7.90
 -14  -2  -5   80.50    9.84
 -14  -2  -5   60.19    8.53
 -14  -2  -6   75.49    9.97
 -14  -2  -6   95.66    9.66
 -14  -2  -6   72.60    8.98
 -14  -2  -6   47.74   10.15
 -14  -2  -7   20.21    8.17
 -14  -2  -7    8.44    7.22
 -14  -2  -7   27.70   10.11
 -14  -2  -8   -5.01    8.30
 -14  -2  -8   -6.14    7.17
 -14  -2  -8  -18.86   10.06
 -14  -2  -9   17.19    7.22
 -14  -2  -9   14.57    7.90
 -14  -2  -9   -6.18    9.75
 -14  -2 -10   28.92    9.30
 -14  -2 -10   11.87    8.44
 -14  -2 -10   33.80   10.83
 -14  -2 -11    3.29    8.84
 -14  -2 -11    0.99    8.53
 -14  -2 -11    1.13    9.97
 -14  -2 -12  280.30   17.51
 -14  -2 -12  292.75   20.49
 -14  -2 -13   31.81    9.52
 -14  -2 -13   43.68   11.91
 -14  -2 -14   42.82    9.75
 -14  -2 -14   64.98   12.18
 -14  -2 -15   -5.10    9.11
 -14  -2 -15  -16.06   10.83
 -14  -3   3    7.31    8.30
 -14  -3   3   21.79   12.77
 -14  -3   2    4.65    8.48
 -14  -3   2   -7.58   11.60
 -14  -3   1   -5.55    8.21
 -14  -3   1    7.76   10.02
 -14  -3   0   18.05    8.08
 -14  -3   0   22.83    9.11
 -14  -3  -1   28.29    8.71
 -14  -3  -1   57.89   10.38
 -14  -3  -2  182.38   14.17
 -14  -3  -2  199.26   15.30
 -14  -3  -3   77.61   10.06
 -14  -3  -3   88.53   10.51
 -14  -3  -4   75.94    9.75
 -14  -3  -4   83.97   10.06
 -14  -3  -5   52.52    7.94
 -14  -3  -5   35.78    8.12
 -14  -3  -5   31.77    8.12
 -14  -3  -6    5.37    8.48
 -14  -3  -6   12.90    7.26
 -14  -3  -6   14.53    7.04
 -14  -3  -7    9.39    8.17
 -14  -3  -7    9.02    6.54
 -14  -3  -7   12.09    7.04
 -14  -3  -7   -3.25    8.12
 -14  -3  -8   11.69    8.17
 -14  -3  -8   14.98    8.21
 -14  -3  -8    7.40    8.21
 -14  -3  -9    6.72    7.45
 -14  -3  -9   22.92    8.53
 -14  -3  -9    9.43    8.84
 -14  -3 -10   17.06    8.66
 -14  -3 -10   19.99    8.80
 -14  -3 -10   26.04   10.06
 -14  -3 -11   51.80   10.51
 -14  -3 -11   50.54    9.30
 -14  -3 -11   42.46   10.65
 -14  -3 -12    5.55    9.07
 -14  -3 -12   -7.04   10.38
 -14  -3 -13   21.39    9.79
 -14  -3 -13   35.87   11.46
 -14  -3 -14    7.31    9.84
 -14  -3 -14   11.51   10.65
 -14  -3 -15   57.71   11.05
 -14  -3 -15   71.25   11.37
 -14  -4   3   17.24    9.39
 -14  -4   3    9.97   13.18
 -14  -4   2  -13.99    8.93
 -14  -4   2    9.43   11.60
 -14  -4   1   23.91    9.02
 -14  -4   1    6.50   10.65
 -14  -4   0    5.46    7.99
 -14  -4   0    1.71    9.34
 -14  -4  -1   45.26    9.25
 -14  -4  -1   35.33   10.65
 -14  -4  -2   36.28    8.75
 -14  -4  -2   33.62    9.34
 -14  -4  -3   39.35    9.02
 -14  -4  -3   51.08    8.80
 -14  -4  -4  253.18   15.39
 -14  -4  -4  221.64   15.88
 -14  -4  -5   13.36    7.31
 -14  -4  -5   20.40    7.45
 -14  -4  -5    5.96    7.58
 -14  -4  -6  112.85   10.60
 -14  -4  -6  103.78   10.33
 -14  -4  -6  109.33   10.83
 -14  -4  -7   -2.08    8.08
 -14  -4  -7   -6.23    7.17
 -14  -4  -7   -1.53    8.26
 -14  -4  -8    0.68    7.31
 -14  -4  -8   -6.05    7.63
 -14  -4  -8   10.96    8.21
 -14  -4  -9   49.86    9.20
 -14  -4  -9   32.44    8.89
 -14  -4  -9   43.45    9.20
 -14  -4 -10   96.97   10.60
 -14  -4 -10   80.86    9.84
 -14  -4 -10  118.81   12.63
 -14  -4 -11  -17.55    8.89
 -14  -4 -11    7.63    8.35
 -14  -4 -11    0.50    9.39
 -14  -4 -12   21.93    9.66
 -14  -4 -12   28.25   10.65
 -14  -4 -13   57.71   10.11
 -14  -4 -13   70.34   11.37
 -14  -4 -14   17.42    9.30
 -14  -4 -14   -7.81   10.47
 -14  -4 -15  104.91   12.45
 -14  -4 -15   90.97   12.77
 -14  -5   2    5.01    8.62
 -14  -5   2   12.59   10.78
 -14  -5   1   -6.18    9.30
 -14  -5   1   15.79   10.15
 -14  -5   0   15.52    8.80
 -14  -5   0   22.52    8.48
 -14  -5  -1  136.81   11.73
 -14  -5  -1  121.56   11.60
 -14  -5  -2   -2.08    8.03
 -14  -5  -2   12.54    9.48
 -14  -5  -3   77.93    9.57
 -14  -5  -3   80.59   10.51
 -14  -5  -4   34.65    7.31
 -14  -5  -4   32.13    9.39
 -14  -5  -4   39.39    8.12
 -14  -5  -5   59.74    8.53
 -14  -5  -5   39.89    8.08
 -14  -5  -5   67.41    9.84
 -14  -5  -6   -3.84    7.58
 -14  -5  -6  -11.15    7.67
 -14  -5  -6    4.29    7.26
 -14  -5  -7    8.71    7.35
 -14  -5  -7   25.22    8.12
 -14  -5  -7    9.30    8.80
 -14  -5  -8    5.91    7.54
 -14  -5  -8   10.47    8.44
 -14  -5  -9   -4.96    7.54
 -14  -5  -9   -3.34    7.58
 -14  -5  -9   -3.38    8.66
 -14  -5 -10  161.81   12.27
 -14  -5 -10  159.14   11.78
 -14  -5 -10  180.49   15.34
 -14  -5 -11    6.18    8.35
 -14  -5 -11   -7.40    7.94
 -14  -5 -11    7.81   10.83
 -14  -5 -12  206.16   14.44
 -14  -5 -12  187.75   15.57
 -14  -5 -13    6.63    9.39
 -14  -5 -13   14.62    9.48
 -14  -5 -14  131.80   12.14
 -14  -5 -14  139.83   14.12
 -14  -5 -15    6.27   11.05
 -14  -6   2    3.61   10.96
 -14  -6   2   15.70   12.45
 -14  -6   1   26.80    9.61
 -14  -6   1   25.18   10.38
 -14  -6   0   77.25   10.33
 -14  -6   0   77.56   10.02
 -14  -6  -1   12.27    8.30
 -14  -6  -1    5.96    9.16
 -14  -6  -2   42.46    8.75
 -14  -6  -2   33.75    9.52
 -14  -6  -3  186.53   13.31
 -14  -6  -3  182.79   14.62
 -14  -6  -4   18.27    7.40
 -14  -6  -4    9.16    8.30
 -14  -6  -4   23.10    9.16
 -14  -6  -5    8.48    7.49
 -14  -6  -5   -1.04    7.49
 -14  -6  -5    0.86    8.08
 -14  -6  -6    6.36    7.90
 -14  -6  -6   -4.42    8.30
 -14  -6  -6    4.69    7.67
 -14  -6  -7   -4.78    7.58
 -14  -6  -7   -2.26    7.35
 -14  -6  -7   -3.25    6.99
 -14  -6  -8   -2.26    8.21
 -14  -6  -8   -4.65    7.40
 -14  -6  -8    1.90    7.22
 -14  -6  -9   53.20    9.02
 -14  -6  -9   54.82    9.30
 -14  -6 -10    5.14    9.02
 -14  -6 -10    4.69    8.39
 -14  -6 -10   14.26    9.11
 -14  -6 -11   52.03    9.39
 -14  -6 -11   66.46   10.51
 -14  -6 -11   69.04   11.91
 -14  -6 -12  138.93   12.72
 -14  -6 -12  168.98   14.71
 -14  -6 -13  124.67   12.59
 -14  -6 -13  127.11   13.04
 -14  -6 -14    4.56    9.70
 -14  -6 -14   33.75    9.93
 -14  -7   1   18.05    9.79
 -14  -7   1   14.75   10.20
 -14  -7   0   70.75   11.19
 -14  -7   0   63.31   10.83
 -14  -7  -1    7.22    9.16
 -14  -7  -1   11.91    8.84
 -14  -7  -2  271.05   16.33
 -14  -7  -2  305.75   19.49
 -14  -7  -3    4.20    7.54
 -14  -7  -3   19.81    8.84
 -14  -7  -3   -7.58    7.58
 -14  -7  -4  168.71   12.68
 -14  -7  -4  151.38   11.91
 -14  -7  -4  160.90   12.90
 -14  -7  -5   -9.93    8.08
 -14  -7  -5    7.04    7.90
 -14  -7  -5   10.29    7.31
 -14  -7  -6    5.78    7.72
 -14  -7  -6   10.24    7.72
 -14  -7  -6   10.83    8.89
 -14  -7  -7   11.91    8.48
 -14  -7  -7    5.73    8.44
 -14  -7  -7   13.49    7.81
 -14  -7  -8   42.23    8.98
 -14  -7  -8   16.06    8.44
 -14  -7  -8   34.97    9.43
 -14  -7  -9   -1.71    8.39
 -14  -7  -9   23.64    9.30
 -14  -7 -10   30.46    9.93
 -14  -7 -10   10.24    9.11
 -14  -7 -10    2.26    8.62
 -14  -7 -11   97.01   11.46
 -14  -7 -11  101.84   11.28
 -14  -7 -11   98.46   11.19
 -14  -7 -12   16.51   10.20
 -14  -7 -12   30.05    8.44
 -14  -7 -12   20.17    9.61
 -14  -7 -13   61.50   10.74
 -14  -7 -13   54.01    9.57
 -14  -7 -14   12.86   11.19
 -14  -7 -14   -1.62    9.30
 -14  -8   0   -3.79   11.37
 -14  -8   0    5.37    8.30
 -14  -8  -1   46.75   11.01
 -14  -8  -1   25.90    9.02
 -14  -8  -2    1.80   10.33
 -14  -8  -2    8.44    9.39
 -14  -8  -3  100.49   10.56
 -14  -8  -3   72.47   10.24
 -14  -8  -3  103.33   12.09
 -14  -8  -4  103.06   11.24
 -14  -8  -4  109.92   11.01
 -14  -8  -4  105.22   10.87
 -14  -8  -5    3.29    8.66
 -14  -8  -5   14.03    8.98
 -14  -8  -5    6.45    7.99
 -14  -8  -6   38.08    8.89
 -14  -8  -6   21.66    9.02
 -14  -8  -6   17.15    8.26
 -14  -8  -7   -1.90    8.71
 -14  -8  -7   -4.65    8.08
 -14  -8  -7    3.75    8.75
 -14  -8  -8   13.00    8.57
 -14  -8  -8    1.67    8.08
 -14  -8  -8    5.69    9.11
 -14  -8  -9   -8.98    8.57
 -14  -8  -9  -17.69    9.52
 -14  -8  -9    0.27    8.39
 -14  -8 -10  101.34   11.96
 -14  -8 -10   94.89   10.65
 -14  -8 -11   -6.36   10.02
 -14  -8 -11   -4.65    9.30
 -14  -8 -11  -14.21    8.48
 -14  -8 -12   72.69   12.95
 -14  -8 -12   86.41   10.15
 -14  -8 -12   80.27   10.47
 -14  -8 -13    9.11   12.50
 -14  -8 -13   -9.79    8.93
 -14  -9  -1   88.98   12.86
 -14  -9  -1   84.38   11.19
 -14  -9  -2   63.49   10.06
 -14  -9  -2   58.07   11.60
 -14  -9  -2   70.84   10.38
 -14  -9  -3   73.10   10.96
 -14  -9  -3   84.83   11.96
 -14  -9  -3   81.90   11.78
 -14  -9  -4    2.53    9.39
 -14  -9  -4    2.98    8.75
 -14  -9  -4   -7.67    8.93
 -14  -9  -5   21.93   10.24
 -14  -9  -5    9.16    9.16
 -14  -9  -5   13.67    9.52
 -14  -9  -6    2.17    9.25
 -14  -9  -6   -2.57    8.21
 -14  -9  -6   -2.57    8.35
 -14  -9  -7    8.12    8.44
 -14  -9  -7   18.18    8.66
 -14  -9  -7   11.60    9.16
 -14  -9  -8   24.05    9.11
 -14  -9  -8   42.05    9.16
 -14  -9  -8   41.51    9.20
 -14  -9  -9   25.09    9.70
 -14  -9  -9   46.43   10.15
 -14  -9  -9   51.39    9.02
 -14  -9 -10   10.51    9.93
 -14  -9 -10   27.75    9.97
 -14  -9 -11   30.41   10.87
 -14  -9 -11   40.29   10.20
 -14  -9 -11   51.84    8.80
 -14  -9 -12   64.21   12.36
 -14  -9 -12   54.28    9.97
 -14  -9 -12   50.90    8.80
 -14 -10  -2   89.39   13.49
 -14 -10  -2   78.74   13.00
 -14 -10  -2  100.67   11.69
 -14 -10  -3   27.98   11.69
 -14 -10  -3   15.61    9.97
 -14 -10  -3   -3.65    9.66
 -14 -10  -4   51.21   11.60
 -14 -10  -4   64.39   11.19
 -14 -10  -4   85.24   10.65
 -14 -10  -5   14.53   10.42
 -14 -10  -5   25.13    9.11
 -14 -10  -5    3.61    8.93
 -14 -10  -6   26.80   10.24
 -14 -10  -6    8.26   10.47
 -14 -10  -6    8.44    9.02
 -14 -10  -7    8.57   10.11
 -14 -10  -7    2.48    9.25
 -14 -10  -7   10.11    8.26
 -14 -10  -8   -5.55    9.75
 -14 -10  -8    0.95    8.48
 -14 -10  -8  -14.80    7.81
 -14 -10  -9   48.73   10.69
 -14 -10  -9   41.29   10.87
 -14 -10  -9   50.09    8.89
 -14 -10 -10   11.60   11.01
 -14 -10 -10    6.81    9.66
 -14 -10 -10  -10.47    8.26
 -14 -10 -11   69.98   12.54
 -14 -10 -11   48.28   11.60
 -14 -11  -5   17.82   11.69
 -14 -11  -5   17.01   11.78
 -14 -11  -5   14.08    9.97
 -14 -11  -6   53.88   12.63
 -14 -11  -6   50.04   12.45
 -14 -11  -6   25.40   10.24
 -14 -11  -7  -25.90   11.42
 -14 -11  -7    7.54   10.24
 -14 -11  -7    7.45    8.93
 -14 -11  -8   24.10   12.14
 -14 -11  -8   13.76   11.05
 -14 -11  -8   29.65    8.53
 -14 -11  -9   -9.07   11.87
 -14 -11  -9    6.27   11.64
 -14 -11  -9    3.29    7.99
 -15   7  -3   14.57    8.75
 -15   7  -4   74.90   10.74
 -15   7  -5   50.63    9.11
 -15   7  -5   54.60    9.93
 -15   7  -6    6.14    8.21
 -15   7  -6  -13.09    9.39
 -15   7  -7   34.29    9.20
 -15   7  -7   39.75   10.15
 -15   7  -8    6.86    9.30
 -15   6  -1   28.61    8.17
 -15   6  -2   45.71    8.53
 -15   6  -3   26.58    9.07
 -15   6  -4   -2.48    8.44
 -15   6  -5    4.06    7.72
 -15   6  -5   13.31    8.93
 -15   6  -6   27.30    8.84
 -15   6  -6   18.41    7.99
 -15   6  -7  209.64   14.21
 -15   6  -7  225.29   14.08
 -15   6  -8    8.30    7.90
 -15   6  -8   13.49    8.57
 -15   6  -9   36.64    8.35
 -15   6  -9   52.88    9.70
 -15   6  -9   43.36   11.73
 -15   6 -10   11.19   15.70
 -15   5   0   50.36    9.11
 -15   5  -1    3.47    8.39
 -15   5  -2   40.07    9.02
 -15   5  -3   22.74    9.52
 -15   5  -4   20.58    9.34
 -15   5  -5   13.22    7.76
 -15   5  -5   29.78    8.62
 -15   5  -6   34.47    9.02
 -15   5  -6   21.61    8.84
 -15   5  -7  108.79   10.78
 -15   5  -7  127.69   11.46
 -15   5  -8   26.17    8.75
 -15   5  -8   29.46    8.66
 -15   5  -8   10.20    7.45
 -15   5  -8   11.37    7.76
 -15   5  -9   73.05   10.33
 -15   5  -9   58.03    9.39
 -15   5 -10  -23.73    9.16
 -15   5 -10    6.32    8.03
 -15   5 -10   -5.69   14.85
 -15   5 -11   10.06    9.07
 -15   5 -11    0.50   10.02
 -15   5 -11   -1.26   18.14
 -15   4   0   14.62    8.66
 -15   4  -1   -6.81    7.67
 -15   4  -2   15.70    8.75
 -15   4  -3    3.34    9.07
 -15   4  -4   19.27    8.98
 -15   4  -5   -2.89    7.49
 -15   4  -5   -0.86    7.94
 -15   4  -6   54.69    9.70
 -15   4  -6   65.97    9.34
 -15   4  -7   29.78    9.20
 -15   4  -7   54.19    9.75
 -15   4  -8   60.15    9.88
 -15   4  -8   43.86    8.98
 -15   4  -8   30.68   10.65
 -15   4  -8   23.55   11.69
 -15   4  -9   -9.52    8.66
 -15   4  -9    1.85    8.30
 -15   4  -9   -5.41   12.59
 -15   4 -10   16.74    8.26
 -15   4 -10   12.23    9.07
 -15   4 -10   35.51   14.98
 -15   4 -11   -0.09    8.26
 -15   4 -11    9.30    9.07
 -15   4 -11  -21.34   15.79
 -15   4 -12   36.05   11.28
 -15   4 -12   33.35    9.57
 -15   4 -12   35.20   16.60
 -15   3   1   15.57    8.30
 -15   3   0    3.02    7.72
 -15   3  -1   -0.41    7.08
 -15   3  -2    6.59    7.67
 -15   3  -3    6.95    7.58
 -15   3  -4   18.82    9.02
 -15   3  -5   44.58    8.66
 -15   3  -5   56.27    8.93
 -15   3  -6   11.91    8.39
 -15   3  -6   12.50    8.66
 -15   3  -6   20.58    6.32
 -15   3  -6   12.90    7.40
 -15   3  -7  194.61   13.54
 -15   3  -7  207.38   14.26
 -15   3  -7  222.99   15.34
 -15   3  -7  203.82   15.88
 -15   3  -8   61.55    9.70
 -15   3  -8   59.02    9.52
 -15   3  -8   52.25   12.50
 -15   3  -9   26.08    9.30
 -15   3  -9   32.44    8.62
 -15   3  -9   31.04   12.45
 -15   3 -10    6.95    8.93
 -15   3 -10   29.19    8.21
 -15   3 -10   19.31   14.71
 -15   3 -11    1.76    8.93
 -15   3 -11    2.75    8.66
 -15   3 -11    4.42   13.99
 -15   3 -12    2.44    9.48
 -15   3 -12   -7.58    7.31
 -15   3 -12    9.52   14.94
 -15   2   1   22.20    9.43
 -15   2   0    0.09    8.17
 -15   2  -1   13.45    7.54
 -15   2  -2   51.17    8.66
 -15   2  -3   52.07    8.84
 -15   2  -4   45.53    8.84
 -15   2  -5   28.88    8.12
 -15   2  -5   17.82    7.45
 -15   2  -5   16.79    9.25
 -15   2  -6   23.19    7.22
 -15   2  -6   18.50    7.85
 -15   2  -6    9.97    8.57
 -15   2  -6   18.59   10.74
 -15   2  -7  286.39   16.65
 -15   2  -7  288.19   16.15
 -15   2  -7  271.99   18.05
 -15   2  -7  293.74   20.53
 -15   2  -8    2.17    7.45
 -15   2  -8   23.24    8.21
 -15   2  -8  -15.93   11.46
 -15   2  -9   32.13    8.44
 -15   2  -9   24.73    8.75
 -15   2  -9   31.45   12.63
 -15   2 -10   62.94   10.47
 -15   2 -10   40.88    8.93
 -15   2 -10   54.73   12.59
 -15   2 -11   -6.72    8.08
 -15   2 -11    2.08    8.62
 -15   2 -11   -9.48   12.77
 -15   2 -12   -3.84    8.03
 -15   2 -12    5.05    7.58
 -15   2 -12   -1.67   12.77
 -15   2 -13   90.65   10.56
 -15   2 -13   52.70    9.57
 -15   2 -13   80.63   13.67
 -15   1   1    1.08    8.39
 -15   1   0   -3.11    7.81
 -15   1  -1   28.79    7.72
 -15   1  -2  -13.36    7.40
 -15   1  -2   -1.58    6.45
 -15   1  -2   -3.43    8.48
 -15   1  -3   -4.06    7.26
 -15   1  -3   12.27    7.63
 -15   1  -3    1.71    9.52
 -15   1  -4    3.25    7.13
 -15   1  -4    8.39    8.44
 -15   1  -4    6.05    9.79
 -15   1  -5    1.26    6.95
 -15   1  -5    3.47    8.62
 -15   1  -5    1.49   10.02
 -15   1  -6  191.09   13.40
 -15   1  -6  216.31   13.04
 -15   1  -6  173.04   14.17
 -15   1  -6  168.80   15.34
 -15   1  -7   42.23    7.99
 -15   1  -7   48.42    7.85
 -15   1  -7   31.72    8.48
 -15   1  -7   57.80   11.82
 -15   1  -8  115.60   10.33
 -15   1  -8  115.56   10.60
 -15   1  -8  111.59   14.03
 -15   1  -9   33.25    8.17
 -15   1  -9   53.38    8.89
 -15   1  -9   32.58   12.14
 -15   1 -10   25.58    8.21
 -15   1 -10   29.06    8.30
 -15   1 -10   13.72   12.50
 -15   1 -11   43.68    9.48
 -15   1 -11   28.83    8.93
 -15   1 -11   60.24   13.18
 -15   1 -12   20.94    8.21
 -15   1 -12   12.77    8.39
 -15   1 -12    9.61   11.46
 -15   1 -13   57.67    9.16
 -15   1 -13   74.18    9.75
 -15   1 -13   42.73   12.86
 -15   0   2   -9.30   15.25
 -15   0   1    9.66    8.39
 -15   0   1   -1.62   10.69
 -15   0   0   10.47    8.08
 -15   0   0   -1.31   10.47
 -15   0  -1    5.91    7.31
 -15   0  -1    9.79   11.15
 -15   0  -2    1.04    7.76
 -15   0  -2   12.14    9.79
 -15   0  -2    0.81    9.70
 -15   0  -3  -10.65    7.85
 -15   0  -3   11.28    8.98
 -15   0  -3    1.17   10.06
 -15   0  -4    4.78    7.35
 -15   0  -4   -7.58    9.02
 -15   0  -4    7.63   10.78
 -15   0  -5   72.10    8.53
 -15   0  -5   75.67    9.61
 -15   0  -5   92.50   12.00
 -15   0  -6   29.28    7.90
 -15   0  -6   14.39    7.22
 -15   0  -6   28.47    8.12
 -15   0  -6   13.81   10.51
 -15   0  -7  142.54   11.15
 -15   0  -7  139.16   11.55
 -15   0  -7  146.29   12.18
 -15   0  -7  123.05   14.17
 -15   0  -8    6.63    7.22
 -15   0  -8   19.49    8.21
 -15   0  -8    2.12   10.47
 -15   0  -9   -1.90    7.22
 -15   0  -9    1.04    7.17
 -15   0  -9   10.65   11.96
 -15   0 -10   -8.30    7.67
 -15   0 -10    7.45    7.99
 -15   0 -10   18.27   11.01
 -15   0 -11    8.35    7.90
 -15   0 -11    7.04    7.54
 -15   0 -11    3.47   11.19
 -15   0 -12  209.46   14.53
 -15   0 -12  183.06   12.63
 -15   0 -12  232.78   17.78
 -15   0 -13   -3.02    8.93
 -15   0 -13  -13.04    7.22
 -15  -1   1    5.10    7.54
 -15  -1   1   32.44   13.22
 -15  -1   0   64.84    9.52
 -15  -1   0   49.81   12.45
 -15  -1  -1   34.25    8.57
 -15  -1  -1   15.88   10.42
 -15  -1  -2    3.56    8.98
 -15  -1  -2   -3.88    8.71
 -15  -1  -3   21.34    8.62
 -15  -1  -3   32.44    9.02
 -15  -1  -4    8.89    8.62
 -15  -1  -4   -9.97    8.53
 -15  -1  -4   21.03    9.57
 -15  -1  -5  119.62    9.79
 -15  -1  -5  126.25   11.24
 -15  -1  -5  117.68   10.65
 -15  -1  -5  113.62   13.27
 -15  -1  -6   22.56    8.17
 -15  -1  -6   16.33    8.03
 -15  -1  -6   29.78    8.48
 -15  -1  -6   34.07   10.38
 -15  -1  -7  140.55   11.87
 -15  -1  -7  148.45   11.87
 -15  -1  -8  -11.01    8.75
 -15  -1  -8    6.36    7.31
 -15  -1  -8   -8.53   11.15
 -15  -1  -9   29.19    9.20
 -15  -1  -9   32.49    7.85
 -15  -1  -9   41.38   11.33
 -15  -1 -10    9.70    8.48
 -15  -1 -10   -7.63    8.17
 -15  -1 -10    9.48   10.92
 -15  -1 -11   -9.07    8.48
 -15  -1 -11    1.26    7.76
 -15  -1 -11  -13.90   11.33
 -15  -1 -12   -2.57    8.66
 -15  -1 -12   13.18    7.40
 -15  -1 -12    5.82   10.96
 -15  -1 -13   39.84   10.15
 -15  -1 -13   43.50   11.42
 -15  -1 -14   38.17   10.20
 -15  -1 -14   22.65   11.69
 -15  -2   1   28.83    8.48
 -15  -2   1   53.88   13.45
 -15  -2   0   18.73    7.99
 -15  -2   0    9.39   11.91
 -15  -2  -1   23.69    8.44
 -15  -2  -1   12.50    9.66
 -15  -2  -2   67.95    9.16
 -15  -2  -2   75.85   10.87
 -15  -2  -3    5.37    7.94
 -15  -2  -3   10.69    8.62
 -15  -2  -4   65.61    9.88
 -15  -2  -4   80.54   10.15
 -15  -2  -5   11.33    8.35
 -15  -2  -5   15.93    7.67
 -15  -2  -5   15.34    8.21
 -15  -2  -6  142.54   12.23
 -15  -2  -6  123.72   10.69
 -15  -2  -6  138.75   12.14
 -15  -2  -6  142.45   13.72
 -15  -2  -7   39.80    9.07
 -15  -2  -7   28.25    8.12
 -15  -2  -7   48.64    9.52
 -15  -2  -7   56.76   11.51
 -15  -2  -8   89.75   10.20
 -15  -2  -8   99.22   10.24
 -15  -2  -8   90.69   12.41
 -15  -2  -9   26.76    9.43
 -15  -2  -9   23.51    8.39
 -15  -2  -9   33.71   11.15
 -15  -2 -10   -0.99    8.75
 -15  -2 -10  -20.67    8.35
 -15  -2 -10    0.41   10.42
 -15  -2 -11    5.82    8.57
 -15  -2 -11    9.11    8.53
 -15  -2 -11    9.52   10.15
 -15  -2 -12   30.77    9.93
 -15  -2 -12   13.31    8.12
 -15  -2 -12   19.13   10.83
 -15  -2 -13   36.91   10.15
 -15  -2 -13   23.78   10.87
 -15  -2 -14   18.18    9.07
 -15  -2 -14    5.64   10.78
 -15  -3   1    9.11    8.21
 -15  -3   1  -18.59   12.81
 -15  -3   0    3.65    8.44
 -15  -3   0   11.78   11.28
 -15  -3  -1   11.96    9.02
 -15  -3  -1   -8.66    9.61
 -15  -3  -2    8.08    7.58
 -15  -3  -2    7.58    8.98
 -15  -3  -3   21.52    8.26
 -15  -3  -3   34.83    9.20
 -15  -3  -4   19.36    7.99
 -15  -3  -4   14.62    8.66
 -15  -3  -5    5.41    7.58
 -15  -3  -5   15.70    7.85
 -15  -3  -5    6.23    8.44
 -15  -3  -6  197.54   13.40
 -15  -3  -6  199.12   12.95
 -15  -3  -6  209.09   15.25
 -15  -3  -7   75.94    9.66
 -15  -3  -7   57.39    9.48
 -15  -3  -7   61.14   10.15
 -15  -3  -7   87.49   11.73
 -15  -3  -8  122.51   11.51
 -15  -3  -8  146.83   11.46
 -15  -3  -8  132.07   11.96
 -15  -3  -8  147.01   14.30
 -15  -3  -9   16.60    8.80
 -15  -3  -9  -11.37    7.81
 -15  -3  -9  -12.27    9.66
 -15  -3 -10    0.23    8.48
 -15  -3 -10    0.81    8.53
 -15  -3 -10   -0.09   10.06
 -15  -3 -11    3.84    9.25
 -15  -3 -11   -2.98    8.08
 -15  -3 -11    0.68   10.15
 -15  -3 -12   37.50   10.24
 -15  -3 -12   53.88    9.34
 -15  -3 -12   57.21   12.95
 -15  -3 -13   -1.94    8.98
 -15  -3 -13  -15.21   11.55
 -15  -3 -14    7.31    8.57
 -15  -3 -14   15.84   11.15
 -15  -4   1   10.74    9.07
 -15  -4   1   11.24   13.81
 -15  -4   0   22.47    8.53
 -15  -4   0   11.82   10.92
 -15  -4  -1   32.76    9.02
 -15  -4  -1   26.85    9.79
 -15  -4  -2   11.55    7.94
 -15  -4  -2   -7.94    9.11
 -15  -4  -3   22.56    9.02
 -15  -4  -3    3.65    9.75
 -15  -4  -4   -5.41    8.30
 -15  -4  -4   16.29    9.34
 -15  -4  -5   92.00    9.93
 -15  -4  -5   80.32    9.75
 -15  -4  -5   97.82   11.60
 -15  -4  -6    5.60    7.76
 -15  -4  -6   -5.14    7.94
 -15  -4  -6    2.21    8.71
 -15  -4  -7  108.74   10.69
 -15  -4  -7  120.70   10.51
 -15  -4  -7   96.34   11.46
 -15  -4  -8   -5.10    8.75
 -15  -4  -8  -17.10    7.63
 -15  -4  -8   12.09    8.03
 -15  -4  -8   -3.29   10.29
 -15  -4  -9   25.72    9.02
 -15  -4  -9   12.27    8.44
 -15  -4  -9    8.75   10.60
 -15  -4 -10    6.36    8.35
 -15  -4 -10   -0.99    8.26
 -15  -4 -10    1.53   10.24
 -15  -4 -11    6.23    8.93
 -15  -4 -11    7.13    8.17
 -15  -4 -11   29.83   11.60
 -15  -4 -12   29.60    9.88
 -15  -4 -12   32.85    8.21
 -15  -4 -12   40.11   11.51
 -15  -4 -13   20.03    9.52
 -15  -4 -13   22.79    8.12
 -15  -4 -13   31.36   11.28
 -15  -4 -14   -1.35   11.64
 -15  -5   0   -1.99    8.93
 -15  -5   0   15.21   11.19
 -15  -5  -1   -5.28    9.34
 -15  -5  -1   -9.39    9.93
 -15  -5  -2    1.44    8.30
 -15  -5  -2   -1.80    9.57
 -15  -5  -3   -4.33    8.30
 -15  -5  -3    4.06    8.62
 -15  -5  -4   80.54   10.24
 -15  -5  -4   79.41   11.60
 -15  -5  -4   94.26   11.55
 -15  -5  -5    2.26    7.76
 -15  -5  -5    6.77    8.53
 -15  -5  -5  -14.26    8.80
 -15  -5  -6  173.18   13.00
 -15  -5  -6  168.44   13.09
 -15  -5  -6  143.58   12.68
 -15  -5  -7    6.23    8.66
 -15  -5  -7    4.87    7.90
 -15  -5  -7    6.32    9.48
 -15  -5  -8  100.53   10.69
 -15  -5  -8   80.36   10.24
 -15  -5  -8   87.31   10.87
 -15  -5  -9    3.61    8.89
 -15  -5  -9   -0.09    8.08
 -15  -5  -9    1.35    9.52
 -15  -5 -10   -9.30    8.53
 -15  -5 -10    3.38    7.94
 -15  -5 -10    6.36   10.87
 -15  -5 -11    8.21    8.26
 -15  -5 -11   -4.74    7.67
 -15  -5 -11   27.93   10.60
 -15  -5 -12    5.64    9.39
 -15  -5 -12    2.48    7.81
 -15  -5 -12   -5.37   10.24
 -15  -5 -13   42.96    9.84
 -15  -5 -13   53.65    8.44
 -15  -5 -13   41.69   10.92
 -15  -6   0   14.39   11.82
 -15  -6  -1    7.31    9.11
 -15  -6  -1   17.82   10.06
 -15  -6  -2   15.48    9.88
 -15  -6  -2    1.13    8.48
 -15  -6  -3   13.00    9.02
 -15  -6  -3   16.47   10.92
 -15  -6  -4   26.40    8.84
 -15  -6  -4   27.52    9.20
 -15  -6  -4   31.68    9.93
 -15  -6  -5   35.87    9.34
 -15  -6  -5   34.07   10.38
 -15  -6  -5   15.88    9.97
 -15  -6  -6  147.10   12.23
 -15  -6  -6  148.27   12.14
 -15  -6  -6  134.06   12.05
 -15  -6  -7   -7.45    8.26
 -15  -6  -7   -1.67    7.85
 -15  -6  -7   16.47    9.30
 -15  -6  -8   34.61    9.39
 -15  -6  -8   35.69    9.88
 -15  -6  -8   19.22    8.57
 -15  -6  -9    0.54    8.39
 -15  -6  -9   -3.38    8.84
 -15  -6  -9    2.21    8.21
 -15  -6  -9    4.65    8.08
 -15  -6 -10   52.79   10.06
 -15  -6 -10   60.73    8.93
 -15  -6 -10   76.17   10.78
 -15  -6 -11    4.24    9.79
 -15  -6 -11   -1.44    7.63
 -15  -6 -11    8.08   10.38
 -15  -6 -12   47.06   10.74
 -15  -6 -12   43.77    8.71
 -15  -6 -12   46.11   10.60
 -15  -6 -13   54.33   11.01
 -15  -6 -13   44.81    8.80
 -15  -6 -13   27.21    9.93
 -15  -7  -1   36.14   12.36
 -15  -7  -1   50.63    9.70
 -15  -7  -2   35.56    9.84
 -15  -7  -2   -9.25    9.11
 -15  -7  -3  160.86   13.18
 -15  -7  -3  156.39   12.59
 -15  -7  -3  176.11   15.57
 -15  -7  -4   -5.78    8.71
 -15  -7  -4    1.13    8.57
 -15  -7  -4    1.85    9.11
 -15  -7  -5   23.82    8.93
 -15  -7  -5   37.81   10.83
 -15  -7  -5   20.53    8.98
 -15  -7  -6   34.61    9.84
 -15  -7  -6   23.87    8.80
 -15  -7  -6   35.29    9.43
 -15  -7  -7  106.94   11.64
 -15  -7  -7   96.52   11.19
 -15  -7  -7  119.93   12.63
 -15  -7  -8    2.17    9.34
 -15  -7  -8    9.93    8.80
 -15  -7  -8    9.70    8.98
 -15  -7  -9   -6.00    9.75
 -15  -7  -9   -0.95    8.39
 -15  -7  -9   -9.52    9.43
 -15  -7 -10   24.10   10.02
 -15  -7 -10    5.50    8.08
 -15  -7 -10    5.50   10.06
 -15  -7 -11    0.41   10.87
 -15  -7 -11  -10.15    8.62
 -15  -7 -11    7.58    8.89
 -15  -7 -12   48.10   12.09
 -15  -7 -12   70.34    9.43
 -15  -7 -12   59.38   10.06
 -15  -8  -2   33.62   12.72
 -15  -8  -2   -2.62    8.98
 -15  -8  -3   15.07    8.89
 -15  -8  -3   14.35   11.28
 -15  -8  -3   11.87    8.84
 -15  -8  -4   54.69   10.65
 -15  -8  -4   44.94   10.56
 -15  -8  -4   54.78   10.74
 -15  -8  -5    5.41    9.43
 -15  -8  -5   11.55    9.57
 -15  -8  -5    9.70    9.20
 -15  -8  -6   38.99    9.48
 -15  -8  -6   45.12   10.29
 -15  -8  -6   59.20   11.19
 -15  -8  -7   10.83    9.16
 -15  -8  -7   26.49    9.30
 -15  -8  -7    9.48    8.35
 -15  -8  -8   11.73    9.30
 -15  -8  -8   -2.44    8.44
 -15  -8  -8    4.20    8.48
 -15  -8  -9    9.52    9.88
 -15  -8  -9   17.01    8.53
 -15  -8  -9   15.34    7.81
 -15  -8 -10  -23.01   10.60
 -15  -8 -10   10.56    8.89
 -15  -8 -10    4.51    7.81
 -15  -8 -11  -11.96   11.91
 -15  -8 -11   -4.96    8.98
 -15  -8 -11    8.80    8.75
 -15  -9  -4   26.35   11.01
 -15  -9  -4   43.23   12.05
 -15  -9  -4   47.42    9.79
 -15  -9  -5   38.99   10.74
 -15  -9  -5   39.53   12.09
 -15  -9  -5   42.41    9.57
 -15  -9  -6   39.98   11.28
 -15  -9  -6   74.59   13.54
 -15  -9  -6   68.31   11.05
 -15  -9  -7   -4.29    9.57
 -15  -9  -7    8.89    9.97
 -15  -9  -7    4.29    9.75
 -15  -9  -8   32.13   10.11
 -15  -9  -8   15.34   11.24
 -15  -9  -8   23.96    8.39
 -15  -9  -9   15.70    9.97
 -15  -9  -9    9.11   10.11
 -15  -9  -9    9.02    8.57
 -15  -9 -10   30.23   11.96
 -15  -9 -10   -4.60   10.11
 -15  -9 -10    7.17    8.75
 -16   5  -5    4.33    8.71
 -16   5  -5   14.03    9.20
 -16   5  -6   -1.58    7.85
 -16   5  -6   24.32    9.34
 -16   5  -7   78.47    9.88
 -16   4  -3   -2.21    8.30
 -16   4  -4   -6.63    9.02
 -16   4  -5   16.92    8.75
 -16   4  -5   14.48    8.08
 -16   4  -6   18.05    8.93
 -16   4  -6    7.85    8.57
 -16   4  -7  115.47   11.55
 -16   4  -7  105.09    9.61
 -16   4  -8    0.00    9.48
 -16   4  -8   -0.54    7.22
 -16   4  -9  129.50   12.50
 -16   4  -9  132.79   11.73
 -16   4  -9   89.25   13.49
 -16   4  -9   65.16   16.38
 -16   3  -2   46.79    8.71
 -16   3  -3    2.53    8.30
 -16   3  -4   -2.62    7.90
 -16   3  -5   11.05    8.12
 -16   3  -5    4.51    8.21
 -16   3  -6   26.08    7.99
 -16   3  -6   27.48    8.17
 -16   3  -7   12.05    8.75
 -16   3  -7    8.57    7.58
 -16   3  -7    1.49    8.03
 -16   3  -7    2.17    8.93
 -16   3  -8   10.87    8.53
 -16   3  -8    9.20    7.22
 -16   3  -8   13.00   11.37
 -16   3  -8    3.34   13.31
 -16   3  -9   48.64    9.25
 -16   3  -9   26.80    8.89
 -16   3  -9   25.13   11.28
 -16   3  -9   41.33   17.96
 -16   3 -10  149.80   12.81
 -16   3 -10  147.28   10.65
 -16   3 -10  114.93   20.76
 -16   2  -2   12.81    8.21
 -16   2  -3   -4.83    8.57
 -16   2  -4   22.61    9.02
 -16   2  -5   43.59    8.35
 -16   2  -5   42.96    8.89
 -16   2  -6    6.05    8.30
 -16   2  -6    8.66    7.17
 -16   2  -6    0.59    9.39
 -16   2  -6   -2.30   10.92
 -16   2  -7   18.77    8.57
 -16   2  -7   22.61    7.99
 -16   2  -7   11.15   11.28
 -16   2  -7   23.19   13.31
 -16   2  -8   52.97    8.57
 -16   2  -8   38.44    8.30
 -16   2  -8   36.82   12.09
 -16   2  -8   59.97   15.39
 -16   2  -9   39.12    9.57
 -16   2  -9   47.65    8.84
 -16   2  -9   40.97   15.61
 -16   2 -10   47.47    9.61
 -16   2 -10   46.34    7.99
 -16   2 -10   44.17   14.98
 -16   2 -11   17.15    9.66
 -16   2 -11    6.36    8.12
 -16   2 -11    4.92   14.62
 -16   1  -1   21.07    7.63
 -16   1  -2   10.15    8.26
 -16   1  -3    2.84    8.57
 -16   1  -4   -6.36    8.17
 -16   1  -4    2.44    8.30
 -16   1  -4    7.35   10.02
 -16   1  -5   16.06    6.99
 -16   1  -5   32.62    8.57
 -16   1  -5   12.59    9.66
 -16   1  -5   30.14   11.51
 -16   1  -6   28.20    8.30
 -16   1  -6   10.42    7.45
 -16   1  -6    1.80   10.69
 -16   1  -6   33.16   12.41
 -16   1  -7  261.17   15.75
 -16   1  -7  217.49   13.27
 -16   1  -7  242.17   18.41
 -16   1  -7  218.25   18.27
 -16   1  -8   22.06    7.81
 -16   1  -8   15.57    7.31
 -16   1  -8   14.26   11.10
 -16   1  -8   16.79   12.63
 -16   1  -9  107.30   10.92
 -16   1  -9   76.75    9.75
 -16   1  -9   78.96   15.03
 -16   1 -10   -8.30    8.80
 -16   1 -10   -2.48    7.76
 -16   1 -10    2.35   13.45
 -16   1 -11   21.07    9.48
 -16   1 -11   23.37    8.98
 -16   1 -11   39.80   13.22
 -16   0  -1    4.74    8.30
 -16   0  -1   -7.54   11.42
 -16   0  -1   12.50   12.09
 -16   0  -2   57.35    8.89
 -16   0  -2   65.79   12.36
 -16   0  -2   37.63   11.55
 -16   0  -3   12.09    7.99
 -16   0  -3    9.93    9.97
 -16   0  -3    1.35   11.69
 -16   0  -4   11.15    8.30
 -16   0  -4   11.73    9.75
 -16   0  -4   10.51   12.59
 -16   0  -5   19.40    8.17
 -16   0  -5   11.24    7.54
 -16   0  -5  -14.85   11.82
 -16   0  -5   -1.35   13.45
 -16   0  -6   39.53    8.62
 -16   0  -6   23.28    7.08
 -16   0  -6   60.33   11.55
 -16   0  -6   40.25   12.95
 -16   0  -7   38.53    8.75
 -16   0  -7   16.24    7.54
 -16   0  -7   25.18   11.15
 -16   0  -7   29.96   12.81
 -16   0  -8   14.62    8.44
 -16   0  -8   30.91    8.26
 -16   0  -8   13.00   11.15
 -16   0  -8   20.44   12.68
 -16   0  -9   49.81    9.02
 -16   0  -9   57.67    8.57
 -16   0  -9   46.25   13.22
 -16   0 -10   34.92    9.30
 -16   0 -10   33.66    7.81
 -16   0 -10   20.71   13.18
 -16   0 -11   11.60    9.39
 -16   0 -11   14.80    8.39
 -16   0 -11   13.09   12.32
 -16   0 -12   23.28   10.56
 -16   0 -12   12.54    8.03
 -16   0 -12   10.60   13.13
 -16  -1  -1    2.17    8.66
 -16  -1  -1   16.60   13.45
 -16  -1  -2   15.52    8.44
 -16  -1  -2   13.45   12.14
 -16  -1  -3    5.60    8.48
 -16  -1  -3    5.10    9.79
 -16  -1  -3   13.18   11.87
 -16  -1  -4   35.15    9.34
 -16  -1  -4   34.74   10.92
 -16  -1  -4   28.11   12.09
 -16  -1  -5    3.16    8.17
 -16  -1  -5   -4.15    8.26
 -16  -1  -5    1.99   11.55
 -16  -1  -5    1.40   12.18
 -16  -1  -6   46.79    8.71
 -16  -1  -6   52.16    8.80
 -16  -1  -6   53.02   10.65
 -16  -1  -6   64.52   13.49
 -16  -1  -7   -6.90    8.48
 -16  -1  -7    5.46    8.57
 -16  -1  -7  -10.47    9.57
 -16  -1  -7   -9.20   11.87
 -16  -1  -8  103.92   11.19
 -16  -1  -8  113.71   11.24
 -16  -1  -8   85.87   11.87
 -16  -1  -8  103.60   14.26
 -16  -1  -9   23.10    8.57
 -16  -1  -9   19.31    8.39
 -16  -1  -9    9.30   12.63
 -16  -1 -10   43.45    8.71
 -16  -1 -10   56.49    8.26
 -16  -1 -10   86.72   13.99
 -16  -1 -11    5.78    8.17
 -16  -1 -11    7.85    7.85
 -16  -1 -11   26.71   11.96
 -16  -1 -12    9.11    8.98
 -16  -1 -12    5.23    7.45
 -16  -1 -12   -2.75   11.69
 -16  -2  -1   27.03    8.93
 -16  -2  -1   17.91   13.94
 -16  -2  -2  -15.66    8.17
 -16  -2  -2    4.83   11.51
 -16  -2  -3   14.26    8.57
 -16  -2  -3    3.29    9.79
 -16  -2  -4   11.28    7.99
 -16  -2  -4    4.47   10.60
 -16  -2  -5   32.67    8.75
 -16  -2  -5   39.12    9.52
 -16  -2  -5   55.14   11.15
 -16  -2  -5   53.88   11.91
 -16  -2  -6   -1.49    8.35
 -16  -2  -6  -15.48    7.22
 -16  -2  -6    2.84    9.48
 -16  -2  -6   11.60   11.24
 -16  -2  -7  136.36   12.27
 -16  -2  -7  160.77   12.32
 -16  -2  -7  154.05   13.81
 -16  -2  -7  112.04   14.08
 -16  -2  -8   15.25    7.81
 -16  -2  -8   18.50    7.76
 -16  -2  -8    5.91   10.38
 -16  -2  -8   12.32   10.87
 -16  -2  -9  138.79   11.82
 -16  -2  -9  136.90   10.83
 -16  -2  -9  160.77   13.76
 -16  -2  -9  143.31   14.89
 -16  -2 -10   33.03    9.52
 -16  -2 -10   17.33    7.94
 -16  -2 -10   30.37   12.14
 -16  -2 -11   11.51    9.25
 -16  -2 -11   25.13    7.90
 -16  -2 -11   -3.16   12.00
 -16  -2 -12   22.29    9.75
 -16  -2 -12    8.75    7.49
 -16  -2 -12   27.07   12.50
 -16  -3  -2   70.80    9.34
 -16  -3  -2   66.74   11.64
 -16  -3  -3    0.45    8.48
 -16  -3  -3   15.70    9.93
 -16  -3  -4   33.07    8.53
 -16  -3  -4   18.09   11.19
 -16  -3  -5  -15.39    8.08
 -16  -3  -5   -3.88    8.17
 -16  -3  -5   -9.25   10.51
 -16  -3  -6   48.37    9.66
 -16  -3  -6   30.32    7.99
 -16  -3  -6   20.62   10.33
 -16  -3  -6   58.61   11.73
 -16  -3  -7   74.86   10.20
 -16  -3  -7   72.87    8.98
 -16  -3  -7   87.94   10.92
 -16  -3  -7   78.11   11.96
 -16  -3  -8   58.61   10.42
 -16  -3  -8   72.87    9.61
 -16  -3  -8   73.14   11.69
 -16  -3  -8  103.24   13.45
 -16  -3  -9   28.83    9.39
 -16  -3  -9   47.11    8.53
 -16  -3  -9   59.83   11.19
 -16  -3  -9   59.88   11.87
 -16  -3 -10  -20.40    8.62
 -16  -3 -10   -5.64    7.76
 -16  -3 -10   16.51   10.20
 -16  -3 -11   72.65   10.56
 -16  -3 -11   60.82    8.57
 -16  -3 -11   93.45   13.63
 -16  -3 -12   14.57    9.43
 -16  -3 -12    6.32    8.44
 -16  -3 -12    5.69   12.59
 -16  -4  -2   -2.98    8.17
 -16  -4  -2    6.54   11.10
 -16  -4  -3    5.64    8.12
 -16  -4  -3    9.34   10.38
 -16  -4  -4   -7.72    7.04
 -16  -4  -4   12.81    8.48
 -16  -4  -4   -3.93   11.05
 -16  -4  -5  -13.85    8.53
 -16  -4  -5    2.35    8.71
 -16  -4  -5    8.35   10.74
 -16  -4  -6   53.69    9.25
 -16  -4  -6   50.49    9.02
 -16  -4  -6   37.81   10.83
 -16  -4  -7   20.85    9.11
 -16  -4  -7   15.57    7.90
 -16  -4  -7   14.44   10.33
 -16  -4  -7   12.36    9.25
 -16  -4  -8   97.73   10.69
 -16  -4  -8   80.41    9.48
 -16  -4  -8   96.38   12.14
 -16  -4  -8   84.96   11.91
 -16  -4  -9   34.29    9.52
 -16  -4  -9   30.14    8.57
 -16  -4  -9    8.98    9.75
 -16  -4  -9   28.16    9.70
 -16  -4 -10   55.05    9.57
 -16  -4 -10   36.19    8.21
 -16  -4 -10   54.33   11.33
 -16  -4 -11   10.20    9.20
 -16  -4 -11    6.95    8.03
 -16  -4 -11    3.20   10.96
 -16  -4 -12   29.42   10.51
 -16  -4 -12   25.22    8.84
 -16  -4 -12   69.80   13.45
 -16  -5  -3   10.29    8.62
 -16  -5  -3   13.49   10.60
 -16  -5  -4   73.01   12.77
 -16  -5  -5   73.14   12.00
 -16  -5  -6    2.30    8.71
 -16  -5  -6    3.11    8.17
 -16  -5  -6    3.79    8.53
 -16  -5  -7   44.54    9.93
 -16  -5  -7   36.64    8.30
 -16  -5  -7   42.50    9.70
 -16  -5  -8   29.19   10.11
 -16  -5  -8   31.18    8.21
 -16  -5  -8   33.71    9.07
 -16  -5  -8   20.30    9.16
 -16  -5  -9  129.77   12.32
 -16  -5  -9  109.47   10.83
 -16  -5  -9  125.08   12.50
 -16  -5  -9  113.30   12.81
 -16  -5 -10    7.31    8.93
 -16  -5 -10    5.73    8.17
 -16  -5 -10  -13.31    9.52
 -16  -5 -11  -10.29    9.48
 -16  -5 -11   -4.96    7.67
 -16  -5 -11   10.38   10.56
 -16  -6  -4   69.58   11.37
 -16  -6  -4   43.90    9.97
 -16  -6  -4   60.46   12.50
 -16  -6  -5  -10.92   10.33
 -16  -6  -5    8.12    9.79
 -16  -6  -5   16.02   10.20
 -16  -6  -6   24.95   11.24
 -16  -6  -6   13.04   10.11
 -16  -6  -6   23.42   10.15
 -16  -6  -7   57.71   11.24
 -16  -6  -7   81.76   10.96
 -16  -6  -7   70.84   11.42
 -16  -6  -8   14.30   11.19
 -16  -6  -8   -6.54    9.20
 -16  -6  -8    8.21    9.43
 -16  -6  -9   47.96   11.01
 -16  -6  -9   61.95    9.84
 -16  -6  -9   48.78    8.57
 -16  -6  -9   49.86   11.64
 -16  -6 -10  -13.72   10.51
 -16  -6 -10   -1.58    7.90
 -16  -6 -10   -7.08    7.85
 -16  -6 -10    2.53    9.52
 -16  -7  -5    0.72   10.47
 -16  -7  -5   -6.77   10.83
 -16  -7  -5    2.80    8.98
 -16  -7  -6   76.44   12.09
 -16  -7  -6   54.78   12.63
 -16  -7  -6   91.64   10.29
 -16  -7  -7   18.86   11.37
 -16  -7  -7   26.98   10.11
 -16  -7  -7    8.98   10.06
 -16  -7  -8  127.33   12.50
 -16  -7  -9   13.63   11.19
 -16  -7  -9   15.79   10.06
 -16  -7  -9   13.09    8.89
 -17   0  -6    8.84    8.93
 -17   0  -6   11.28    8.66
 -17   0  -6    1.08   13.31
 -17   0  -6   -6.95   17.28
 -17   0  -7   77.20   10.20
 -17   0  -7   66.15    9.11
 -17   0  -7   71.34   14.39
 -17   0  -7   52.79   17.87
 -17   0  -8    7.58    7.85
 -17   0  -8    0.18   12.95
 -17   0  -8    4.06   16.42
 -17  -1  -5    3.97   12.09
 -17  -1  -5    5.28   16.83
 -17  -1  -6    8.48    8.03
 -17  -1  -6    5.96    8.35
 -17  -1  -6    4.74   13.04
 -17  -1  -6   17.51   16.70
 -17  -1  -7   37.99    9.30
 -17  -1  -7   36.55    8.93
 -17  -1  -7   28.74   11.24
 -17  -1  -7   48.19   15.75
 -17  -1  -8   12.54    8.93
 -17  -1  -8   24.28    8.17
 -17  -1  -8   -3.07   11.01
 -17  -1  -8   31.00   14.94
 -17  -2  -6    5.55    8.75
 -17  -2  -6   19.27   10.11
 -17  -2  -6    0.68   12.68
 -17  -2  -6   22.79   12.95
 -17  -2  -7    7.81    8.75
 -17  -2  -7    3.52    8.75
 -17  -2  -7    7.26   10.60
 -17  -2  -7    2.21   12.68
 -17  -2  -8   -3.11    9.30
 -17  -2  -8    2.03    9.07
 -17  -2  -8   25.22   11.37
 -17  -2  -8    9.84   12.72
 -17  -3  -7   11.64   10.24
 -17  -3  -7   28.25    9.34
 -17  -3  -7   26.40   11.96
 -17  -3  -7   24.23   11.73
 -17  -3  -8   -1.13   12.32
 -17  -3  -8   -4.42   11.96
   0   0   0    0.00    0.00

_computing_structure_solution     'SHELXT 2018/2 (Sheldrick, 2018)'
;
_shelx_hkl_checksum   48522

