 
data_vt-110
 
_audit_creation_method            'SHELXL-2019/3'
_shelx_SHELXL_version_number      '2019/3'
_chemical_name_systematic         ?
_chemical_name_common             ?
_chemical_melting_point           ?
_chemical_formula_moiety          ?
_chemical_formula_sum
 'C H Cd N O' 
_chemical_formula_weight          155.43

loop_
 _atom_type_symbol
 _atom_type_description
 _atom_type_scat_dispersion_real
 _atom_type_scat_dispersion_imag
 _atom_type_scat_source
 'C'  'C'   0.0033   0.0016
 'International Tables Vol C Tables 4.2.6.8 and 6.1.1.4'
 'H'  'H'   0.0000   0.0000
 'International Tables Vol C Tables 4.2.6.8 and 6.1.1.4'
 'N'  'N'   0.0061   0.0033
 'International Tables Vol C Tables 4.2.6.8 and 6.1.1.4'
 'O'  'O'   0.0106   0.0060
 'International Tables Vol C Tables 4.2.6.8 and 6.1.1.4'
 'Cd'  'Cd'  -0.8075   1.2024
 'International Tables Vol C Tables 4.2.6.8 and 6.1.1.4'
 
_space_group_crystal_system       monoclinic
_space_group_IT_number            5
_space_group_name_H-M_alt         'C 2'
_space_group_name_Hall            'C 2y'
 
_shelx_space_group_comment
;
The symmetry employed for this shelxl refinement is uniquely defined
by the following loop, which should always be used as a source of
symmetry information in preference to the above space-group names.
They are only intended as comments.
;
 
loop_
 _space_group_symop_operation_xyz
 'x, y, z'
 '-x, y, -z'
 'x+1/2, y+1/2, z'
 '-x+1/2, y+1/2, -z'
 
_cell_length_a                    21.0977(9)
_cell_length_b                    18.0607(5)
_cell_length_c                    10.5113(5)
_cell_angle_alpha                 90
_cell_angle_beta                  101.655(5)
_cell_angle_gamma                 90
_cell_volume                      3922.6(3)
_cell_formula_units_Z             55
_cell_measurement_temperature     290(2)
_cell_measurement_reflns_used     ?
_cell_measurement_theta_min       ?
_cell_measurement_theta_max       ?
 
_exptl_crystal_description        ?
_exptl_crystal_colour             ?
_exptl_crystal_density_meas       ?
_exptl_crystal_density_method     ?
_exptl_crystal_density_diffrn     3.619          
_exptl_crystal_F_000              3850
_exptl_transmission_factor_min    ?
_exptl_transmission_factor_max    ?
_exptl_crystal_size_max           ?
_exptl_crystal_size_mid           ?
_exptl_crystal_size_min           ?
_exptl_absorpt_coefficient_mu     7.353
_shelx_estimated_absorpt_T_min    ?
_shelx_estimated_absorpt_T_max    ?
_exptl_absorpt_correction_type    ?
_exptl_absorpt_correction_T_min   ?
_exptl_absorpt_correction_T_max   ?
_exptl_absorpt_process_details    ?
_exptl_absorpt_special_details    ?
_diffrn_ambient_temperature       290(2)
_diffrn_radiation_wavelength      0.71073
_diffrn_radiation_type            MoK\a
_diffrn_source                    ?
_diffrn_measurement_device_type   ?
_diffrn_measurement_method        ?
_diffrn_detector_area_resol_mean  ?
_diffrn_reflns_number             17372
_diffrn_reflns_av_unetI/netI      0.0324
_diffrn_reflns_av_R_equivalents   0.0193
_diffrn_reflns_limit_h_min        -28
_diffrn_reflns_limit_h_max        28
_diffrn_reflns_limit_k_min        -24
_diffrn_reflns_limit_k_max        23
_diffrn_reflns_limit_l_min        -11
_diffrn_reflns_limit_l_max        14
_diffrn_reflns_theta_min          1.971
_diffrn_reflns_theta_max          29.148
_diffrn_reflns_theta_full         25.242
_diffrn_measured_fraction_theta_max   0.863
_diffrn_measured_fraction_theta_full  0.998
_diffrn_reflns_Laue_measured_fraction_max    0.863
_diffrn_reflns_Laue_measured_fraction_full   0.998
_diffrn_reflns_point_group_measured_fraction_max   0.814
_diffrn_reflns_point_group_measured_fraction_full  0.998
_reflns_number_total              8604
_reflns_number_gt                 6927
_reflns_threshold_expression      'I > 2\s(I)'
_reflns_Friedel_coverage          0.831
_reflns_Friedel_fraction_max      0.762
_reflns_Friedel_fraction_full     0.999
 
_reflns_special_details
;
 Reflections were merged by SHELXL according to the crystal
 class for the calculation of statistics and refinement.
 
 _reflns_Friedel_fraction is defined as the number of unique
 Friedel pairs measured divided by the number that would be
 possible theoretically, ignoring centric projections and
 systematic absences. Completness statistics refer to single and
 composite reflections containing twin component 1 only.
;
 
_computing_data_collection        ?
_computing_cell_refinement        ?
_computing_data_reduction         ?
_computing_structure_solution     'SHELXT 2018/2 (Sheldrick, 2018)'
_computing_structure_refinement 'SHELXL-2019/2 (Sheldrick, 2019)'
_computing_molecular_graphics     ?
_computing_publication_material   ?
_refine_special_details
;
 Refined as a 2-component inversion twin.
;
_refine_ls_structure_factor_coef  Fsqd
_refine_ls_matrix_type            full
_refine_ls_weighting_scheme       calc
_refine_ls_weighting_details
'w=1/[\s^2^(Fo^2^)+(0.0346P)^2^+14.6429P] where P=(Fo^2^+2Fc^2^)/3'
_atom_sites_solution_primary      ?
_atom_sites_solution_secondary    ?
_atom_sites_solution_hydrogens    geom
_refine_ls_hydrogen_treatment     constr
_refine_ls_extinction_method      none
_refine_ls_extinction_coef        .
_refine_ls_abs_structure_details
;
 Refined as an inversion twin.
;
_refine_ls_abs_structure_Flack    0.56(5)
_chemical_absolute_configuration  ?
_refine_ls_number_reflns          8604
_refine_ls_number_parameters      676
_refine_ls_number_restraints      131
_refine_ls_R_factor_all           0.0586
_refine_ls_R_factor_gt            0.0427
_refine_ls_wR_factor_ref          0.0996
_refine_ls_wR_factor_gt           0.0911
_refine_ls_goodness_of_fit_ref    1.060
_refine_ls_restrained_S_all       1.062
_refine_ls_shift/su_max           0.090
_refine_ls_shift/su_mean          0.007
 
loop_
 _atom_site_label
 _atom_site_type_symbol
 _atom_site_fract_x
 _atom_site_fract_y
 _atom_site_fract_z
 _atom_site_U_iso_or_equiv
 _atom_site_adp_type
 _atom_site_occupancy
 _atom_site_site_symmetry_order  
 _atom_site_calc_flag
 _atom_site_refinement_flags_posn
 _atom_site_refinement_flags_adp
 _atom_site_refinement_flags_occupancy
 _atom_site_disorder_assembly
 _atom_site_disorder_group
Cd1 Cd 0.29525(5) 0.44265(3) 0.90496(9) 0.0452(2) Uani 1 1 d . . . . .
N2 N 0.4674(4) 0.1863(4) 0.5731(10) 0.049(2) Uani 1 1 d . . . . .
Cd2 Cd 1.000000 0.62020(8) 0.000000 0.0535(4) Uani 1 2 d S T P . .
Cd3 Cd 0.70503(5) 0.53311(4) 0.59825(10) 0.0511(3) Uani 1 1 d . . . . .
Cd4 Cd 0.500000 0.85392(9) 0.500000 0.0828(7) Uani 1 2 d S T P . .
O1 O 0.4371(6) 0.8695(7) 0.6512(13) 0.086(4) Uani 1 1 d . . . . .
O005 O 0.2746(5) 0.9160(5) 0.9464(10) 0.060(3) Uani 1 1 d . . . . .
O6 O 0.7914(5) 0.5153(5) 0.7695(9) 0.076(3) Uani 1 1 d . . . . .
O7 O 0.2123(5) 0.4503(7) 0.7288(11) 0.102(4) Uani 1 1 d . . . . .
O8 O 0.5913(7) 0.8532(9) 0.6699(13) 0.124(5) Uani 1 1 d . . . . .
O203 O 0.4762(10) 0.9811(11) 0.453(2) 0.088(6) Uani 0.5 1 d . . P . .
O91 O 0.497(2) 0.6174(15) 0.4671(19) 0.103(10) Uani 0.5 1 d . . P . .
O12 O 0.7991(5) 0.6261(6) 0.9326(10) 0.095(3) Uani 1 1 d . . . . .
O13 O 1.000000 0.8591(13) 0.000000 0.198(16) Uani 1 2 d S T P . .
O10 O 0.4070(6) 0.0141(5) 0.6176(11) 0.087(3) Uani 1 1 d . . . . .
O11 O 0.500000 0.1407(7) 0.500000 0.066(3) Uani 1 2 d S T P . .
C15 C 1.000000 0.2908(7) 0.000000 0.041(2) Uani 1 2 d DS TU P . .
O006 O 0.9530(5) 0.7249(6) 0.1047(11) 0.068(3) Uani 1 1 d . . . . .
O007 O 0.2897(5) 0.5704(6) 0.9365(11) 0.064(3) Uani 1 1 d . . . . .
N1 N 0.3514(6) 0.3624(7) 0.7951(12) 0.049(3) Uani 1 1 d . . . . .
O00B O 0.3858(4) 0.4373(7) 1.0721(8) 0.061(2) Uani 1 1 d . . . . .
O00D O 0.3533(5) 0.5449(5) 0.7991(9) 0.050(2) Uani 1 1 d . . . . .
O00E O 0.2471(6) 0.8241(6) 1.0505(12) 0.075(3) Uani 1 1 d . . . . .
C1E C 0.3864(9) 0.3784(11) 0.7177(19) 0.085(5) Uani 1 1 d . . . . .
H1E H 0.390981 0.426100 0.687656 0.102 Uiso 0.5 1 calc R U P . .
O00F O 0.8497(5) 0.9333(5) 0.3022(10) 0.058(3) Uani 1 1 d . . . . .
C00H C 0.9199(7) 0.6733(11) 0.1521(14) 0.063(5) Uani 1 1 d . . . . .
C00I C 0.3239(7) 0.5918(7) 0.8615(13) 0.042(3) Uani 1 1 d . . . . .
C00N C 0.7754(6) 0.6256(7) 0.4676(12) 0.040(3) Uani 1 1 d . . . . .
O00O O 0.9161(4) 0.6108(6) -0.1819(10) 0.075(3) Uani 1 1 d . . . . .
O00T O 0.7892(5) 0.9100(5) 0.4402(11) 0.060(3) Uani 1 1 d . . . . .
N00U N 0.4161(6) 0.3208(8) 0.6831(10) 0.057(3) Uani 1 1 d . . . . .
C00X C 0.3788(5) 0.7745(5) 0.7429(12) 0.034(3) Uani 1 1 d . . . . .
C2 C 0.8698(5) 0.7804(7) 0.2647(12) 0.038(3) Uani 1 1 d . . . . .
H2 H 0.891312 0.815069 0.223384 0.045 Uiso 1 1 calc R U . . .
O00Y O 0.9234(5) 0.6101(6) 0.1392(11) 0.064(3) Uani 1 1 d . . . . .
O2 O 0.4478(5) 0.7572(6) 0.5951(12) 0.074(3) Uani 1 1 d . . . . .
C014 C 0.3916(7) 0.2595(9) 0.7394(17) 0.073(5) Uani 1 1 d . . . . .
H014 H 0.401255 0.210077 0.727365 0.087 Uiso 1 1 calc R U . . .
C015 C 0.3305(6) 0.6689(6) 0.8441(10) 0.032(3) Uani 1 1 d . . . . .
C1 C 0.8775(6) 0.7056(9) 0.2427(10) 0.041(3) Uani 1 1 d . . . . .
C01B C 0.3535(8) 0.2839(7) 0.8103(16) 0.072(4) Uani 1 1 d . . . . .
H01B H 0.331425 0.255929 0.861665 0.087 Uiso 1 1 calc R U . . .
C01C C 0.8041(5) 0.7517(8) 0.4083(11) 0.036(3) Uani 1 1 d . . . . .
H01C H 0.779034 0.770542 0.464061 0.043 Uiso 1 1 calc R U . . .
C01F C 0.8236(6) 0.8904(9) 0.3611(13) 0.044(3) Uani 1 1 d . . . . .
C01H C 0.3096(6) 0.7972(6) 0.8888(11) 0.035(3) Uani 1 1 d . . . . .
O3 O 0.7804(5) 0.5553(5) 0.4536(9) 0.056(3) Uani 1 1 d . . . . .
O4 O 0.7410(5) 0.6501(6) 0.5449(11) 0.065(3) Uani 1 1 d . . . . .
O5 O 0.6124(5) 0.5381(7) 0.4306(9) 0.071(3) Uani 1 1 d . . . . .
C01M C 0.4221(6) 0.7978(5) 0.6592(13) 0.041(3) Uani 1 1 d . . . . .
C3 C 0.8480(5) 0.6541(7) 0.3100(12) 0.036(3) Uani 1 1 d . . . . .
H3 H 0.853692 0.603804 0.297121 0.043 Uiso 1 1 calc R U . . .
C4 C 0.8077(5) 0.6786(7) 0.4017(11) 0.031(3) Uani 1 1 d . . . . .
C5 C 0.8331(6) 0.8027(6) 0.3422(14) 0.039(3) Uani 1 1 d . . . . .
C6 C 0.3451(5) 0.8234(7) 0.8108(11) 0.033(3) Uani 1 1 d . . . . .
H6 H 0.348264 0.874281 0.799863 0.039 Uiso 1 1 calc R U . . .
C7 C 0.2982(5) 0.7192(7) 0.9106(9) 0.028(2) Uani 1 1 d . . . . .
H7 H 0.271169 0.703608 0.965090 0.034 Uiso 1 1 calc R U . . .
C8 C 0.3710(6) 0.6971(6) 0.7572(11) 0.034(3) Uani 1 1 d . . . . .
H8 H 0.391632 0.664100 0.711076 0.041 Uiso 1 1 calc R U . . .
C9 C 0.2744(6) 0.8492(7) 0.9699(12) 0.034(3) Uani 1 1 d . . . . .
C101 C 0.4815(6) 0.3891(9) 0.5473(16) 0.069(4) Uani 1 1 d . . . . .
H101 H 0.470954 0.433266 0.583585 0.083 Uiso 1 1 calc R U . . .
C102 C 0.4754(6) 0.2516(8) 0.5491(12) 0.057(3) Uani 1 1 d . . . . .
C103 C 0.4597(5) 0.3199(6) 0.5878(11) 0.047(2) Uani 1 1 d . . . . .
N150 N 1.1089(10) 0.2238(12) -0.237(2) 0.055(4) Uani 0.5 1 d D U P A -1
N300 N 0.9776(8) 0.3682(7) 0.0244(15) 0.040(2) Uani 0.5 1 d D U P B -1
C131 C 1.1111(11) 0.1042(15) -0.215(2) 0.050(4) Uani 0.5 1 d D U P A -1
H131 H 1.101753 0.058212 -0.183392 0.060 Uiso 0.5 1 calc R U P A -1
N132 N 1.0873(8) 0.1730(12) -0.1776(18) 0.043(5) Uani 0.5 1 d D . P A -1
N1J N 1.0284(10) 0.0761(10) -0.039(2) 0.053(3) Uani 0.5 1 d D U P A -1
O201 O 0.9873(7) 0.0456(8) 0.0497(16) 0.054(3) Uani 0.5 1 d D U P A -1
O601 O 0.8555(15) 0.0994(13) 0.269(2) 0.099(10) Uani 0.5 1 d . . P C -1
O120 O 0.8954(10) 0.4708(13) 0.175(2) 0.092(7) Uani 0.5 1 d . . P D -1
N181 N 1.1511(12) 0.1157(14) -0.306(2) 0.051(4) Uani 0.5 1 d D U P A -1
C500 C 1.1452(12) 0.1804(17) -0.306(2) 0.052(4) Uani 0.5 1 d D U P A -1
H500 H 1.167972 0.206172 -0.358417 0.063 Uiso 0.5 1 calc R U P A -1
C1B C 0.9720(11) 0.2330(12) 0.071(2) 0.048(3) Uani 0.5 1 d D U P A -1
H1B H 0.946912 0.247403 0.129532 0.058 Uiso 0.5 1 calc R U P A -1
N2C N 0.9594(7) 0.1078(9) 0.1115(16) 0.049(3) Uani 0.5 1 d D U P A -1
C11 C 0.9976(17) 0.4273(7) -0.020(2) 0.045(3) Uani 0.5 1 d D U P B -1
H11 H 1.023820 0.424576 -0.080687 0.054 Uiso 0.5 1 calc R U P B -1
C17 C 1.0352(6) 0.2667(11) -0.0768(12) 0.030(3) Uani 0.5 1 d D U P A -1
H17 H 1.053460 0.302503 -0.121905 0.036 Uiso 0.5 1 calc R U P A -1
N4 N 0.9344(7) 0.3871(7) 0.0923(14) 0.038(3) Uani 0.5 1 d D U P B -1
C301 C 0.9364(12) 0.4597(10) 0.079(2) 0.063(7) Uani 0.5 1 d D . P B -1
H301 H 0.907008 0.489624 0.109629 0.076 Uiso 0.5 1 calc R U P B -1
N3 N 0.9820(11) 0.4906(9) 0.0194(19) 0.045(3) Uani 0.5 1 d D U P B -1
O9 O 0.8117(8) 0.2379(9) 0.2746(18) 0.076(5) Uani 0.5 1 d . . P E -1
C121 C 1.0490(7) 0.1974(9) -0.0999(13) 0.031(2) Uani 0.5 1 d D U P A -1
C1A C 0.9810(11) 0.1609(8) 0.054(2) 0.042(3) Uani 0.5 1 d D U P A -1
C10 C 1.0180(10) 0.1435(7) -0.0261(19) 0.039(3) Uani 0.5 1 d D U P A -1
 
loop_
 _atom_site_aniso_label
 _atom_site_aniso_U_11
 _atom_site_aniso_U_22
 _atom_site_aniso_U_33
 _atom_site_aniso_U_23
 _atom_site_aniso_U_13
 _atom_site_aniso_U_12
Cd1 0.0648(6) 0.0251(5) 0.0570(6) -0.0029(4) 0.0392(4) -0.0060(4)
N2 0.049(5) 0.029(4) 0.072(6) 0.001(4) 0.016(4) 0.004(3)
Cd2 0.0726(9) 0.0309(7) 0.0703(10) 0.000 0.0460(8) 0.000
Cd3 0.0741(7) 0.0299(5) 0.0627(6) 0.0017(5) 0.0456(5) 0.0003(5)
Cd4 0.1225(15) 0.0413(9) 0.1178(15) 0.000 0.1033(13) 0.000
O1 0.112(9) 0.054(7) 0.115(9) 0.004(6) 0.077(7) -0.007(6)
O005 0.100(7) 0.023(4) 0.077(7) 0.011(4) 0.064(6) 0.007(4)
O6 0.110(7) 0.052(5) 0.070(6) -0.003(5) 0.028(5) -0.014(5)
O7 0.083(6) 0.100(8) 0.118(8) 0.074(7) 0.007(6) -0.032(6)
O8 0.148(11) 0.108(10) 0.130(10) -0.059(8) 0.060(9) -0.039(8)
O203 0.079(14) 0.067(11) 0.122(18) 0.042(12) 0.027(11) 0.014(9)
O91 0.14(2) 0.080(15) 0.07(2) 0.017(10) -0.03(3) -0.008(16)
O12 0.102(7) 0.081(7) 0.108(7) -0.001(6) 0.037(6) -0.002(5)
O13 0.15(2) 0.056(14) 0.36(4) 0.000 -0.01(2) 0.000
O10 0.112(9) 0.049(5) 0.093(8) -0.005(5) 0.007(6) 0.008(6)
O11 0.080(8) 0.060(8) 0.058(7) 0.000 0.017(6) 0.000
C15 0.052(5) 0.029(4) 0.045(5) 0.000 0.016(4) 0.000
O006 0.085(7) 0.057(7) 0.079(7) 0.009(5) 0.056(6) -0.002(5)
O007 0.091(8) 0.034(5) 0.087(7) 0.003(5) 0.064(6) -0.006(5)
N1 0.064(6) 0.043(6) 0.053(7) -0.001(5) 0.043(5) 0.006(5)
O00B 0.076(6) 0.048(5) 0.062(5) 0.012(6) 0.019(4) -0.005(5)
O00D 0.081(6) 0.028(5) 0.047(5) -0.006(4) 0.028(4) 0.005(4)
O00E 0.114(9) 0.036(5) 0.103(8) -0.006(6) 0.083(7) 0.005(6)
C1E 0.108(12) 0.071(10) 0.090(11) -0.008(8) 0.055(10) -0.021(9)
O00F 0.078(6) 0.032(5) 0.073(6) 0.003(5) 0.040(5) 0.002(5)
C00H 0.049(8) 0.101(13) 0.043(7) 0.021(8) 0.022(6) 0.009(8)
C00I 0.063(8) 0.019(5) 0.049(7) -0.003(5) 0.019(6) -0.005(5)
C00N 0.048(7) 0.029(7) 0.042(7) 0.003(6) 0.009(6) 0.007(6)
O00O 0.078(5) 0.044(5) 0.105(7) 0.018(5) 0.027(5) -0.008(4)
O00T 0.080(7) 0.033(5) 0.077(7) -0.006(5) 0.039(6) -0.002(5)
N00U 0.060(7) 0.077(8) 0.040(5) 0.011(5) 0.026(5) 0.022(6)
C00X 0.038(6) 0.011(4) 0.060(7) -0.002(5) 0.024(5) 0.006(4)
C2 0.025(5) 0.045(8) 0.044(7) 0.018(6) 0.009(5) -0.004(5)
O00Y 0.070(5) 0.029(4) 0.117(8) -0.025(5) 0.072(5) -0.007(4)
O2 0.104(8) 0.040(5) 0.106(8) 0.000(5) 0.088(7) 0.001(5)
C014 0.073(9) 0.052(8) 0.098(11) -0.030(8) 0.030(8) 0.031(7)
C015 0.045(7) 0.033(6) 0.019(5) 0.003(4) 0.007(5) -0.005(5)
C1 0.036(6) 0.068(9) 0.019(5) -0.005(6) 0.008(4) 0.016(6)
C01B 0.110(10) 0.029(6) 0.093(10) 0.007(6) 0.054(8) 0.011(6)
C01C 0.021(5) 0.048(8) 0.039(6) 0.002(5) 0.006(4) 0.007(4)
C01F 0.044(7) 0.048(8) 0.043(7) -0.009(6) 0.013(6) 0.004(6)
C01H 0.059(6) 0.019(5) 0.037(6) 0.001(4) 0.034(5) 0.011(5)
O3 0.081(6) 0.038(5) 0.056(5) 0.008(4) 0.031(5) -0.014(4)
O4 0.092(7) 0.041(5) 0.082(7) 0.002(5) 0.063(6) 0.000(5)
O5 0.098(7) 0.057(6) 0.066(6) 0.012(6) 0.039(5) -0.010(6)
C01M 0.048(6) 0.017(4) 0.069(8) 0.019(5) 0.036(6) 0.011(4)
C3 0.025(6) 0.035(7) 0.047(7) 0.001(6) 0.007(5) 0.002(5)
C4 0.018(4) 0.041(7) 0.030(5) -0.002(4) -0.004(4) 0.007(4)
C5 0.034(6) 0.016(5) 0.071(8) 0.005(5) 0.020(6) 0.000(4)
C6 0.043(6) 0.022(6) 0.038(6) 0.000(5) 0.020(5) 0.000(5)
C7 0.041(6) 0.021(5) 0.028(5) 0.002(4) 0.020(4) -0.002(4)
C8 0.052(7) 0.024(6) 0.033(6) 0.010(5) 0.024(5) -0.001(5)
C9 0.039(6) 0.034(7) 0.037(6) 0.001(5) 0.023(5) 0.013(5)
C101 0.043(7) 0.080(10) 0.093(10) -0.008(8) 0.036(6) 0.004(6)
C102 0.052(7) 0.059(8) 0.051(7) -0.002(5) -0.009(5) 0.010(5)
C103 0.049(6) 0.039(5) 0.053(6) 0.003(5) 0.009(5) 0.000(5)
N150 0.068(9) 0.061(10) 0.051(8) 0.008(7) 0.048(7) 0.015(8)
N300 0.055(5) 0.025(4) 0.045(5) -0.008(4) 0.025(4) -0.003(4)
C131 0.062(8) 0.055(9) 0.046(8) 0.020(7) 0.042(7) 0.010(8)
N132 0.022(8) 0.063(12) 0.053(11) -0.028(9) 0.027(7) -0.012(7)
N1J 0.051(6) 0.042(7) 0.070(6) -0.002(5) 0.025(5) -0.005(5)
O201 0.058(6) 0.035(6) 0.077(6) 0.003(5) 0.032(5) 0.000(5)
O601 0.20(2) 0.051(12) 0.094(16) -0.004(10) 0.135(17) 0.012(12)
O120 0.079(13) 0.076(13) 0.130(19) -0.006(13) 0.046(13) 0.012(10)
N181 0.066(8) 0.055(9) 0.044(8) 0.024(7) 0.042(7) 0.009(8)
C500 0.065(8) 0.059(8) 0.047(7) 0.016(7) 0.044(6) 0.011(7)
C1B 0.056(6) 0.035(6) 0.053(6) 0.011(5) 0.011(5) -0.002(5)
N2C 0.052(5) 0.033(6) 0.067(6) 0.006(5) 0.028(5) 0.001(5)
C11 0.067(6) 0.025(4) 0.048(7) -0.008(5) 0.022(6) 0.000(6)
C17 0.040(5) 0.026(6) 0.030(5) 0.006(5) 0.024(5) -0.006(5)
N4 0.048(6) 0.025(5) 0.050(6) -0.009(5) 0.028(5) -0.004(5)
C301 0.096(17) 0.026(9) 0.090(17) 0.007(9) 0.072(14) 0.002(10)
N3 0.067(8) 0.030(6) 0.047(7) -0.014(6) 0.031(6) 0.014(6)
O9 0.075(10) 0.060(9) 0.094(12) 0.031(9) 0.020(9) 0.003(8)
C121 0.036(5) 0.026(5) 0.036(5) 0.001(5) 0.020(5) 0.002(5)
C1A 0.046(5) 0.031(5) 0.055(6) 0.006(5) 0.021(5) 0.000(5)
C10 0.040(5) 0.031(5) 0.051(5) 0.001(5) 0.023(4) -0.002(4)
 
_geom_special_details
;
 All esds (except the esd in the dihedral angle between two l.s. planes)
 are estimated using the full covariance matrix.  The cell esds are taken
 into account individually in the estimation of esds in distances, angles
 and torsion angles; correlations between esds in cell parameters are only
 used when they are defined by crystal symmetry.  An approximate (isotropic)
 treatment of cell esds is used for estimating esds involving l.s. planes.
;
 
loop_
 _geom_bond_atom_site_label_1
 _geom_bond_atom_site_label_2
 _geom_bond_distance
 _geom_bond_site_symmetry_2
 _geom_bond_publ_flag
Cd1 O7 2.281(10) . ?
Cd1 O00B 2.321(8) . ?
Cd1 N1 2.321(11) . ?
Cd1 O007 2.337(10) . ?
Cd1 O00E 2.402(11) 4_547 ?
Cd1 O005 2.403(10) 4_547 ?
Cd1 O00D 2.589(10) . ?
Cd1 C9 2.742(11) 4_547 ?
N2 C102 1.225(15) . ?
N2 O11 1.399(11) . ?
Cd2 O00O 2.334(10) . ?
Cd2 O00O 2.334(10) 2_755 ?
Cd2 N3 2.387(17) . ?
Cd2 O00Y 2.396(10) . ?
Cd2 O00Y 2.396(10) 2_755 ?
Cd2 O006 2.492(12) 2_755 ?
Cd2 O006 2.493(12) . ?
Cd2 C00H 2.724(16) . ?
Cd2 C00H 2.724(16) 2_755 ?
Cd3 O00T 2.267(10) 4_646 ?
Cd3 O6 2.310(10) . ?
Cd3 O4 2.351(11) . ?
Cd3 O5 2.353(9) . ?
Cd3 O3 2.444(10) . ?
Cd3 O00F 2.483(10) 4_646 ?
Cd3 C01F 2.702(15) 4_646 ?
Cd4 O1 2.284(12) . ?
Cd4 O1 2.284(12) 2_656 ?
Cd4 O8 2.347(14) 2_656 ?
Cd4 O8 2.347(14) . ?
Cd4 O203 2.382(18) 2_656 ?
Cd4 O203 2.382(18) . ?
Cd4 O2 2.389(10) . ?
Cd4 O2 2.389(10) 2_656 ?
O1 C01M 1.340(15) . ?
O005 C9 1.231(15) . ?
O203 O203 1.25(4) 2_656 ?
O91 O91 0.68(4) 2_656 ?
C15 C17 1.279(16) . ?
C15 C1B 1.472(18) . ?
C15 N300 1.513(16) . ?
O006 C00H 1.321(19) . ?
O007 C00I 1.233(17) . ?
N1 C1E 1.24(2) . ?
N1 C01B 1.427(16) . ?
O00D C00I 1.304(16) . ?
O00E C9 1.205(14) . ?
C1E N00U 1.30(2) . ?
O00F C01F 1.194(17) . ?
C00H O00Y 1.154(19) . ?
C00H C1 1.55(2) . ?
C00I C015 1.416(17) . ?
C00N O4 1.274(14) . ?
C00N O3 1.286(16) . ?
C00N C4 1.431(18) . ?
O00T C01F 1.260(17) . ?
N00U C014 1.40(2) . ?
N00U C103 1.489(16) . ?
C00X C6 1.414(15) . ?
C00X C8 1.420(14) . ?
C00X C01M 1.452(16) . ?
C2 C5 1.297(17) . ?
C2 C1 1.385(18) . ?
O2 C01M 1.197(15) . ?
C014 C01B 1.28(2) . ?
C015 C7 1.403(16) . ?
C015 C8 1.461(15) . ?
C1 C3 1.390(18) . ?
C01C C4 1.326(18) . ?
C01C C5 1.370(18) . ?
C01F C5 1.613(19) . ?
C01H C6 1.307(17) . ?
C01H C7 1.455(16) . ?
C01H C9 1.555(14) . ?
C3 C4 1.476(17) . ?
C101 C101 1.38(3) 2_656 ?
C101 C103 1.426(19) . ?
C102 C103 1.361(16) . ?
C102 C102 1.60(3) 2_656 ?
N150 N132 1.25(3) . ?
N150 C500 1.39(3) . ?
N300 C11 1.27(2) . ?
N300 N4 1.312(19) . ?
C131 N132 1.42(3) . ?
C131 N181 1.41(3) . ?
C131 C500 1.90(3) . ?
N132 C121 1.33(2) . ?
N1J C10 1.249(18) . ?
N1J O201 1.500(18) . ?
O201 N2C 1.478(17) . ?
N181 C500 1.17(4) . ?
C1B C1A 1.33(2) . ?
N2C C1A 1.268(17) . ?
C11 N3 1.28(2) . ?
C11 C301 1.90(3) . ?
C17 C121 1.32(2) . ?
N4 C301 1.32(2) . ?
C301 N3 1.37(3) . ?
C121 C10 1.476(17) . ?
C1A C10 1.296(17) . ?
 
loop_
 _geom_angle_atom_site_label_1
 _geom_angle_atom_site_label_2
 _geom_angle_atom_site_label_3
 _geom_angle
 _geom_angle_site_symmetry_1
 _geom_angle_site_symmetry_3
 _geom_angle_publ_flag
O7 Cd1 O00B 175.0(3) . . ?
O7 Cd1 N1 91.1(5) . . ?
O00B Cd1 N1 85.8(4) . . ?
O7 Cd1 O007 90.2(5) . . ?
O00B Cd1 O007 89.5(4) . . ?
N1 Cd1 O007 137.0(4) . . ?
O7 Cd1 O00E 87.6(4) . 4_547 ?
O00B Cd1 O00E 95.6(4) . 4_547 ?
N1 Cd1 O00E 77.8(4) . 4_547 ?
O007 Cd1 O00E 145.2(4) . 4_547 ?
O7 Cd1 O005 94.0(4) . 4_547 ?
O00B Cd1 O005 91.1(4) . 4_547 ?
N1 Cd1 O005 129.8(4) . 4_547 ?
O007 Cd1 O005 92.9(3) . 4_547 ?
O00E Cd1 O005 52.6(3) 4_547 4_547 ?
O7 Cd1 O00D 87.7(3) . . ?
O00B Cd1 O00D 88.1(3) . . ?
N1 Cd1 O00D 84.1(3) . . ?
O007 Cd1 O00D 53.0(3) . . ?
O00E Cd1 O00D 161.2(3) 4_547 . ?
O005 Cd1 O00D 145.9(3) 4_547 . ?
O7 Cd1 C9 91.7(3) . 4_547 ?
O00B Cd1 C9 92.9(3) . 4_547 ?
N1 Cd1 C9 103.4(5) . 4_547 ?
O007 Cd1 C9 119.5(4) . 4_547 ?
O00E Cd1 C9 26.0(3) 4_547 4_547 ?
O005 Cd1 C9 26.6(3) 4_547 4_547 ?
O00D Cd1 C9 172.5(4) . 4_547 ?
C102 N2 O11 110.5(12) . . ?
O00O Cd2 O00O 171.7(5) . 2_755 ?
O00O Cd2 N3 83.8(6) . . ?
O00O Cd2 N3 88.1(6) 2_755 . ?
O00O Cd2 O00Y 90.1(4) . . ?
O00O Cd2 O00Y 89.3(4) 2_755 . ?
N3 Cd2 O00Y 74.6(4) . . ?
O00O Cd2 O00Y 89.3(4) . 2_755 ?
O00O Cd2 O00Y 90.1(4) 2_755 2_755 ?
N3 Cd2 O00Y 96.7(5) . 2_755 ?
O00Y Cd2 O00Y 171.3(5) . 2_755 ?
O00O Cd2 O006 89.8(3) . 2_755 ?
O00O Cd2 O006 96.5(4) 2_755 2_755 ?
N3 Cd2 O006 150.1(4) . 2_755 ?
O00Y Cd2 O006 134.8(4) . 2_755 ?
O00Y Cd2 O006 53.9(3) 2_755 2_755 ?
O00O Cd2 O006 96.5(4) . . ?
O00O Cd2 O006 89.8(3) 2_755 . ?
N3 Cd2 O006 128.5(4) . . ?
O00Y Cd2 O006 53.9(3) . . ?
O00Y Cd2 O006 134.8(4) 2_755 . ?
O006 Cd2 O006 81.2(5) 2_755 . ?
O00O Cd2 C00H 92.8(4) . . ?
O00O Cd2 C00H 90.1(4) 2_755 . ?
N3 Cd2 C00H 99.6(5) . . ?
O00Y Cd2 C00H 25.0(4) . . ?
O00Y Cd2 C00H 163.7(5) 2_755 . ?
O006 Cd2 C00H 109.9(5) 2_755 . ?
O006 Cd2 C00H 28.9(4) . . ?
O00O Cd2 C00H 90.1(4) . 2_755 ?
O00O Cd2 C00H 92.8(4) 2_755 2_755 ?
N3 Cd2 C00H 121.6(5) . 2_755 ?
O00Y Cd2 C00H 163.7(5) . 2_755 ?
O00Y Cd2 C00H 25.0(4) 2_755 2_755 ?
O006 Cd2 C00H 28.9(4) 2_755 2_755 ?
O006 Cd2 C00H 109.9(5) . 2_755 ?
C00H Cd2 C00H 138.7(8) . 2_755 ?
O00T Cd3 O6 86.6(4) 4_646 . ?
O00T Cd3 O4 143.9(4) 4_646 . ?
O6 Cd3 O4 94.0(4) . . ?
O00T Cd3 O5 88.3(4) 4_646 . ?
O6 Cd3 O5 173.4(4) . . ?
O4 Cd3 O5 92.6(4) . . ?
O00T Cd3 O3 89.2(4) 4_646 . ?
O6 Cd3 O3 89.9(4) . . ?
O4 Cd3 O3 54.7(3) . . ?
O5 Cd3 O3 94.2(3) . . ?
O00T Cd3 O00F 53.8(4) 4_646 4_646 ?
O6 Cd3 O00F 86.1(3) . 4_646 ?
O4 Cd3 O00F 162.3(3) . 4_646 ?
O5 Cd3 O00F 87.5(4) . 4_646 ?
O3 Cd3 O00F 142.9(3) . 4_646 ?
O00T Cd3 C01F 27.6(4) 4_646 4_646 ?
O6 Cd3 C01F 84.9(4) . 4_646 ?
O4 Cd3 C01F 171.4(4) . 4_646 ?
O5 Cd3 C01F 88.7(4) . 4_646 ?
O3 Cd3 C01F 116.7(4) . 4_646 ?
O00F Cd3 C01F 26.2(4) 4_646 4_646 ?
O1 Cd4 O1 165.8(6) . 2_656 ?
O1 Cd4 O8 91.6(5) . 2_656 ?
O1 Cd4 O8 88.5(5) 2_656 2_656 ?
O1 Cd4 O8 88.5(5) . . ?
O1 Cd4 O8 91.6(5) 2_656 . ?
O8 Cd4 O8 179.4(8) 2_656 . ?
O1 Cd4 O203 82.2(7) . 2_656 ?
O1 Cd4 O203 84.1(7) 2_656 2_656 ?
O8 Cd4 O203 105.6(6) 2_656 2_656 ?
O8 Cd4 O203 75.0(6) . 2_656 ?
O1 Cd4 O203 84.1(7) . . ?
O1 Cd4 O203 82.3(7) 2_656 . ?
O8 Cd4 O203 75.0(6) 2_656 . ?
O8 Cd4 O203 105.6(6) . . ?
O203 Cd4 O203 30.5(10) 2_656 . ?
O1 Cd4 O2 54.4(4) . . ?
O1 Cd4 O2 139.7(4) 2_656 . ?
O8 Cd4 O2 86.4(5) 2_656 . ?
O8 Cd4 O2 93.1(5) . . ?
O203 Cd4 O2 135.6(7) 2_656 . ?
O203 Cd4 O2 134.1(6) . . ?
O1 Cd4 O2 139.7(4) . 2_656 ?
O1 Cd4 O2 54.4(4) 2_656 2_656 ?
O8 Cd4 O2 93.1(5) 2_656 2_656 ?
O8 Cd4 O2 86.4(5) . 2_656 ?
O203 Cd4 O2 134.1(6) 2_656 2_656 ?
O203 Cd4 O2 135.6(7) . 2_656 ?
O2 Cd4 O2 86.0(5) . 2_656 ?
C01M O1 Cd4 95.9(9) . . ?
C9 O005 Cd1 92.2(8) . 4_557 ?
O203 O203 Cd4 74.7(5) 2_656 . ?
N2 O11 N2 107.8(12) 2_656 . ?
C17 C15 C1B 114.8(15) . . ?
C17 C15 N300 131.5(11) . . ?
C1B C15 N300 113.5(9) . . ?
C00H O006 Cd2 85.3(10) . . ?
C00I O007 Cd1 99.6(9) . . ?
C1E N1 C01B 107.2(15) . . ?
C1E N1 Cd1 127.9(12) . . ?
C01B N1 Cd1 124.9(11) . . ?
C00I O00D Cd1 86.1(8) . . ?
C9 O00E Cd1 93.0(9) . 4_557 ?
N1 C1E N00U 112.5(16) . . ?
C01F O00F Cd3 87.2(9) . 4_656 ?
O00Y C00H O006 127.1(15) . . ?
O00Y C00H C1 120.2(15) . . ?
O006 C00H C1 112.5(16) . . ?
O00Y C00H Cd2 61.4(9) . . ?
O006 C00H Cd2 65.8(8) . . ?
C1 C00H Cd2 177.0(11) . . ?
O007 C00I O00D 121.2(13) . . ?
O007 C00I C015 118.5(13) . . ?
O00D C00I C015 120.4(13) . . ?
O4 C00N O3 119.0(13) . . ?
O4 C00N C4 117.8(12) . . ?
O3 C00N C4 123.2(13) . . ?
C01F O00T Cd3 95.7(10) . 4_656 ?
C1E N00U C014 105.8(12) . . ?
C1E N00U C103 126.3(14) . . ?
C014 N00U C103 127.3(12) . . ?
C6 C00X C8 118.7(12) . . ?
C6 C00X C01M 124.5(10) . . ?
C8 C00X C01M 116.8(10) . . ?
C5 C2 C1 120.8(12) . . ?
C00H O00Y Cd2 93.6(10) . . ?
C01M O2 Cd4 95.0(8) . . ?
C01B C014 N00U 107.6(13) . . ?
C7 C015 C00I 120.1(12) . . ?
C7 C015 C8 119.4(11) . . ?
C00I C015 C8 120.5(12) . . ?
C2 C1 C3 119.2(12) . . ?
C2 C1 C00H 124.9(13) . . ?
C3 C1 C00H 115.8(14) . . ?
C014 C01B N1 106.6(15) . . ?
C4 C01C C5 127.4(13) . . ?
O00F C01F O00T 123.1(15) . . ?
O00F C01F C5 119.5(13) . . ?
O00T C01F C5 117.4(13) . . ?
O00F C01F Cd3 66.6(9) . 4_656 ?
O00T C01F Cd3 56.6(8) . 4_656 ?
C5 C01F Cd3 173.4(9) . 4_656 ?
C6 C01H C7 125.8(11) . . ?
C6 C01H C9 121.5(11) . . ?
C7 C01H C9 112.7(10) . . ?
C00N O3 Cd3 90.8(9) . . ?
C00N O4 Cd3 95.4(9) . . ?
O2 C01M O1 114.6(12) . . ?
O2 C01M C00X 125.1(10) . . ?
O1 C01M C00X 120.3(11) . . ?
C1 C3 C4 120.6(13) . . ?
C01C C4 C00N 127.1(12) . . ?
C01C C4 C3 112.2(12) . . ?
C00N C4 C3 120.6(12) . . ?
C2 C5 C01C 119.6(12) . . ?
C2 C5 C01F 119.1(12) . . ?
C01C C5 C01F 121.2(12) . . ?
C01H C6 C00X 120.0(12) . . ?
C015 C7 C01H 115.8(10) . . ?
C00X C8 C015 120.2(11) . . ?
O00E C9 O005 122.0(12) . . ?
O00E C9 C01H 120.5(12) . . ?
O005 C9 C01H 117.4(11) . . ?
O00E C9 Cd1 61.0(7) . 4_557 ?
O005 C9 Cd1 61.1(7) . 4_557 ?
C01H C9 Cd1 175.4(8) . 4_557 ?
C101 C101 C103 118.6(8) 2_656 . ?
N2 C102 C103 139.3(14) . . ?
N2 C102 C102 105.5(9) . 2_656 ?
C103 C102 C102 114.9(8) . 2_656 ?
C102 C103 C101 126.3(12) . . ?
C102 C103 N00U 115.6(11) . . ?
C101 C103 N00U 118.2(11) . . ?
N132 N150 C500 98(2) . . ?
C11 N300 N4 107.3(15) . . ?
C11 N300 C15 125.2(15) . . ?
N4 N300 C15 127.4(12) . . ?
N132 C131 N181 110(2) . . ?
N132 C131 C500 72.3(13) . . ?
N181 C131 C500 38.2(14) . . ?
N150 N132 C121 113(2) . . ?
N150 N132 C131 108.5(17) . . ?
C121 N132 C131 138(2) . . ?
C10 N1J O201 98.9(14) . . ?
N2C O201 N1J 109.0(14) . . ?
C500 N181 C131 94(2) . . ?
N181 C500 N150 129(2) . . ?
N181 C500 C131 48.0(17) . . ?
N150 C500 C131 81.1(16) . . ?
C1A C1B C15 123.0(15) . . ?
C1A N2C O201 98.7(13) . . ?
N300 C11 N3 121(2) . . ?
N300 C11 C301 75.5(15) . . ?
N3 C11 C301 45.9(13) . . ?
C15 C17 C121 128.1(15) . . ?
N300 N4 C301 99.1(13) . . ?
N4 C301 N3 119.8(17) . . ?
N4 C301 C11 78.1(12) . . ?
N3 C301 C11 42.3(10) . . ?
C11 N3 C301 91.8(18) . . ?
C11 N3 Cd2 142.4(16) . . ?
C301 N3 Cd2 125.4(12) . . ?
N132 C121 C17 127.5(16) . . ?
N132 C121 C10 119.4(15) . . ?
C17 C121 C10 113.0(12) . . ?
N2C C1A C10 116.7(12) . . ?
N2C C1A C1B 127.0(16) . . ?
C10 C1A C1B 116.3(13) . . ?
N1J C10 C1A 116.6(12) . . ?
N1J C10 C121 118.6(15) . . ?
C1A C10 C121 124.8(11) . . ?
 
_refine_diff_density_max    0.678
_refine_diff_density_min   -0.612
_refine_diff_density_rms    0.087

_shelx_res_file
;
TITL vvm-110_auto_a.res in C2
    vt-110.res
    created by SHELXL-2019/3 at 12:49:20 on 27-Feb-2024
CELL  0.71073  21.0977  18.0607  10.5113   90.000  101.655   90.000
ZERR   55.000   0.0009   0.0005   0.0005    0.000    0.005    0.000
LATT -7
SYMM -X, Y, -Z
SFAC C H N O CD
UNIT 55.00 55.00 55.00 55.00 55.00
ACTA
LIST 4
OMIT 0 2 0
OMIT 0 -2 0
OMIT -1 1 1
OMIT -1 -1 1
OMIT -14 0 2
OMIT 6 0 3
OMIT 1 -1 3
FLAT 0.05 C121 C17 C15 C1B C1A C10 N1J O201 N2C
FLAT 0.05 N132 C131 N181 C500 N150
FLAT 0.05 N4 N300 N300 N3 C11
SADI 0.01 N300 C301 N132 C500
SADI 0.01 N150 N181
SADI 0.01 C10 N2C C1A N1J
SADI 0.01 C15 C10 C17 C1A C121 C1B
SADI 0.01 C15 C17 C1A C10
SADI 0.01 C17 C121 C1B C1A
SADI 0.01 C15 C1B C121 C10
SADI 0.01 C1A N2C C10 N1J
SADI 0.01 N1J O201 N2C O201
SADI 0.01 C131 C500 C11 C301
SADI 0.01 N4 N3 N150 N181
SADI 0.01 N132 C500 N300 C301
SIMU 0.005 0.01 2 N3 N300 N4 N300 C11 C15 C1B C1A C10 C121 C17 N2C N1J =
   O201 C131 N181 C500 N150 O601 C1B
TEMP 17
L.S. 6
BOND
REM LIST 4
FMAP 2
FREE O9 C500
FREE O120 N300
FREE O9 N150
FREE C301 O120
PLAN 30
TWIN
WGHT    0.034600   14.642900
BASF   0.55816
FVAR       0.07509   0.66600
CD1   5    0.295253    0.442654    0.904962    11.00000    0.06485    0.02511 =
         0.05700   -0.00294    0.03917   -0.00600
N2    3    0.467402    0.186338    0.573119    11.00000    0.04869    0.02924 =
         0.07151    0.00075    0.01633    0.00397
CD2   5    1.000000    0.620197    0.000000    10.50000    0.07263    0.03089 =
         0.07030    0.00000    0.04605    0.00000
CD3   5    0.705027    0.533109    0.598246    11.00000    0.07407    0.02989 =
         0.06273    0.00173    0.04564    0.00032
CD4   5    0.500000    0.853917    0.500000    10.50000    0.12252    0.04133 =
         0.11780    0.00000    0.10326    0.00000
O1    4    0.437120    0.869498    0.651154    11.00000    0.11174    0.05391 =
         0.11535    0.00408    0.07666   -0.00683
O005  4    0.274616    0.915957    0.946405    11.00000    0.09966    0.02334 =
         0.07668    0.01119    0.06382    0.00712
O6    4    0.791373    0.515317    0.769504    11.00000    0.10980    0.05209 =
         0.07017   -0.00296    0.02847   -0.01435
O7    4    0.212292    0.450296    0.728821    11.00000    0.08337    0.10006 =
         0.11838    0.07406    0.00693   -0.03176
O8    4    0.591303    0.853240    0.669883    11.00000    0.14785    0.10811 =
         0.12962   -0.05939    0.05956   -0.03911
O203  4    0.476235    0.981134    0.453220    10.50000    0.07906    0.06664 =
         0.12151    0.04223    0.02709    0.01392
O91   4    0.497072    0.617354    0.467071    10.50000    0.14116    0.08013 =
         0.06655    0.01726   -0.02668   -0.00791
O12   4    0.799087    0.626111    0.932647    11.00000    0.10225    0.08100 =
         0.10766   -0.00068    0.03666   -0.00178
O13   4    1.000000    0.859065    0.000000    10.50000    0.14927    0.05554 =
         0.36287    0.00000   -0.00903    0.00000
O10   4    0.406959    0.014084    0.617586    11.00000    0.11221    0.04867 =
         0.09273   -0.00457    0.00659    0.00837
O11   4    0.500000    0.140700    0.500000    10.50000    0.07981    0.06003 =
         0.05808    0.00000    0.01726    0.00000
C15   1    1.000000    0.290820    0.000000    10.50000    0.05225    0.02924 =
         0.04476    0.00000    0.01569    0.00000
O006  4    0.953033    0.724949    0.104691    11.00000    0.08476    0.05711 =
         0.07915    0.00933    0.05573   -0.00208
O007  4    0.289740    0.570400    0.936473    11.00000    0.09134    0.03407 =
         0.08693    0.00283    0.06361   -0.00590
N1    3    0.351398    0.362434    0.795126    11.00000    0.06388    0.04256 =
         0.05325   -0.00062    0.04273    0.00632
O00B  4    0.385770    0.437300    1.072130    11.00000    0.07571    0.04845 =
         0.06185    0.01173    0.01868   -0.00528
O00D  4    0.353348    0.544886    0.799060    11.00000    0.08055    0.02777 =
         0.04699   -0.00611    0.02832    0.00530
O00E  4    0.247111    0.824141    1.050498    11.00000    0.11361    0.03556 =
         0.10281   -0.00565    0.08263    0.00514
C1E   1    0.386400    0.378365    0.717735    11.00000    0.10776    0.07124 =
         0.09050   -0.00752    0.05461   -0.02148
AFIX  43
H1E   2    0.390981    0.426100    0.687656    10.50000   -1.20000
AFIX   0
O00F  4    0.849730    0.933319    0.302173    11.00000    0.07815    0.03170 =
         0.07320    0.00285    0.04023    0.00245
C00H  1    0.919934    0.673347    0.152096    11.00000    0.04923    0.10113 =
         0.04297    0.02058    0.02250    0.00931
C00I  1    0.323919    0.591805    0.861515    11.00000    0.06260    0.01936 =
         0.04858   -0.00277    0.01862   -0.00467
C00N  1    0.775440    0.625640    0.467591    11.00000    0.04806    0.02880 =
         0.04201    0.00298    0.00897    0.00707
O00O  4    0.916113    0.610836   -0.181861    11.00000    0.07823    0.04392 =
         0.10523    0.01804    0.02676   -0.00765
O00T  4    0.789235    0.910006    0.440152    11.00000    0.07962    0.03302 =
         0.07666   -0.00552    0.03945   -0.00155
N00U  3    0.416141    0.320752    0.683068    11.00000    0.06002    0.07739 =
         0.03995    0.01123    0.02583    0.02245
C00X  1    0.378807    0.774496    0.742879    11.00000    0.03803    0.01138 =
         0.05955   -0.00236    0.02375    0.00634
C2    1    0.869850    0.780415    0.264709    11.00000    0.02482    0.04463 =
         0.04449    0.01812    0.00937   -0.00375
AFIX  43
H2    2    0.891312    0.815069    0.223384    11.00000   -1.20000
AFIX   0
O00Y  4    0.923388    0.610126    0.139173    11.00000    0.06980    0.02942 =
         0.11654   -0.02546    0.07192   -0.00684
O2    4    0.447809    0.757182    0.595125    11.00000    0.10360    0.03967 =
         0.10641    0.00036    0.08801    0.00095
C014  1    0.391592    0.259508    0.739368    11.00000    0.07349    0.05247 =
         0.09822   -0.02984    0.03046    0.03145
AFIX  43
H014  2    0.401255    0.210077    0.727365    11.00000   -1.20000
AFIX   0
C015  1    0.330504    0.668950    0.844059    11.00000    0.04528    0.03323 =
         0.01872    0.00313    0.00654   -0.00493
C1    1    0.877534    0.705627    0.242696    11.00000    0.03642    0.06761 =
         0.01919   -0.00471    0.00751    0.01564
C01B  1    0.353467    0.283919    0.810289    11.00000    0.11014    0.02856 =
         0.09268    0.00716    0.05398    0.01060
AFIX  43
H01B  2    0.331425    0.255929    0.861665    11.00000   -1.20000
AFIX   0
C01C  1    0.804111    0.751712    0.408266    11.00000    0.02074    0.04833 =
         0.03925    0.00202    0.00572    0.00743
AFIX  43
H01C  2    0.779034    0.770542    0.464061    11.00000   -1.20000
AFIX   0
C01F  1    0.823634    0.890365    0.361102    11.00000    0.04406    0.04836 =
         0.04285   -0.00878    0.01307    0.00430
C01H  1    0.309636    0.797153    0.888810    11.00000    0.05915    0.01859 =
         0.03674    0.00097    0.03390    0.01130
O3    4    0.780351    0.555291    0.453637    11.00000    0.08084    0.03789 =
         0.05620    0.00787    0.03131   -0.01410
O4    4    0.740966    0.650108    0.544940    11.00000    0.09220    0.04055 =
         0.08163    0.00210    0.06318   -0.00022
O5    4    0.612429    0.538135    0.430629    11.00000    0.09802    0.05680 =
         0.06618    0.01194    0.03886   -0.00956
C01M  1    0.422099    0.797781    0.659235    11.00000    0.04770    0.01716 =
         0.06863    0.01896    0.03587    0.01066
C3    1    0.848009    0.654115    0.310001    11.00000    0.02483    0.03522 =
         0.04716    0.00111    0.00665    0.00153
AFIX  43
H3    2    0.853692    0.603804    0.297121    11.00000   -1.20000
AFIX   0
C4    1    0.807717    0.678569    0.401735    11.00000    0.01832    0.04083 =
         0.02974   -0.00220   -0.00413    0.00714
C5    1    0.833102    0.802713    0.342219    11.00000    0.03402    0.01563 =
         0.07062    0.00511    0.01960   -0.00035
C6    1    0.345139    0.823403    0.810764    11.00000    0.04270    0.02225 =
         0.03764    0.00007    0.01999    0.00014
AFIX  43
H6    2    0.348264    0.874281    0.799863    11.00000   -1.20000
AFIX   0
C7    1    0.298195    0.719182    0.910554    11.00000    0.04065    0.02061 =
         0.02803    0.00231    0.01957   -0.00195
AFIX  43
H7    2    0.271169    0.703608    0.965090    11.00000   -1.20000
AFIX   0
C8    1    0.370952    0.697054    0.757182    11.00000    0.05157    0.02449 =
         0.03282    0.00962    0.02441   -0.00070
AFIX  43
H8    2    0.391632    0.664100    0.711076    11.00000   -1.20000
AFIX   0
C9    1    0.274411    0.849195    0.969896    11.00000    0.03854    0.03428 =
         0.03715    0.00061    0.02304    0.01250
C101  1    0.481451    0.389107    0.547279    11.00000    0.04347    0.08020 =
         0.09265   -0.00848    0.03599    0.00441
AFIX  43
H101  2    0.470954    0.433266    0.583585    11.00000   -1.20000
AFIX   0
C102  1    0.475427    0.251613    0.549054    11.00000    0.05204    0.05907 =
         0.05132   -0.00152   -0.00907    0.01013
C103  1    0.459667    0.319921    0.587847    11.00000    0.04901    0.03927 =
         0.05263    0.00274    0.00885    0.00047
PART 0
PART -1
N150  3    1.108877    0.223832   -0.237440    10.50000    0.06780    0.06133 =
         0.05090    0.00824    0.04835    0.01480
N300  3    0.977610    0.368160    0.024403    10.50000    0.05469    0.02546 =
         0.04524   -0.00794    0.02522   -0.00250
C131  1    1.111144    0.104236   -0.214708    10.50000    0.06182    0.05510 =
         0.04616    0.01996    0.04180    0.01012
AFIX  43
H131  2    1.101753    0.058212   -0.183392    10.50000   -1.20000
AFIX   0
N132  3    1.087305    0.172971   -0.177556    10.50000    0.02230    0.06266 =
         0.05328   -0.02832    0.02713   -0.01235
N1J   3    1.028369    0.076117   -0.038953    10.50000    0.05145    0.04203 =
         0.06962   -0.00189    0.02466   -0.00538
O201  4    0.987298    0.045620    0.049747    10.50000    0.05779    0.03502 =
         0.07681    0.00347    0.03240    0.00047
O601  4    0.855471    0.099448    0.268940    10.50000    0.19771    0.05117 =
         0.09406   -0.00417    0.13502    0.01225
O120  4    0.895426    0.470756    0.174728    10.50000    0.07920    0.07584 =
         0.13044   -0.00577    0.04601    0.01166
N181  3    1.151052    0.115721   -0.305778    10.50000    0.06588    0.05470 =
         0.04403    0.02361    0.04176    0.00925
C500  1    1.145168    0.180374   -0.305587    10.50000    0.06506    0.05889 =
         0.04707    0.01589    0.04417    0.01130
AFIX  43
H500  2    1.167972    0.206172   -0.358417    10.50000   -1.20000
AFIX   0
C1B   1    0.972020    0.232973    0.070594    10.50000    0.05615    0.03491 =
         0.05273    0.01062    0.01078   -0.00150
AFIX  43
H1B   2    0.946912    0.247403    0.129532    10.50000   -1.20000
AFIX   0
N2C   3    0.959387    0.107808    0.111522    10.50000    0.05239    0.03337 =
         0.06685    0.00632    0.02804    0.00127
C11   1    0.997591    0.427267   -0.019572    10.50000    0.06725    0.02511 =
         0.04813   -0.00784    0.02202    0.00027
AFIX  43
H11   2    1.023820    0.424576   -0.080687    10.50000   -1.20000
AFIX   0
C17   1    1.035246    0.266682   -0.076773    10.50000    0.04046    0.02609 =
         0.03046    0.00600    0.02450   -0.00600
AFIX  43
H17   2    1.053460    0.302503   -0.121905    10.50000   -1.20000
AFIX   0
N4    3    0.934397    0.387080    0.092323    10.50000    0.04784    0.02499 =
         0.04953   -0.00856    0.02823   -0.00443
C301  1    0.936448    0.459655    0.078821    10.50000    0.09599    0.02567 =
         0.08976    0.00680    0.07231    0.00186
AFIX  43
H301  2    0.907008    0.489624    0.109629    10.50000   -1.20000
AFIX   0
N3    3    0.981966    0.490583    0.019438    10.50000    0.06684    0.03035 =
         0.04725   -0.01409    0.03053    0.01409
O9    4    0.811730    0.237926    0.274600    10.50000    0.07500    0.05951 =
         0.09415    0.03051    0.01981    0.00325
C121  1    1.048983    0.197362   -0.099925    10.50000    0.03554    0.02579 =
         0.03622    0.00138    0.02009    0.00168
C1A   1    0.981030    0.160901    0.053891    10.50000    0.04592    0.03058 =
         0.05517    0.00582    0.02096    0.00037
C10   1    1.017987    0.143528   -0.026136    10.50000    0.04046    0.03081 =
         0.05135    0.00080    0.02313   -0.00193
PART 0
HKLF 4




REM  vvm-110_auto_a.res in C2
REM wR2 = 0.0996, GooF = S = 1.060, Restrained GooF = 1.062 for all data
REM R1 = 0.0427 for 6927 Fo > 4sig(Fo) and 0.0586 for all 8604 data
REM 676 parameters refined using 131 restraints

END

WGHT      0.0325     14.6311

REM Highest difference peak  0.678,  deepest hole -0.612,  1-sigma level  0.087
Q1    1   0.5212  0.8389  0.5442  11.00000  0.05    0.68
Q2    1   0.7695  0.5415  0.8206  11.00000  0.05    0.64
Q3    1   0.3406  0.4437  0.8926  11.00000  0.05    0.57
Q4    1   0.6691  0.5285  0.6222  11.00000  0.05    0.55
Q5    1   0.2353  0.4392  0.6828  11.00000  0.05    0.54
Q6    1   0.9831  0.6385 -0.0441  11.00000  0.05    0.52
Q7    1   1.0265  0.4224 -0.0177  11.00000  0.05    0.49
Q8    1   0.1993  0.3517  0.5579  11.00000  0.05    0.47
Q9    1   0.7886  0.4845  0.8397  11.00000  0.05    0.46
Q10   1   0.4779  1.0568  0.5341  11.00000  0.05    0.46
Q11   1   0.6111  0.8550  0.7105  11.00000  0.05    0.45
Q12   1   0.5714  0.8765  0.6038  11.00000  0.05    0.43
Q13   1   0.6152  0.5437  0.3530  11.00000  0.05    0.42
Q14   1   0.3074  0.2529  0.7777  11.00000  0.05    0.40
Q15   1   0.7765  0.5127  0.7411  11.00000  0.05    0.40
Q16   1   0.3808  0.4229  1.1451  11.00000  0.05    0.39
Q17   1   0.2227  0.4663  0.7578  11.00000  0.05    0.38
Q18   1   0.2160  0.5002  0.6824  11.00000  0.05    0.38
Q19   1   0.4895  0.1934  0.5103  11.00000  0.05    0.38
Q20   1   0.5560  0.8544  0.5071  11.00000  0.05    0.35
Q21   1   0.4621  0.6168  0.4156  11.00000  0.05    0.35
Q22   1   0.4471  0.2672  0.6037  11.00000  0.05    0.35
Q23   1   0.3664  0.4058  1.0863  11.00000  0.05    0.34
Q24   1   0.7309  0.6340  0.4829  11.00000  0.05    0.33
Q25   1   0.9403  0.6212 -0.0115  11.00000  0.05    0.33
Q26   1   0.9621  0.8506 -0.0867  11.00000  0.05    0.33
Q27   1   0.9903  0.8658  0.0432  11.00000  0.05    0.33
Q28   1   1.2173  0.2035 -0.3752  11.00000  0.05    0.32
Q29   1   0.4488  0.3823  0.6046  11.00000  0.05    0.32
Q30   1   0.2300  0.4492  0.8429  11.00000  0.05    0.32
;
_shelx_res_checksum   25928

_shelx_hkl_file
;
   0   0  -2  479.59    6.41
   0   0   2  495.89    6.45
   0   0  -3    2.54    0.32
   0   0   3    2.82    0.36
   0   0   4   12.78    0.74
   0   0  -4   13.78    0.72
   0   0  -5    0.25    0.24
   0   0   5   -0.19    0.34
   0   0   6  123.56    3.05
   0   0  -6  126.64    2.94
   0   0  -7   -0.07    0.36
   0   0   7    0.18    0.35
   0   0   8    3.77    0.71
   0   0  -8    2.77    0.57
   0   0  -9    0.62    0.36
   0   0   9   -0.35    0.61
   0   0  10   31.43    1.90
   0   0  11    2.16    0.76
   0   0  12    6.07    1.08
   0   0  13    0.57    0.69
   0  -2   0   83.08    1.30
   0   2   0   82.53    1.30
   0   2   0   84.36    1.29
   0   2   0   86.58    1.39
   0  -2   0   85.36    1.39
   0  -2   1    4.99    0.32
   0   2  -1    4.66    0.30
   0  -2  -1    4.18    0.24
   0   2   1    4.04    0.25
   0  -2  -1    4.44    0.21
   0   2   1    4.14    0.22
   0   2  -2  144.59    2.46
   0   2   2  142.64    2.26
   0   2   2  139.92    2.20
   0  -2   2  143.74    2.49
   0  -2  -2  135.20    2.17
   0   2  -3   16.23    0.77
   0   2   3   17.92    0.70
   0  -2  -3   16.40    0.65
   0  -2   3   15.97    0.80
   0   2  -4  110.12    2.47
   0  -2   4  110.44    2.54
   0  -2  -4  111.60    2.26
   0   2   4  113.45    2.33
   0   2  -5  226.67    4.29
   0  -2   5  233.13    4.45
   0  -2  -5  228.37    4.01
   0   2   5  235.38    4.16
   0   2  -6   62.91    2.05
   0   2   6   61.19    1.96
   0  -2   6   64.75    2.17
   0  -2  -6   63.97    1.89
   0   2  -7   62.25    2.19
   0  -2  -7   65.91    2.06
   0   2   7   66.38    2.20
   0  -2   7   62.60    2.33
   0   2  -8    3.12    0.58
   0   2   8    3.38    0.60
   0  -2  -8    4.21    0.61
   0  -2   8    3.07    0.66
   0   2   9    0.78    0.42
   0  -2   9    0.91    0.48
   0  -2  -9    1.15    0.42
   0  -2 -10   12.12    1.08
   0   2  10   11.34    1.11
   0  -2  10   12.47    1.27
   0  -2  11    2.17    0.70
   0   2  11    2.27    0.69
   0  -2  12    0.99    0.72
   0   2  12    0.90    0.66
   0  -2  13    2.26    0.98
   0  -4   0  119.88    1.99
   0   4   0  118.07    2.01
   0  -4   0  118.25    2.00
   0   4   0  119.01    1.97
   0  -4   0  121.51    2.16
   0   4   0  119.15    2.16
   0  -4  -1  474.26    6.02
   0  -4   1  469.50    6.42
   0   4  -1  462.28    6.38
   0  -4   1  466.75    6.43
   0  -4  -1  466.85    6.42
   0  -4  -1  472.72    6.24
   0  -4  -1  466.01    6.14
   0   4  -1  469.60    6.45
   0   4   1  472.78    6.09
   0   4  -2  179.40    3.16
   0  -4   2  179.19    3.22
   0  -4  -2  181.70    2.91
   0   4   2  184.02    2.94
   0   4   2  185.59    2.77
   0  -4  -2  179.74    2.73
   0   4  -3   10.77    0.69
   0  -4  -3   11.49    0.55
   0  -4   3   11.08    0.73
   0   4   3   10.99    0.59
   0   4   3   11.57    0.53
   0   4  -4  181.79    3.60
   0  -4   4  184.77    3.71
   0  -4  -4  184.88    3.15
   0   4   4  179.30    3.28
   0   4   4  183.19    3.08
   0   4  -5  280.71    5.12
   0   4   5  282.09    4.77
   0  -4  -5  282.98    4.60
   0   4   5  280.72    4.69
   0  -4   5  288.35    5.29
   0   4  -6  300.80    5.60
   0   4   6  296.84    5.23
   0  -4  -6  298.45    5.04
   0   4   6  300.65    5.21
   0  -4   6  304.75    5.82
   0  -4  -7    5.30    0.58
   0   4  -7    6.32    0.75
   0   4   7    3.36    0.51
   0  -4   7    5.23    0.81
   0   4   8    0.07    0.41
   0  -4  -8    0.18    0.37
   0  -4   8    1.11    0.55
   0   4  -8    0.32    0.38
   0   4   9    7.08    0.83
   0  -4  -9    6.42    0.76
   0   4   9    8.94    0.92
   0  -4   9    5.89    0.92
   0   4  10    0.97    0.49
   0   4  10    0.20    0.46
   0  -4 -10    0.82    0.43
   0  -4  10    0.98    0.71
   0   4  11    7.38    0.96
   0   4  11    7.19    0.95
   0  -4  11    7.41    1.14
   0   4  12    2.48    0.72
   0  -4  12    1.68    0.88
   0   4  12    1.25    0.62
   0   4  13    2.11    0.66
   0  -4  13    0.46    0.66
   0   6   0   13.36    0.62
   0  -6   0   12.91    0.63
   0  -6   0   13.69    0.65
   0   6   0   13.62    0.65
   0   6   0   13.59    0.75
   0  -6   0   13.80    0.74
   0   6  -1 1003.54   13.25
   0  -6   1 1015.90   13.31
   0   6   1 1033.68   12.94
   0  -6   1 1019.70   13.34
   0  -6  -1 1041.25   12.88
   0   6   1 1040.77   13.43
   0   6  -1 1025.49   13.45
   0  -6  -1 1014.53   13.41
   0  -6  -1 1018.61   13.09
   0  -6  -1 1025.50   13.03
   0  -6   2    0.87    0.27
   0   6   2    0.19    0.18
   0   6  -2    0.53    0.28
   0  -6  -2    0.51    0.17
   0  -6   2    0.58    0.32
   0   6   2    0.28    0.21
   0  -6  -2    0.33    0.22
   0  -6  -2    0.48    0.22
   0  -6  -2    0.80    0.23
   0  -6   3    7.36    0.65
   0   6  -3    7.46    0.65
   0  -6   3    8.54    0.71
   0  -6  -3    9.32    0.59
   0   6   3    9.72    0.62
   0  -6  -3    7.88    0.47
   0   6   3   10.51    0.54
   0   6  -4   14.92    0.93
   0  -6  -4   13.81    0.69
   0  -6   4   15.43    1.00
   0   6   4   14.43    0.80
   0   6   4   15.20    0.70
   0   6  -5  207.63    4.30
   0  -6  -5  204.59    3.59
   0  -6   5  203.01    4.41
   0   6   5  201.36    3.89
   0   6   5  204.62    3.59
   0   6  -6   67.37    2.34
   0  -6  -6   72.04    1.93
   0  -6   6   67.54    2.47
   0   6   6   70.17    2.13
   0   6   6   73.54    1.94
   0  -6   7    3.07    0.65
   0   6  -7    3.52    0.67
   0  -6  -7    3.32    0.50
   0   6   7    3.61    0.59
   0   6   7    3.54    0.51
   0  -6   8    0.41    0.47
   0  -6  -8   -0.10    0.31
   0   6   8    0.32    0.32
   0   6   8    0.19    0.28
   0  -6   9   22.74    1.73
   0  -6  -9   22.66    1.28
   0   6   9   22.69    1.45
   0   6   9   25.09    1.36
   0  -6 -10    1.36    0.51
   0  -6  10    0.75    0.59
   0   6  10    0.99    0.48
   0   6  10    0.54    0.40
   0  -6  11   17.57    1.70
   0   6  11   18.77    1.49
   0   6  11   20.65    1.41
   0  -6  12    0.74    0.75
   0   6  12    0.56    0.54
   0  -6  13    1.66    0.88
   0   6  13    0.09    0.56
   0  -8   0   41.95    1.31
   0   8   0   42.88    1.33
   0   8   0   40.74    1.26
   0  -8   0   41.23    1.46
   0   8   0   40.68    1.48
   0  -8   0   39.86    1.30
   0  -8   1  340.20    5.53
   0  -8   1  337.86    5.50
   0   8  -1  338.96    5.44
   0   8   1  358.98    5.22
   0  -8  -1  348.49    5.15
   0   8   1  346.24    5.72
   0   8  -1  345.62    5.72
   0  -8  -1  348.88    5.72
   0  -8  -1  347.33    5.29
   0  -8   1  345.09    5.70
   0  -8  -1  347.94    5.30
   0  -8   2    7.67    0.65
   0   8  -2    8.64    0.68
   0  -8   2    8.58    0.73
   0  -8  -2    9.22    0.52
   0  -8  -2    8.01    0.60
   0  -8  -2    7.88    0.67
   0   8  -2    8.28    0.70
   0   8   2    9.58    0.55
   0  -8  -2    9.64    0.61
   0  -8  -3   31.42    0.94
   0  -8   3   33.18    1.42
   0   8  -3   32.25    1.38
   0  -8   3   32.60    1.46
   0  -8  -3   30.39    1.19
   0  -8  -3   31.09    1.34
   0   8   3   32.18    1.19
   0   8   3   30.49    1.01
   0  -8  -3   31.20    1.06
   0   8  -4  185.33    3.99
   0  -8   4  188.45    4.08
   0  -8   4  179.85    4.09
   0  -8  -4  183.06    3.27
   0   8   4  180.34    3.57
   0  -8  -4  184.64    3.57
   0   8   4  181.69    3.21
   0   8  -5  181.62    4.12
   0  -8   5  187.44    4.21
   0  -8   5  179.70    4.27
   0  -8  -5  174.15    3.28
   0   8   5  168.44    3.63
   0   8   5  181.16    3.33
   0   8  -6   99.55    3.03
   0  -8   6   98.74    3.06
   0  -8  -6   99.44    2.33
   0  -8   6   92.89    3.12
   0   8   6   94.72    2.66
   0   8   6  101.16    2.38
   0  -8   7   24.67    1.64
   0  -8  -7   23.81    1.12
   0   8   7   24.47    1.35
   0   8   7   23.38    1.13
   0  -8  -8   15.52    0.95
   0  -8   8   16.60    1.44
   0   8   8   16.07    1.18
   0   8   8   15.66    1.00
   0  -8   9    7.58    1.10
   0  -8  -9    6.35    0.69
   0   8   9    7.10    0.89
   0   8   9    7.19    0.74
   0  -8  10    1.43    0.77
   0   8  10    1.61    0.58
   0   8  10    1.09    0.41
   0  -8  11    2.28    0.85
   0   8  11    1.76    0.65
   0  -8  12    2.38    1.11
   0   8  12    1.58    0.67
   0 -10   0  488.00    7.38
   0  10   0  485.61    7.28
   0  10   0  491.31    7.39
   0  10   0  487.15    7.81
   0 -10   0  489.37    7.83
   0 -10   0  492.50    7.43
   0 -10   1   27.31    1.22
   0  10  -1   27.13    1.19
   0 -10   1   27.40    1.25
   0 -10  -1   28.19    1.10
   0  10   1   30.02    1.14
   0  10   1   28.27    1.35
   0 -10  -1   26.47    1.12
   0  10  -1   27.11    1.33
   0 -10  -1   27.52    1.32
   0 -10  -1   29.51    1.19
   0 -10   1   26.52    1.30
   0 -10   2  164.87    3.71
   0 -10  -2  172.74    3.11
   0  10  -2  172.29    3.64
   0  10   2  173.59    3.18
   0 -10   2  169.16    3.67
   0  10  -2  168.36    3.78
   0 -10  -2  173.30    3.48
   0 -10  -2  171.02    3.80
   0 -10  -2  169.56    3.38
   0 -10  -3   46.00    1.29
   0  10  -3   46.05    1.77
   0 -10   3   45.05    1.80
   0 -10   3   43.29    1.83
   0 -10  -3   47.28    1.82
   0 -10  -3   45.72    1.62
   0  10   3   45.24    1.35
   0 -10  -3   46.51    1.47
   0  10  -3   44.92    1.81
   0  10  -4   22.82    1.31
   0 -10  -4   19.99    0.80
   0 -10   4   21.74    1.29
   0 -10   4   20.61    1.33
   0 -10  -4   19.81    1.06
   0  10   4   19.85    1.04
   0 -10  -4   21.42    1.26
   0 -10  -4   18.17    0.87
   0  10   4   20.25    0.88
   0  10  -4   20.63    1.27
   0  10  -5   36.81    1.75
   0 -10   5   39.57    1.88
   0 -10  -5   35.36    1.28
   0 -10   5   35.66    1.84
   0 -10  -5   39.17    1.79
   0  10   5   34.93    1.50
   0  10   5   36.33    1.25
   0 -10   6   43.29    2.20
   0 -10  -6   44.58    1.48
   0  10   6   46.52    1.85
   0  10   6   49.07    1.55
   0 -10  -7    4.87    0.55
   0 -10   7    6.79    0.97
   0  10   7    4.43    0.65
   0  10   7    5.53    0.56
   0 -10  -8    2.65    0.44
   0 -10   8    2.75    0.78
   0  10   8    3.13    0.64
   0  10   8    2.44    0.48
   0 -10   9    1.01    0.67
   0  10   9    2.50    0.61
   0  10   9    2.12    0.43
   0 -10  10   24.53    2.06
   0  10  10   21.83    1.59
   0 -10  11    0.42    0.60
   0  10  11    0.30    0.57
   0  10  12    0.96    0.64
   0  12   0  516.06    7.99
   0 -12   0  520.65    8.13
   0  12   0  522.21    8.65
   0 -12   0  542.40    8.73
   0 -12   0  529.31    8.21
   0  12   1    3.30    0.45
   0  12  -1    3.19    0.48
   0 -12   1    2.76    0.49
   0 -12   1    2.80    0.51
   0 -12  -1    2.09    0.35
   0 -12  -1    2.72    0.45
   0  12   1    3.11    0.56
   0  12  -1    2.51    0.51
   0 -12   1    2.89    0.51
   0 -12  -1    2.21    0.45
   0 -12  -1    2.52    0.42
   0 -12   2   16.85    1.16
   0 -12   2   17.06    1.11
   0 -12  -2   19.87    0.96
   0  12  -2   17.48    1.12
   0  12   2   19.78    0.98
   0 -12  -2   20.26    1.27
   0 -12  -2   19.90    1.10
   0  12  -2   17.79    1.22
   0 -12  -2   21.09    1.13
   0 -12  -3    6.10    0.52
   0 -12   3    6.36    0.73
   0  12   3    5.96    0.53
   0  12  -3    6.85    0.75
   0 -12   3    6.28    0.81
   0 -12  -3    6.68    0.74
   0 -12  -3    6.58    0.67
   0  12  -3    4.47    0.65
   0 -12  -3    6.31    0.60
   0 -12  -4   11.57    0.67
   0  12   4   11.45    0.70
   0 -12   4   12.29    1.04
   0 -12   4   12.09    1.09
   0 -12  -4   11.35    0.89
   0  12  -4   12.34    1.07
   0 -12  -4   12.64    0.79
   0 -12  -5    7.82    0.55
   0 -12  -5    7.12    0.61
   0 -12   5    7.19    0.98
   0 -12  -5    7.66    0.75
   0  12  -5    7.07    0.89
   0  12   5    8.55    0.61
   0 -12  -6   26.39    1.00
   0 -12   6   26.17    1.79
   0 -12  -6   22.93    1.08
   0  12   6   26.83    1.42
   0  12   6   26.31    1.10
   0  12   7   -0.12    0.25
   0 -12   7   -0.14    0.61
   0 -12  -7   -0.02    0.28
   0  12   7    0.05    0.40
   0 -12   8   16.53    1.64
   0  12   8   13.48    1.15
   0  12   8   14.66    0.90
   0 -12   9    2.69    0.85
   0  12   9    2.23    0.61
   0 -12  10   20.36    1.94
   0  12  10   16.40    1.43
   0  12  11    0.71    0.65
   0  12  12    1.86    0.71
   0 -14   0   25.46    1.36
   0  14   0   26.45    1.33
   0  14   0   27.62    1.58
   0 -14   0   27.82    1.44
   0  14   1   37.97    1.55
   0  14  -1   35.95    1.61
   0 -14  -1   35.99    1.52
   0 -14   1   35.34    1.67
   0 -14  -1   34.91    1.54
   0  14   1   36.17    1.82
   0  14  -1   32.88    1.74
   0 -14  -1   36.84    1.63
   0 -14   1   33.84    1.63
   0  14   2   13.04    0.87
   0 -14   2   14.12    1.09
   0  14  -2   14.17    1.07
   0 -14  -2   12.91    0.86
   0 -14   2   13.38    1.11
   0  14  -2   13.17    1.14
   0 -14  -2   12.59    0.96
   0 -14  -2   14.98    1.04
   0 -14  -3    1.93    0.41
   0  14   3    2.74    0.44
   0 -14   3    3.00    0.64
   0 -14  -3    2.14    0.49
   0 -14  -3    2.01    0.47
   0  14  -3    2.62    0.56
   0 -14  -4  140.30    2.91
   0  14   4  137.80    2.99
   0 -14   4  138.61    4.07
   0  14  -4  132.06    3.92
   0 -14  -4  135.82    3.50
   0 -14  -4  133.28    3.10
   0  14   5  122.06    2.74
   0 -14  -5  125.55    2.63
   0 -14   5  123.22    3.99
   0  14  -5  128.38    3.93
   0 -14  -5  124.91    3.35
   0 -14  -5  117.05    2.75
   0 -14  -6   23.12    1.11
   0 -14   6   25.05    1.85
   0 -14  -6   26.77    1.03
   0  14   6   25.51    1.13
   0  14  -6   24.40    1.73
   0 -14   7   23.07    1.90
   0 -14  -7   24.19    0.97
   0  14  -7   23.41    1.76
   0  14   7   24.65    1.11
   0 -14   8   -0.26    0.68
   0  14   8    0.31    0.38
   0  14  -8   -0.17    0.57
   0 -14   9    4.18    1.05
   0  14   9    1.02    0.51
   0  14  10    4.40    0.82
   0  14  11    0.24    0.56
   0 -16   0   17.63    1.23
   0  16   0   18.31    1.40
   0 -16   0   19.11    1.31
   0 -16   1   82.36    2.82
   0 -16  -1   83.92    2.60
   0  16   1   77.09    2.92
   0 -16  -1   85.71    2.67
   0  16  -1   79.87    2.99
   0 -16  -1   81.92    2.74
   0 -16   1   84.20    2.85
   0 -16  -2    8.44    0.80
   0 -16   2    7.20    0.90
   0 -16  -2    8.47    0.86
   0  16  -2    6.73    0.91
   0 -16  -2    7.61    0.86
   0 -16   3    1.91    0.61
   0 -16  -3    2.88    0.50
   0  16   3    2.91    0.47
   0 -16  -3    2.83    0.56
   0  16  -3    1.44    0.50
   0 -16   4    4.17    0.83
   0 -16  -4    4.60    0.56
   0  16   4    4.28    0.56
   0 -16  -4    4.55    0.62
   0  16  -4    5.24    0.88
   0  16   5   28.59    1.26
   0 -16  -5   28.18    1.20
   0 -16   5   31.58    2.08
   0  16  -5   28.55    1.91
   0 -16  -5   26.40    1.26
   0  16   6   19.28    1.02
   0 -16   6   23.59    1.92
   0  16  -6   20.45    1.68
   0 -16   7    2.77    0.95
   0  16  -7    3.97    0.87
   0 -16   8   -0.16    0.64
   0  16  -8    0.22    0.53
   0 -18   0    3.98    0.69
   0  18   0    2.82    0.67
   0 -18  -1   95.47    2.99
   0 -18   1   91.88    3.21
   0  18   1   91.80    3.41
   0  18  -1   94.28    3.47
   0 -18  -1   94.72    3.19
   0 -18   2    5.61    0.85
   0 -18  -2    5.62    0.71
   0  18  -2    5.26    0.89
   0 -18  -2    4.83    0.77
   0 -18   3    2.56    0.69
   0 -18  -3    1.05    0.43
   0  18  -3    0.44    0.50
   0 -18  -3    1.27    0.51
   0 -18   4   12.18    1.37
   0 -18  -4   12.57    0.91
   0  18   4   12.94    0.93
   0  18  -4   11.33    1.29
   0 -18   5   25.06    1.97
   0  18  -5   23.97    1.87
   0 -18   6    9.78    1.36
   0  18  -6    8.59    1.20
   0 -18   7   -0.71    0.74
   0  18  -7    3.08    0.85
   0  20   0   10.74    1.27
   0 -20   0   10.48    1.10
   0  20  -1    0.28    0.52
   0 -20  -1   -0.07    0.46
   0 -20   1    0.29    0.48
   0  20  -2    0.20    0.51
   0 -20   2    0.79    0.52
   0 -20  -2    0.99    0.45
   0 -20  -3    9.54    0.94
   0 -20   3   11.91    1.35
   0  20  -3   10.47    1.27
   0 -20   4   15.54    1.62
   0  20  -4   16.38    1.63
   0 -20   5   21.15    1.90
   0  20  -5   20.01    1.81
   0 -20   6   12.49    1.54
   0 -22   0   42.54    2.33
   0  22   0   47.27    2.71
   0 -22   1    1.23    0.65
   0 -22  -1    0.95    0.54
   0  22  -1    0.22    0.54
   0 -22   2   18.59    1.70
   0 -22   3    3.41    0.91
   0 -22   4    9.34    1.35
   0 -24   1    1.36    0.82
   0 -24   2    1.17    0.62
  -1  -1  14    0.34    0.85
  -1   1  13   -1.29    0.94
  -1  -1  13    0.54    0.73
  -1  -1  12    1.63    0.77
  -1   1  12    2.05    0.78
  -1   1  11    3.38    0.73
  -1  -1  11    1.95    0.67
  -1  -1  10    0.99    0.62
  -1   1  10    0.40    0.48
   1  -1  -9    1.88    0.49
  -1   1   9    1.62    0.59
  -1  -1   9    1.44    0.54
   1   1  -9    1.47    0.50
   1   1  -8  137.54    3.58
  -1   1   8  125.23    3.53
  -1  -1   8  123.47    3.60
   1  -1  -8  135.20    3.44
  -1  -1   7   13.35    1.06
   1  -1  -7   13.52    0.96
  -1   1   7   11.80    0.98
   1   1  -7   13.14    0.98
   1   1  -6  327.88    5.83
  -1   1   6  346.57    5.94
   1  -1  -6  337.66    5.76
  -1  -1   6  332.91    6.03
   1   1  -5   27.66    1.21
  -1   1   5   28.23    1.22
  -1  -1   5   29.48    1.30
   1  -1  -5   27.18    1.16
   1   1  -4    2.02    0.37
  -1  -1   4    2.42    0.42
  -1   1   4    2.55    0.40
   1  -1  -4    2.38    0.37
  -1   1   3    1.32    0.30
  -1  -1   3    0.96    0.32
   1  -1  -3    1.48    0.29
   1   1  -3    1.96    0.33
  -1  -1   2  322.50    4.68
   1   1  -2  319.15    4.64
   1  -1  -2  327.77    4.57
  -1   1   2  333.98    4.58
  -1  -1   1    8.87    0.38
   1   1  -1   10.18    0.40
   1  -1  -1    9.24    0.37
   1  -1  -1    9.92    0.35
  -1   1   1   10.81    0.36
  -1   1  -1   31.96    0.73
   1  -1   1   31.44    0.74
   1  -1   1   32.22    0.73
   1   1   1   32.56    0.72
  -1   1  -2  827.75   10.55
   1   1   2  831.21   10.32
   1  -1   2  841.29   10.58
  -1  -1  -2  827.19   10.29
  -1   1  -3   10.02    0.57
   1  -1   3   11.02    0.62
   1   1   3   10.21    0.54
  -1  -1  -3   10.48    0.51
  -1   1  -4  224.38    3.88
  -1  -1  -4  226.83    3.69
   1   1   4  225.48    3.79
   1  -1   4  228.79    3.96
  -1   1  -5   11.26    0.77
  -1  -1  -5    9.99    0.68
   1  -1   5   12.13    0.84
   1   1   5   11.01    0.74
  -1  -1  -6    0.02    0.31
  -1   1  -6    0.45    0.32
   1   1   6    0.35    0.31
   1  -1   6   -0.15    0.40
  -1   1  -7   24.81    1.30
  -1  -1  -7   25.86    1.25
   1  -1   7   25.01    1.40
   1   1   7   26.86    1.37
  -1  -1  -8   14.63    1.02
  -1   1  -8   13.45    1.04
   1  -1   8   14.43    1.17
   1   1   8   13.51    1.06
  -1   1  -9   12.77    1.05
  -1  -1  -9   14.20    1.09
   1  -1   9   13.63    1.20
   1   1   9   13.63    1.17
   1   1  10    1.94    0.62
   1  -1  10    2.20    0.63
   1   1  11    0.68    0.57
   1  -1  11   -0.44    0.52
   1  -1  12    3.29    0.90
   1   1  12    3.95    0.90
   1  -1  13    0.05    0.68
  -1   3  13    8.60    1.12
  -1  -3  13    8.84    1.42
  -1   3  12   15.78    1.55
  -1  -3  12   18.12    1.79
  -1  -3  11    6.99    1.13
  -1   3  11    8.13    1.04
  -1   3  10    4.39    0.76
  -1  -3  10    2.38    0.73
   1  -3 -10    3.14    0.63
  -1  -3   9    4.79    0.80
   1  -3  -9    6.01    0.76
  -1   3   9    5.54    0.81
   1  -3  -8   12.49    0.97
  -1  -3   8   11.45    1.10
  -1   3   8   10.93    0.98
   1   3  -8   12.29    1.07
  -1  -3   7  102.99    3.11
  -1   3   7  102.33    2.85
   1  -3  -7  101.64    2.71
   1   3  -7  104.39    3.00
  -1   3   6    5.32    0.62
  -1  -3   6    4.15    0.62
   1   3  -6    4.24    0.59
   1  -3  -6    5.00    0.57
   1  -3  -5    1.41    0.35
  -1  -3   5    1.37    0.48
  -1   3   5    0.68    0.34
   1   3  -5    1.09    0.39
  -1  -3   4   56.23    1.84
  -1   3   4   54.56    1.53
   1  -3  -4   52.49    1.47
   1   3  -4   55.32    1.69
  -1  -3   3  170.92    3.21
   1   3  -3  162.49    3.10
   1  -3  -3  165.28    2.86
  -1   3   3  166.37    2.75
  -1   3   3  169.64    2.79
   1   3  -2  590.45    8.05
  -1  -3   2  599.24    8.11
  -1   3   2  596.64    7.65
  -1   3   2  604.47    7.75
   1  -3  -2  587.62    7.73
   1   3  -1  531.64    7.08
  -1  -3   1  536.95    7.10
   1  -3  -1  539.22    7.03
  -1   3   1  540.56    6.77
   1  -3  -1  532.98    6.79
  -1   3   1  557.01    6.99
   1  -3  -1  536.77    7.00
   1   3   0  212.27    2.90
   1  -3   0  207.58    3.02
  -1  -3   0  207.68    2.90
  -1   3   0  209.17    3.05
  -1   3   0  206.45    3.01
  -1  -3   0  212.48    2.91
   1  -3   0  210.73    3.08
  -1  -3   0  208.44    3.11
   1   3   0  212.62    3.11
  -1   3   0  209.98    3.10
   1  -3   0  211.26    3.08
  -1   3  -1    3.89    0.33
  -1   3  -1    4.48    0.36
   1  -3   1    4.35    0.35
   1  -3   1    3.93    0.33
   1   3   1    3.86    0.31
  -1  -3  -1    3.89    0.30
   1  -3   2    2.78    0.34
  -1   3  -2    3.38    0.36
   1  -3   2    2.76    0.37
  -1  -3  -2    2.61    0.21
   1   3   2    3.04    0.33
  -1  -3  -2    2.80    0.29
   1   3   2    2.60    0.20
  -1   3  -3   19.39    0.89
   1   3   3   22.20    0.85
   1  -3   3   20.69    0.94
  -1  -3  -3   20.59    0.66
   1   3   3   22.30    0.72
  -1   3  -4   25.36    1.09
   1   3   4   25.99    1.02
   1  -3   4   24.04    1.13
  -1  -3  -4   24.52    0.85
   1   3   4   23.82    0.89
  -1  -3  -5    4.14    0.43
   1  -3   5    4.79    0.60
  -1   3  -5    4.16    0.54
   1   3   5    3.91    0.46
  -1   3  -6   42.75    1.69
  -1  -3  -6   41.70    1.42
   1   3   6   45.07    1.58
   1  -3   6   44.13    1.81
  -1   3  -7  106.34    2.98
   1  -3   7  105.04    3.16
  -1  -3  -7  109.64    2.65
   1   3   7  109.99    2.85
  -1   3  -8   57.23    2.21
  -1  -3  -8   52.00    1.87
   1   3   8   53.51    2.06
   1  -3   8   49.70    2.25
  -1  -3  -9   21.57    1.28
   1  -3   9   20.64    1.53
   1   3   9   22.82    1.42
   1   3  10    6.70    0.90
   1  -3  10    7.31    1.03
  -1  -3 -10    8.30    0.90
   1  -3  11    0.93    0.64
   1   3  11    0.55    0.47
   1   3  11    0.97    0.51
   1  -3  12    3.17    0.95
   1   3  12    3.72    0.84
   1   3  12    4.85    0.91
   1  -3  13    0.66    0.72
  -1  -5  13    3.51    0.98
  -1   5  13    4.57    0.93
  -1  -5  12    0.16    0.64
  -1   5  12    0.52    0.53
  -1   5  12    0.86    0.50
  -1  -5  11    6.46    1.12
  -1   5  11    4.61    0.83
  -1   5  11    6.47    0.87
  -1  -5  10    2.70    0.80
   1  -5 -10    3.40    0.66
  -1   5  10    2.49    0.61
  -1   5  10    2.62    0.55
   1  -5  -9    7.08    0.79
  -1  -5   9    8.24    1.06
  -1   5   9    8.60    0.88
  -1   5   9    7.67    0.79
   1  -5  -8    1.17    0.38
  -1  -5   8    1.72    0.56
  -1   5   8    1.42    0.47
  -1   5   8    2.19    0.48
   1   5  -7  219.70    4.81
  -1  -5   7  210.10    4.98
   1  -5  -7  222.15    4.31
  -1   5   7  212.48    4.32
  -1   5   7  214.82    4.23
   1   5  -6   21.70    1.28
  -1  -5   6   23.40    1.41
   1  -5  -6   20.82    1.05
  -1   5   6   23.15    1.12
  -1   5   6   22.88    1.09
   1   5  -5  252.33    4.85
   1  -5  -5  249.27    4.32
  -1  -5   5  251.41    5.00
  -1   5   5  245.10    4.33
  -1   5   5  260.37    4.32
   1   5  -4   30.59    1.31
   1  -5  -4   32.30    1.13
  -1  -5   4   31.09    1.40
  -1   5   4   34.75    1.16
  -1   5   4   34.48    1.13
   1   5  -3    4.54    0.50
  -1  -5   3    5.11    0.56
  -1   5   3    5.44    0.43
   1  -5  -3    4.32    0.37
  -1   5   3    5.96    0.44
   1   5  -2   32.47    1.14
  -1  -5   2   35.90    1.23
  -1   5   2   33.11    0.95
   1  -5  -2   33.73    0.96
  -1   5   2   34.62    1.01
   1  -5  -2   33.26    1.01
   1  -5  -1   15.80    0.61
   1   5  -1   16.19    0.70
  -1  -5   1   15.83    0.71
  -1  -5   1   17.20    0.72
   1   5  -1   16.49    0.75
  -1   5   1   15.39    0.74
   1  -5  -1   15.75    0.59
   1  -5  -1   14.42    0.69
  -1   5   1   15.71    0.64
   1  -5  -1   16.14    0.67
  -1   5   0    3.79    0.36
   1   5   0    3.29    0.30
   1  -5   0    3.54    0.35
  -1  -5   0    3.41    0.31
   1  -5   0    4.39    0.36
  -1   5   0    3.76    0.34
  -1  -5   0    3.19    0.30
   1   5   0    3.49    0.39
  -1   5   0    3.94    0.42
  -1  -5   0    3.25    0.36
   1  -5   0    3.48    0.36
   1  -5   1  260.81    4.13
   1   5   1  264.88    3.66
   1  -5   1  255.59    4.12
  -1  -5  -1  268.76    3.63
  -1   5  -1  252.12    4.09
  -1   5  -1  259.79    4.16
  -1  -5  -1  259.89    4.14
  -1  -5  -1  266.36    4.03
  -1   5  -1  267.61    4.18
  -1  -5  -1  269.02    3.72
   1  -5   2    6.10    0.52
  -1   5  -2    5.68    0.49
   1  -5   2    5.18    0.50
   1   5   2    4.47    0.47
  -1  -5  -2    5.37    0.43
   1   5   2    5.11    0.30
  -1  -5  -2    4.69    0.29
   1  -5   3  289.14    4.94
   1  -5   3  285.21    4.90
  -1   5  -3  285.27    4.85
  -1  -5  -3  285.35    4.06
  -1  -5  -3  286.76    4.56
   1   5   3  290.71    4.62
   1   5   3  292.66    4.10
   1  -5   4    1.91    0.46
  -1  -5  -4    2.04    0.28
  -1   5  -4    1.75    0.40
   1   5   4    2.12    0.39
   1   5   4    2.29    0.29
  -1   5  -5   53.96    1.88
   1  -5   5   53.48    1.95
  -1  -5  -5   49.29    1.37
   1   5   5   56.97    1.76
   1   5   5   52.77    1.43
   1  -5   6    5.31    0.76
  -1  -5  -6    5.72    0.52
  -1   5  -6    6.77    0.75
   1   5   6    5.46    0.63
   1   5   6    5.64    0.51
  -1   5  -7   24.83    1.44
   1   5   7   23.88    1.18
   1  -5   7   22.89    1.46
  -1  -5  -7   21.57    1.04
   1   5   7   21.91    1.25
   1  -5   8    1.73    0.62
   1   5   8    1.22    0.35
  -1  -5  -8    1.58    0.37
   1   5   8    2.01    0.51
  -1  -5  -9    4.36    0.59
   1   5   9    3.57    0.63
   1  -5   9    4.90    0.87
   1   5   9    4.61    0.72
  -1  -5 -10    0.84    0.39
   1  -5  10    0.97    0.61
   1   5  10    1.24    0.52
   1   5  10    1.29    0.55
   1  -5  11    1.91    0.82
   1   5  11    2.76    0.71
   1   5  11    2.54    0.60
   1  -5  12    2.02    0.86
   1   5  12    0.88    0.58
   1  -5  13    4.09    1.07
  -1   7  13    2.95    0.73
  -1  -7  12    1.80    0.84
  -1   7  12    0.53    0.51
  -1  -7  11    1.21    0.74
  -1   7  11   -0.03    0.47
  -1   7  11    0.71    0.44
  -1  -7  10    1.47    0.72
  -1   7  10    1.06    0.50
  -1   7  10    1.65    0.47
   1  -7  -9   11.38    0.95
  -1  -7   9   11.54    1.27
  -1   7   9   12.20    1.04
  -1   7   9   11.09    0.93
  -1  -7   8    2.51    0.69
   1  -7  -8    3.20    0.56
  -1   7   8    2.20    0.49
  -1   7   8    3.22    0.53
   1  -7  -7  128.48    3.02
  -1  -7   7  128.89    3.85
  -1   7   7  123.91    3.15
  -1   7   7  130.38    3.04
   1   7  -6   10.15    0.95
  -1  -7   6   12.81    1.12
   1  -7  -6   11.12    0.77
  -1   7   6   14.45    0.93
  -1   7   6   12.71    0.81
   1   7  -5   20.57    1.25
   1  -7  -5   22.92    1.04
  -1  -7   5   21.34    1.34
  -1   7   5   21.08    1.05
  -1   7   5   22.45    1.03
   1   7  -4   64.77    2.08
  -1  -7   4   65.30    2.19
   1  -7  -4   63.28    1.73
  -1   7   4   68.76    1.81
  -1   7   4   68.66    1.75
   1   7  -3  402.02    6.44
  -1  -7   3  400.87    6.55
  -1   7   3  403.58    5.93
   1  -7  -3  396.47    5.90
   1  -7  -3  395.14    6.32
  -1   7   3  407.78    5.88
   1  -7  -3  387.03    5.87
   1   7  -2  329.42    5.36
  -1  -7   2  332.79    5.38
   1  -7  -2  335.00    4.86
  -1  -7   2  338.43    5.49
   1  -7  -2  331.49    5.39
   1  -7  -2  328.18    5.03
  -1   7   2  337.82    4.98
   1   7  -2  340.38    5.46
   1  -7  -2  325.09    5.12
   1   7  -1   20.29    0.88
  -1  -7   1   19.96    0.88
  -1  -7   1   20.88    0.93
  -1   7   1   19.39    0.81
   1  -7  -1   18.94    0.77
   1   7  -1   19.14    0.94
   1  -7  -1   19.39    0.93
  -1   7   1   19.70    0.96
  -1  -7   1   19.79    0.95
   1  -7  -1   19.29    0.85
   1   7   0  370.64    5.38
  -1  -7   0  370.65    5.44
  -1   7   0  372.07    5.60
  -1  -7   0  383.54    5.48
   1  -7   0  378.53    5.57
  -1   7   0  363.50    5.51
  -1   7   0  365.75    5.83
   1   7   0  379.47    5.83
   1  -7   0  371.15    5.79
  -1  -7   0  372.08    5.82
   1  -7   0  367.09    5.62
  -1  -7  -1  128.28    2.25
  -1   7  -1  124.16    2.59
   1  -7   1  125.72    2.64
   1   7   1  130.01    2.28
  -1   7  -1  129.24    2.69
   1  -7   1  124.09    2.66
   1   7   1  126.28    2.71
  -1  -7  -1  129.95    2.77
  -1  -7  -1  129.57    2.54
  -1   7  -1  128.06    2.74
  -1  -7  -1  128.64    2.33
   1  -7   2    8.38    0.66
   1   7   2    6.90    0.41
   1  -7   2    6.69    0.62
  -1  -7  -2    7.58    0.40
  -1   7  -2    7.63    0.61
  -1  -7  -2    7.66    0.61
  -1  -7  -2    7.05    0.56
  -1  -7  -2    7.27    0.46
  -1   7  -2    7.97    0.65
   1  -7   3  333.35    5.80
  -1   7  -3  329.86    5.69
   1  -7   3  343.93    5.79
  -1  -7  -3  334.50    5.40
   1   7   3  338.63    5.41
  -1  -7  -3  337.60    4.80
   1   7   3  345.05    4.78
  -1   7  -4   18.36    1.10
   1  -7   4   20.75    1.15
  -1  -7  -4   19.04    0.75
   1  -7   4   19.81    1.16
   1   7   4   18.20    0.97
   1   7   4   19.70    0.76
  -1   7  -5   81.02    2.52
   1  -7   5   83.45    2.58
  -1  -7  -5   83.89    1.84
   1  -7   5   79.46    2.61
   1   7   5   83.91    2.34
   1   7   5   84.99    1.90
   1  -7   6   23.79    1.41
  -1   7  -6   23.20    1.38
   1  -7   6   23.93    1.50
  -1  -7  -6   23.45    0.96
   1   7   6   22.77    1.24
   1   7   6   24.31    1.02
   1  -7   7   21.72    1.49
  -1  -7  -7   21.26    0.99
   1   7   7   21.73    1.32
   1   7   7   21.27    1.03
  -1  -7  -8   19.16    1.00
   1  -7   8   15.49    1.38
   1   7   8   17.79    1.23
   1   7   8   18.05    1.03
   1  -7   9    6.86    1.06
  -1  -7  -9    6.47    0.67
   1   7   9    6.38    0.84
   1   7   9    6.58    0.71
   1  -7  10    2.09    0.73
   1   7  10    1.98    0.58
   1   7  10    2.52    0.53
   1  -7  11    3.24    0.94
   1   7  11    2.32    0.68
   1  -7  12    0.51    0.73
   1   7  12   -0.75    0.55
  -1   9  13    0.75    0.66
  -1  -9  12    4.86    1.18
  -1   9  12    5.74    0.99
  -1  -9  11    1.97    0.81
  -1   9  11    1.05    0.63
  -1  -9  10    0.71    0.69
  -1   9  10    0.18    0.41
  -1   9  10    1.36    0.45
   1  -9  -9    1.74    0.48
  -1  -9   9    2.39    0.79
  -1   9   9    2.77    0.62
  -1   9   9    2.14    0.50
  -1  -9   8   17.56    1.53
   1  -9  -8   20.22    1.15
  -1   9   8   19.57    1.28
  -1   9   8   18.99    1.13
   1  -9  -7   11.40    0.83
  -1  -9   7   10.75    1.16
  -1   9   7   11.05    0.91
  -1   9   7   11.08    0.82
   1  -9  -6   22.33    1.10
  -1  -9   6   22.91    1.54
  -1   9   6   21.13    1.16
  -1   9   6   22.12    1.10
   1   9  -5   31.20    1.58
  -1  -9   5   32.58    1.64
  -1  -9   5   30.74    1.67
   1  -9  -5   28.63    1.21
  -1   9   5   30.47    1.31
  -1   9   5   29.68    1.20
  -1  -9   4   15.29    1.06
   1   9  -4   15.96    1.08
  -1  -9   4   17.27    1.18
   1  -9  -4   16.81    1.05
   1  -9  -4   15.96    0.88
  -1   9   4   16.39    0.89
   1  -9  -4   14.84    0.81
  -1   9   4   14.64    0.79
   1   9  -3  214.93    4.29
   1  -9  -3  215.76    3.58
  -1  -9   3  215.70    4.32
  -1  -9   3  209.74    4.40
   1  -9  -3  212.63    3.87
   1  -9  -3  214.95    4.35
   1   9  -3  215.56    4.34
  -1   9   3  212.40    3.70
   1  -9  -3  208.47    3.83
   1  -9  -2  227.38    3.77
  -1  -9   2  224.12    4.25
   1   9  -2  219.49    4.19
  -1  -9   2  220.93    4.34
   1  -9  -2  228.41    4.38
   1   9  -2  223.60    4.38
   1  -9  -2  224.87    3.96
  -1   9   2  232.32    3.89
   1  -9  -2  219.76    4.06
   1   9  -1  889.04   12.15
   1  -9  -1  895.49   11.96
  -1  -9   1  893.48   12.30
  -1   9   1  901.37   12.04
  -1  -9   1  898.47   12.24
   1   9  -1  896.97   12.56
  -1   9   1  899.18   12.58
   1  -9  -1  906.89   12.57
  -1  -9   1  897.30   12.59
   1  -9  -1  902.49   12.21
  -1   9   0  182.90    3.47
   1  -9   0  184.53    3.50
  -1  -9   0  184.44    3.44
  -1  -9   0  190.45    3.46
   1   9   0  183.32    3.34
  -1   9   0  188.82    3.56
  -1   9   0  179.67    3.77
   1   9   0  186.49    3.79
  -1  -9   0  192.08    3.85
   1  -9   0  192.35    3.82
   1  -9   0  185.77    3.60
  -1   9  -1    6.78    0.63
  -1   9  -1    5.70    0.55
   1  -9   1    5.30    0.55
   1   9   1    6.51    0.49
  -1  -9  -1    5.51    0.46
   1  -9   1    5.39    0.57
   1   9   1    5.71    0.60
  -1  -9  -1    5.79    0.53
  -1   9  -1    6.20    0.64
  -1  -9  -1    5.06    0.46
  -1  -9  -1    4.87    0.56
   1  -9   2    9.44    0.78
   1   9   2    9.50    0.55
  -1  -9  -2   10.11    0.54
  -1   9  -2   10.26    0.77
   1  -9   2    8.73    0.72
  -1   9  -2    9.16    0.78
  -1  -9  -2    9.04    0.74
  -1  -9  -2    9.16    0.69
  -1  -9  -2    9.03    0.58
  -1   9  -3   12.56    0.89
   1  -9   3   11.69    0.90
   1  -9   3   11.18    0.90
  -1  -9  -3   10.18    0.51
  -1  -9  -3   10.44    0.85
  -1  -9  -3   10.00    0.74
  -1  -9  -3   10.99    0.60
   1   9   3    8.83    0.51
  -1   9  -3   11.79    0.89
  -1  -9  -4   84.84    1.66
   1  -9   4   83.10    2.58
  -1   9  -4   87.01    2.58
   1  -9   4   80.62    2.62
  -1  -9  -4   82.16    1.84
  -1  -9  -4   86.07    2.32
   1   9   4   83.36    2.29
  -1  -9  -4   86.22    2.52
   1   9   4   81.44    1.77
   1  -9   5    1.74    0.49
  -1   9  -5    1.74    0.43
  -1  -9  -5    1.41    0.28
   1  -9   5    1.50    0.55
   1   9   5    1.98    0.43
   1   9   5    1.45    0.28
   1  -9   6    5.34    0.82
  -1  -9  -6    6.58    0.52
   1   9   6    4.74    0.65
   1   9   6    6.67    0.54
   1  -9   7   33.56    1.99
  -1  -9  -7   32.96    1.19
   1   9   7   30.07    1.59
   1   9   7   33.54    1.28
   1  -9   8   20.09    1.62
  -1  -9  -8   20.19    0.99
   1   9   8   20.18    1.40
   1   9   8   18.73    1.02
   1  -9   9    8.50    1.20
   1   9   9   10.00    1.06
   1   9   9    9.11    0.78
   1  -9  10    2.78    0.87
   1   9  10    4.08    0.76
   1  -9  11    2.07    0.87
   1   9  11    0.85    0.52
   1   9  12    0.52    0.49
  -1  11  12    5.80    1.07
  -1 -11  11    0.66    0.60
  -1  11  11    0.24    0.49
  -1 -11  10    0.61    0.66
  -1  11  10    0.79    0.52
  -1 -11   9    5.99    1.17
  -1  11   9    4.52    0.74
  -1  11   9    4.11    0.59
   1 -11  -8  115.97    2.91
  -1 -11   8  114.33    4.14
  -1  11   8  115.25    3.35
  -1  11   8  118.40    3.00
   1 -11  -7    4.23    0.58
  -1 -11   7    3.59    0.82
  -1  11   7    4.21    0.64
  -1  11   7    5.12    0.59
  -1 -11   6  136.04    4.09
   1 -11  -6  129.98    3.01
  -1  11   6  134.86    3.31
  -1  11   6  133.65    2.98
   1 -11  -5   27.29    1.24
  -1 -11   5   25.01    1.59
  -1  11   5   27.90    1.30
   1  11  -5   28.79    1.61
  -1  11   5   26.92    1.15
  -1  11   4    0.56    0.28
  -1 -11   4    0.65    0.41
   1  11  -4    0.93    0.34
   1 -11  -4    0.39    0.25
  -1 -11   4    0.26    0.37
   1 -11  -4    0.59    0.29
   1 -11  -4    0.53    0.35
   1 -11  -4    0.45    0.26
   1  11  -4    0.66    0.38
  -1 -11   3    1.38    0.43
  -1  11   3    0.89    0.29
   1 -11  -3    1.16    0.30
   1  11  -3    1.32    0.41
  -1 -11   3    0.75    0.40
   1 -11  -3    1.14    0.33
   1 -11  -3    1.66    0.42
   1  11  -3    1.53    0.45
   1 -11  -3    1.32    0.36
   1  11  -2   55.54    1.89
   1 -11  -2   53.35    1.61
  -1  11   2   52.68    1.65
  -1 -11   2   55.69    1.94
  -1 -11   2   52.80    1.95
   1 -11  -2   55.06    1.75
   1 -11  -2   57.34    2.05
   1  11  -2   53.33    2.00
   1 -11  -2   52.05    1.80
  -1  11   1   34.25    1.35
   1 -11  -1   35.69    1.36
  -1 -11   1   37.39    1.48
   1  11  -1   36.96    1.43
  -1 -11   1   36.31    1.50
  -1  11   1   36.61    1.63
   1 -11  -1   38.05    1.63
   1  11  -1   38.38    1.66
  -1 -11   1   37.71    1.64
   1 -11  -1   36.29    1.48
  -1  11   0    8.11    0.66
  -1 -11   0    7.30    0.64
   1  11   0    7.64    0.61
   1 -11   0    7.91    0.69
  -1  11   0    8.28    0.69
   1  11   0    9.59    0.84
  -1  11   0    8.52    0.80
  -1 -11   0    9.16    0.81
   1 -11   0    9.21    0.80
  -1 -11   0    7.73    0.66
   1 -11   0    9.40    0.75
  -1 -11  -1    0.34    0.24
   1  11   1    0.57    0.22
   1 -11   1    0.38    0.26
  -1  11  -1    0.65    0.31
  -1 -11  -1    0.47    0.25
   1 -11   1    0.50    0.32
  -1  11  -1    0.40    0.33
   1  11   1    0.27    0.32
  -1 -11  -1    0.32    0.24
  -1 -11  -1    1.05    0.38
   1 -11   2  277.86    5.37
   1 -11   2  284.42    5.38
   1  11   2  280.27    4.57
  -1 -11  -2  278.44    4.52
  -1  11  -2  280.03    5.25
  -1  11  -2  276.74    5.43
  -1 -11  -2  281.91    5.11
  -1 -11  -2  290.77    5.51
  -1 -11  -2  275.89    4.80
   1 -11   3    0.43    0.36
  -1  11  -3    0.68    0.37
  -1 -11  -3    0.23    0.18
   1  11   3    0.74    0.23
   1 -11   3    0.61    0.37
  -1 -11  -3    1.29    0.42
  -1 -11  -3    0.44    0.28
  -1 -11  -3    0.83    0.27
  -1  11  -3    0.73    0.36
  -1 -11  -4  146.55    2.61
  -1  11  -4  146.53    3.72
   1  11   4  147.22    2.75
   1 -11   4  150.12    3.84
   1 -11   4  140.36    3.83
  -1 -11  -4  150.93    3.77
  -1 -11  -4  150.96    3.47
  -1 -11  -4  140.54    2.77
  -1  11  -4  142.67    3.75
  -1 -11  -5    6.66    0.44
  -1 -11  -5    6.38    0.52
   1 -11   5    6.43    0.86
   1  11   5    6.79    0.72
  -1 -11  -5    8.58    0.80
   1  11   5    7.50    0.53
   1  11   6    1.52    0.30
  -1 -11  -6    1.27    0.23
  -1 -11  -6    1.22    0.27
   1 -11   6    1.92    0.67
   1  11   6    1.79    0.51
  -1 -11  -7    0.85    0.28
   1 -11   7    0.37    0.49
   1  11   7    0.75    0.37
   1  11   7    0.54    0.23
   1 -11   8   33.38    2.21
   1  11   8   31.08    1.73
   1  11   8   31.55    1.26
   1 -11   9    1.93    0.89
   1  11   9    0.63    0.49
   1 -11  10    2.58    0.94
   1  11  10    3.07    0.76
   1 -11  11    0.49    0.76
   1  11  11    0.23    0.53
   1  11  12    5.79    1.04
  -1  13  12    1.73    0.69
  -1  13  11    2.90    0.77
  -1 -13  10    0.55    0.62
  -1  13  10    0.29    0.64
  -1 -13   9    3.19    0.97
  -1  13   9    2.58    0.60
  -1 -13   8    9.54    1.33
  -1  13   8    9.92    0.98
  -1  13   8    9.44    0.77
   1 -13  -7    1.10    0.35
  -1  13   7    0.50    0.28
   1 -13  -7   -0.36    0.41
  -1 -13   7    0.75    0.58
  -1  13   7    0.57    0.44
  -1 -13   6   30.54    1.98
   1 -13  -6   29.53    1.35
   1 -13  -6   29.95    1.18
   1  13  -6   30.19    1.84
  -1  13   6   27.39    1.23
  -1  13   5    1.97    0.37
   1 -13  -5    2.78    0.40
  -1 -13   5    3.19    0.74
   1 -13  -5    3.26    0.54
   1 -13  -5    2.23    0.38
   1  13  -5    3.24    0.68
   1 -13  -4    2.42    0.39
  -1  13   4    2.25    0.40
  -1 -13   4    1.09    0.53
   1 -13  -4    2.83    0.49
   1 -13  -4    2.78    0.51
   1  13  -4    2.14    0.58
   1 -13  -3   86.87    2.24
  -1  13   3   87.26    2.32
   1  13  -3   91.92    2.79
  -1 -13   3   88.34    2.81
  -1 -13   3   87.79    2.90
   1 -13  -3   85.94    2.50
   1  13  -3   85.94    2.87
   1 -13  -3   84.75    2.49
  -1 -13   2   91.18    2.74
   1  13  -2   91.07    2.66
  -1  13   2   89.44    2.41
   1 -13  -2   89.13    2.36
  -1 -13   2   91.47    2.82
   1  13  -2   89.00    2.88
   1 -13  -2   91.28    2.53
   1 -13  -2   91.57    2.89
   1 -13  -2   88.43    2.63
   1  13  -1  149.99    3.45
  -1 -13   1  148.94    3.56
  -1  13   1  151.59    3.42
  -1 -13   1  146.88    3.57
   1 -13  -1  154.35    3.40
   1 -13  -1  148.07    3.31
   1 -13  -1  152.17    3.84
   1  13  -1  148.20    3.82
  -1  13   1  149.79    3.85
   1 -13  -1  151.10    3.58
  -1 -13   1  154.78    3.89
  -1 -13   0    4.87    0.59
  -1  13   0    3.14    0.51
   1 -13   0    4.15    0.59
   1  13   0    5.35    0.56
   1 -13   0    4.05    0.60
  -1 -13   0    4.47    0.56
  -1  13   0    2.68    0.58
   1  13   0    4.50    0.66
  -1 -13   0    5.01    0.67
   1 -13   0    3.81    0.60
   1 -13   1   60.83    2.17
  -1  13  -1   58.32    2.06
  -1 -13  -1   60.96    1.90
  -1 -13  -1   61.74    2.04
  -1 -13  -1   63.80    2.35
  -1  13  -1   59.21    2.29
   1  13   1   59.53    2.26
  -1 -13  -1   60.14    1.98
   1 -13   1   61.54    2.19
  -1 -13  -2   85.55    2.19
   1 -13   2   81.29    2.69
   1 -13   2   89.87    2.80
   1  13   2   89.52    2.25
  -1  13  -2   88.57    2.68
  -1 -13  -2   87.95    2.58
  -1  13  -2   80.81    2.76
  -1 -13  -2   84.07    2.40
   1 -13   3   14.60    1.18
   1  13   3   15.32    0.83
   1 -13   3   16.36    1.20
  -1  13  -3   15.61    1.14
  -1 -13  -3   15.30    0.81
  -1  13  -3   15.41    1.20
  -1 -13  -3   15.01    1.06
  -1 -13  -3   13.66    0.87
   1  13   4   17.34    0.86
  -1 -13  -4   17.51    0.81
   1 -13   4   17.99    1.37
  -1  13  -4   17.43    1.34
  -1 -13  -4   17.40    1.16
  -1 -13  -4   17.57    0.90
  -1 -13  -5   25.94    0.94
   1  13   5   25.43    1.02
  -1 -13  -5   25.12    1.05
   1 -13   5   25.25    1.73
  -1 -13  -5   27.31    1.46
  -1  13  -5   23.95    1.60
   1 -13   6    0.77    0.61
  -1 -13  -6    0.46    0.27
  -1 -13  -6   -0.10    0.20
   1  13   6    0.10    0.20
  -1  13  -6    0.28    0.47
  -1 -13  -7   13.98    0.63
   1 -13   7   12.69    1.37
   1  13   7   15.01    1.19
   1  13   7   14.16    0.76
   1 -13   8    3.67    0.95
   1  13   8    2.98    0.65
   1 -13   9   10.97    2.26
   1  13   9   11.01    1.17
   1 -13  10    2.84    0.99
   1  13  10    3.53    0.79
   1  13  11    0.41    0.64
  -1  15  10    1.01    0.57
  -1 -15   9    5.08    1.11
   1  15  -9    2.41    0.88
  -1 -15   8    0.84    0.74
   1  15  -8    1.68    0.67
  -1 -15   7   25.46    1.99
   1  15  -7   29.00    2.00
  -1  15   7   23.40    1.17
  -1 -15   6    0.34    0.57
  -1  15   6    0.90    0.33
   1 -15  -6    0.89    0.32
   1  15  -6    0.03    0.51
  -1  15   5    1.30    0.39
   1 -15  -5    1.87    0.41
  -1 -15   5    1.52    0.70
   1 -15  -5    1.20    0.41
   1 -15  -5    1.21    0.39
   1  15  -5    1.17    0.52
   1 -15  -4   97.34    2.49
  -1  15   4   92.76    2.52
  -1 -15   4   92.51    3.34
   1  15  -4   92.63    3.28
   1 -15  -4   99.92    2.91
   1 -15  -4   90.63    2.67
   1 -15  -3   42.36    1.62
  -1  15   3   43.05    1.66
  -1 -15   3   40.02    2.05
   1 -15  -3   39.59    1.78
   1  15  -3   38.55    2.02
   1 -15  -3   39.51    1.78
   1 -15  -2  173.87    3.83
  -1  15   2  179.83    3.92
  -1 -15   2  181.25    4.35
   1  15  -2  179.72    4.22
  -1 -15   2  174.29    4.38
   1  15  -2  164.66    4.45
   1 -15  -2  174.47    4.03
   1 -15  -2  176.98    4.24
  -1  15   1   72.45    2.35
   1 -15  -1   70.50    2.33
  -1 -15   1   67.87    2.44
   1  15  -1   72.33    2.38
   1  15  -1   68.25    2.66
   1 -15  -1   68.43    2.26
  -1  15   1   72.00    2.70
   1 -15  -1   68.30    2.46
  -1 -15   1   72.10    2.48
   1 -15   0   52.11    2.06
   1  15   0   57.30    2.01
  -1 -15   0   54.66    2.06
   1  15   0   56.38    2.35
  -1  15   0   50.85    2.26
  -1 -15   0   54.58    2.07
   1 -15   0   55.43    2.19
  -1  15  -1    2.18    0.46
   1 -15   1    2.97    0.54
   1 -15   1    1.78    0.45
  -1 -15  -1    2.05    0.46
  -1  15  -1    1.65    0.53
   1  15   1    0.72    0.38
  -1 -15  -1    2.18    0.46
  -1 -15  -1    2.06    0.49
   1 -15   2    0.31    0.41
  -1 -15  -2    0.28    0.31
  -1  15  -2    0.69    0.48
  -1 -15  -2    0.94    0.38
  -1 -15  -2    0.79    0.39
   1  15   3   62.92    1.89
  -1 -15  -3   60.98    1.85
   1 -15   3   59.67    2.54
  -1 -15  -3   58.47    2.27
  -1  15  -3   58.44    2.53
  -1 -15  -3   56.97    2.00
   1  15   4    9.62    0.71
  -1 -15  -4   10.69    0.71
   1 -15   4   11.27    1.20
  -1  15  -4   11.47    1.17
  -1 -15  -4   10.39    0.77
  -1 -15  -5   24.30    0.99
   1  15   5   23.19    1.02
   1 -15   5   24.23    1.77
  -1 -15  -5   20.38    1.01
  -1  15  -5   22.20    1.65
   1 -15   6   18.77    1.66
  -1 -15  -6   18.20    0.79
   1  15   6   17.88    0.88
  -1  15  -6   18.45    1.57
   1 -15   7   12.60    1.48
  -1  15  -7   15.10    1.48
   1 -15   8    7.15    1.18
  -1  15  -8    7.70    1.15
   1 -15   9    6.02    1.22
   1  15   9    7.14    0.96
  -1  15  -9    7.94    1.22
   1  15  10    0.08    0.49
   1  15  11   -0.38    0.65
  -1 -17   8    2.06    0.89
   1  17  -8    1.27    0.69
  -1 -17   7   39.19    2.60
   1  17  -7   39.94    2.46
  -1 -17   6    2.38    0.88
   1  17  -6    3.71    0.82
  -1 -17   5   11.96    1.36
   1 -17  -5   12.94    0.90
  -1  17   5   10.43    0.84
   1  17  -5   10.97    1.23
  -1 -17   4    2.48    0.75
  -1  17   4    1.57    0.39
   1 -17  -4    1.85    0.41
   1  17  -4    2.64    0.71
   1 -17  -4    1.59    0.46
   1 -17  -3   56.20    2.04
  -1  17   3   54.07    2.02
  -1 -17   3   55.93    2.58
   1  17  -3   56.59    2.64
   1 -17  -3   53.31    2.23
  -1  17   2    2.40    0.48
   1 -17  -2    3.67    0.61
  -1 -17   2    3.21    0.69
   1  17  -2    3.97    0.81
   1 -17  -2    4.19    0.72
   1 -17  -1    3.93    0.63
  -1 -17   1    6.34    0.82
  -1  17   1    6.32    0.93
   1  17  -1    5.34    0.89
   1 -17  -1    4.63    0.84
  -1 -17   0    2.51    0.51
  -1 -17   0    1.84    0.46
   1 -17   0    2.85    0.55
   1  17   0    3.45    0.68
  -1  17   0    2.88    0.68
   1 -17   1   45.62    2.15
  -1 -17  -1   47.39    1.94
  -1  17  -1   48.71    2.38
   1  17   1   47.91    2.32
  -1 -17  -1   46.57    2.04
   1 -17   2   -0.01    0.45
  -1 -17  -2    1.46    0.46
  -1  17  -2    0.58    0.51
  -1 -17  -2    1.57    0.51
  -1 -17  -3  155.97    3.46
   1 -17   3  148.78    4.44
  -1  17  -3  152.83    4.54
  -1 -17  -3  143.35    3.61
   1 -17   4    1.45    0.70
  -1 -17  -4    1.26    0.34
  -1  17  -4    1.67    0.69
   1  17   5   40.17    1.46
   1 -17   5   39.51    2.40
  -1  17  -5   45.29    2.49
   1 -17   6    0.02    0.78
  -1  17  -6    0.53    0.72
   1 -17   7    0.71    0.63
  -1  17  -7    2.99    0.79
  -1 -19   6    1.32    0.72
   1  19  -6    1.96    0.74
  -1 -19   5    0.03    0.61
   1  19  -5    0.60    0.55
   1 -19  -4    8.98    0.83
  -1  19   4    8.49    0.83
   1  19  -4    8.44    1.15
  -1 -19   4    9.95    1.25
   1 -19  -3   19.31    1.26
   1  19  -3   19.86    1.67
  -1 -19   3   20.80    1.70
   1 -19  -2   46.58    2.06
   1  19  -2   48.47    2.56
  -1 -19   2   46.92    2.47
   1 -19  -1   28.81    1.67
   1  19  -1   28.67    1.93
  -1 -19   1   28.90    1.79
   1 -19   0   37.78    2.00
  -1  19   0   38.67    2.27
   1  19   0   37.39    2.20
  -1 -19   0   37.74    1.94
  -1  19  -1    3.63    0.80
  -1 -19  -1    3.46    0.64
   1 -19   1    4.04    0.76
  -1  19  -2    0.16    0.51
   1 -19   2    0.97    0.49
  -1 -19  -2    1.17    0.44
  -1 -19  -3   18.70    1.18
   1 -19   3   18.64    1.64
  -1  19  -3   22.01    1.78
   1 -19   4    4.42    0.98
  -1  19  -4    5.18    0.94
   1 -19   5    1.00    0.64
  -1  19  -5    1.30    0.62
   1 -19   6    1.84    0.79
  -1  19  -6    1.50    0.67
  -1 -21   5    2.58    0.78
   1  21  -4    1.59    0.74
  -1 -21   4    0.47    0.66
   1  21  -3    5.92    1.06
  -1 -21   3    4.93    0.96
   1 -21  -2   26.00    1.64
   1  21  -2   26.39    1.99
  -1 -21   2   23.56    1.83
   1 -21  -1   22.36    1.60
  -1 -21   1   24.08    1.76
   1  21  -1   24.62    1.93
  -1 -21   0    3.37    0.75
   1 -21   0    4.91    0.85
  -1  21   0    4.03    0.89
   1  21   0    2.53    0.63
   1 -21   1    5.05    1.07
  -1 -21  -1    5.71    0.82
  -1  21  -1    5.50    1.03
   1 -21   2   34.41    2.21
  -1  21  -2   34.98    2.30
   1 -21   3    2.30    0.80
  -1  21  -3    2.93    0.84
   1 -21   4   10.81    1.38
   1 -21   5    1.85    0.79
  -1 -23   3    2.69    0.87
  -1 -23   2   12.67    1.48
  -1 -23   1    1.09    0.62
  -1 -23   0   -1.24    0.74
   1 -23   0   -0.52    0.62
   1 -23   1    1.16    0.68
   1 -23   2   21.60    1.87
   1 -23   3    0.66    0.68
  -2   0  14    2.37    0.97
  -2   0  13    0.64    0.79
  -2   0  12    4.31    1.03
  -2   0  11   -0.31    0.62
  -2   0  10    3.84    0.75
  -2   0   9    0.90    0.49
   2   0  -9    0.48    0.35
   2   0  -8    0.88    0.42
  -2   0   8    1.72    0.54
   2   0  -7    8.27    0.81
  -2   0   7   10.17    0.94
  -2   0   6  405.92    6.96
   2   0  -6  419.61    6.87
  -2   0   5    2.57    0.47
   2   0  -5    2.47    0.43
  -2   0   4  243.36    4.27
   2   0  -4  240.37    4.19
  -2   0   3    1.61    0.36
   2   0  -3    1.66    0.34
   2   0  -2  691.67    9.13
  -2   0   2  705.70    9.16
   2   0  -1    2.22    0.24
  -2   0   1    2.43    0.25
   2   0   0   60.56    1.02
   2   0   1    4.57    0.25
   2   0   1    4.82    0.25
  -2   0  -1    5.24    0.26
  -2   0  -1    5.11    0.25
   2   0   2   13.54    0.53
  -2   0  -2   12.49    0.49
   2   0   3    5.00    0.41
  -2   0  -3    4.79    0.38
   2   0   4  314.03    4.87
  -2   0  -4  301.36    4.73
  -2   0  -5    3.17    0.42
   2   0   5    2.74    0.45
   2   0   6  198.32    4.00
  -2   0  -6  191.90    3.79
   2   0   7    3.08    0.55
  -2   0  -7    3.78    0.55
   2   0   8   32.99    1.68
  -2   0  -8   37.32    1.63
   2   0   9    3.81    0.69
  -2   0  -9    4.16    0.65
   2   0  10    2.82    0.68
   2   0  11    0.16    0.47
   2   0  12    1.33    0.64
  -2  -2  14    0.44    0.82
  -2  -2  13    1.01    0.80
  -2   2  13    3.23    1.08
  -2  -2  12    1.26    0.84
  -2   2  12   -0.23    0.66
  -2   2  11    1.25    0.65
  -2  -2  11    1.70    0.76
  -2  -2  10   13.07    1.31
  -2   2  10   11.38    1.17
  -2   2   9   34.97    1.88
   2  -2  -9   35.52    1.79
  -2  -2   9   34.44    1.97
   2  -2  -8   20.71    1.29
   2   2  -8   21.86    1.39
  -2  -2   8   23.35    1.52
  -2   2   8   21.26    1.39
   2  -2  -7   16.55    1.08
  -2   2   7   16.72    1.13
  -2  -2   7   15.91    1.22
   2   2  -7   16.02    1.12
  -2   2   6   63.38    2.10
   2  -2  -6   71.87    2.14
   2   2  -6   73.03    2.28
  -2  -2   6   72.00    2.34
   2  -2  -5    2.30    0.41
  -2   2   5    2.11    0.45
  -2  -2   5    2.66    0.48
   2   2  -5    2.86    0.46
  -2   2   4  171.11    3.27
   2  -2  -4  169.89    3.23
  -2  -2   4  171.39    3.46
   2   2  -4  160.48    3.30
  -2  -2   3   22.43    0.97
   2   2  -3   21.28    0.94
  -2   2   3   23.12    0.91
   2  -2  -3   20.35    0.86
   2  -2  -2   11.28    0.58
  -2  -2   2   10.42    0.60
   2   2  -2   10.43    0.59
  -2   2   2   10.79    0.52
  -2  -2   1  478.05    6.24
   2   2  -1  470.17    6.21
   2  -2  -1  459.44    6.22
  -2   2   1  474.43    6.22
  -2  -2   0  691.30    8.42
   2   2   0  680.20    8.40
   2   2   0  683.02    8.52
  -2   2   0  676.90    8.49
  -2  -2   0  675.48    8.53
   2  -2   0  684.46    8.48
   2  -2   0  686.68    8.67
  -2   2   0  696.25    8.67
  -2   2  -1 1315.68   15.92
   2  -2   1 1292.18   15.89
  -2   2  -1 1304.28   15.89
   2  -2   1 1284.90   15.94
  -2  -2  -1 1258.90   15.88
   2   2   1 1281.38   15.90
   2  -2   2  131.92    2.37
  -2   2  -2  133.75    2.35
   2  -2   2  132.88    2.38
  -2  -2  -2  132.66    1.85
   2   2   2  131.58    2.33
   2   2   2  128.73    1.89
  -2   2  -3   46.91    1.32
  -2  -2  -3   44.70    1.01
   2  -2   3   45.95    1.37
   2   2   3   45.62    1.30
   2   2   3   45.02    1.06
  -2  -2  -4   20.08    0.77
  -2   2  -4   19.88    0.93
   2  -2   4   19.93    0.99
   2   2   4   21.72    0.85
   2  -2   5    1.56    0.41
   2   2   5    0.94    0.30
  -2   2  -5    1.46    0.36
  -2  -2  -5    0.91    0.27
  -2  -2  -6   81.32    2.09
  -2   2  -6   87.96    2.40
   2   2   6   82.76    2.22
   2  -2   6   84.01    2.48
  -2   2  -7    4.30    0.62
   2   2   7    3.63    0.56
   2  -2   7    4.10    0.69
  -2  -2  -7    3.51    0.48
   2   2   8    4.79    0.67
  -2   2  -8    6.19    0.72
   2  -2   8    6.68    0.85
  -2  -2  -8    6.21    0.66
  -2  -2  -9    1.07    0.46
   2  -2   9    0.89    0.52
   2   2   9    1.88    0.53
  -2  -2 -10    4.41    0.69
   2   2  10    5.83    0.85
   2  -2  10    4.30    0.84
   2  -2  11    9.24    1.22
   2   2  11    9.68    1.09
   2  -2  12    2.15    0.78
   2   2  12    2.68    0.70
   2   2  12    3.31    0.79
   2  -2  13   -0.63    0.73
  -2  -4  13    0.37    0.75
  -2   4  13   -0.55    0.74
  -2   4  13    0.37    0.52
  -2  -4  12    1.08    0.85
  -2   4  12    1.34    0.60
  -2   4  12    2.02    0.67
  -2   4  11    5.48    0.86
  -2  -4  11    6.38    1.09
  -2   4  11    5.84    0.85
   2  -4 -10   18.04    1.32
  -2   4  10   16.90    1.34
  -2  -4  10   19.10    1.64
  -2   4   9   10.45    1.04
  -2  -4   9    9.43    1.11
   2  -4  -9   11.37    1.00
   2  -4  -8   61.72    2.19
  -2   4   8   57.72    2.25
  -2  -4   8   56.93    2.49
   2  -4  -7    7.04    0.73
   2   4  -7    6.49    0.77
  -2  -4   7    7.27    0.89
  -2   4   7    5.87    0.71
   2  -4  -6   31.32    1.35
  -2   4   6   29.29    1.37
  -2  -4   6   32.53    1.63
   2   4  -6   30.06    1.51
  -2   4   6   32.71    1.33
   2  -4  -5  198.21    3.80
   2   4  -5  196.61    4.08
  -2  -4   5  205.89    4.29
  -2   4   5  206.67    3.74
  -2  -4   4    2.65    0.48
   2  -4  -4    2.51    0.39
   2   4  -4    2.65    0.45
  -2   4   4    3.24    0.36
  -2   4   4    3.20    0.41
  -2  -4   3   75.12    1.98
   2   4  -3   71.65    1.89
   2  -4  -3   73.95    1.79
  -2   4   3   72.37    1.52
  -2   4   3   74.92    1.71
  -2  -4   2   65.50    1.67
   2   4  -2   62.42    1.60
  -2   4   2   65.74    1.28
   2  -4  -2   67.55    1.26
   2  -4  -2   68.34    1.54
  -2   4   2   69.12    1.55
   2   4  -1  217.54    3.41
  -2  -4   1  223.74    3.46
   2  -4  -1  220.40    3.06
   2  -4  -1  220.79    3.42
  -2   4   1  219.77    3.40
   2   4  -1  221.58    3.45
  -2   4   1  222.59    3.46
   2  -4  -1  223.37    3.52
   2   4   0  355.62    4.71
   2  -4   0  350.48    4.97
  -2   4   0  348.36    4.97
  -2   4   0  342.83    5.03
  -2  -4   0  360.23    4.74
  -2  -4   0  347.66    5.03
   2   4   0  361.89    5.03
   2  -4   0  350.61    4.96
  -2   4   0  351.09    5.00
   2  -4   0  344.20    5.03
  -2   4  -1    2.14    0.30
  -2   4  -1    2.64    0.36
   2  -4   1    2.51    0.32
   2  -4   1    2.05    0.32
   2   4   1    2.98    0.34
  -2  -4  -1    2.08    0.29
  -2  -4  -1    2.41    0.28
  -2   4  -2   18.35    0.82
   2  -4   2   19.23    0.86
   2  -4   2   18.77    0.85
  -2  -4  -2   17.42    0.75
   2   4   2   17.40    0.78
   2  -4   3   44.86    1.46
   2  -4   3   43.75    1.43
  -2   4  -3   44.16    1.41
  -2  -4  -3   43.48    0.88
   2   4   3   45.02    1.37
   2   4   3   45.05    0.94
   2  -4   4   32.33    1.31
  -2   4  -4   29.87    1.25
   2   4   4   33.37    1.25
   2  -4   4   29.81    1.31
   2   4   4   31.63    0.93
  -2  -4  -4   32.58    0.88
  -2   4  -5  116.66    2.85
   2   4   5  114.07    2.72
   2   4   5  120.34    2.40
  -2  -4  -5  112.16    2.20
   2  -4   5  117.29    2.97
   2   4   6    3.46    0.53
  -2  -4  -6    2.63    0.37
   2   4   6    3.57    0.46
   2  -4   6    2.96    0.59
  -2   4  -6    3.34    0.56
  -2   4  -7   46.39    1.90
  -2  -4  -7   45.64    1.51
   2   4   7   44.27    1.63
   2  -4   7   44.82    2.01
   2   4   7   47.05    1.86
   2   4   8    3.75    0.64
  -2  -4  -8    2.83    0.49
  -2   4  -8    3.91    0.66
   2  -4   8    3.66    0.71
   2   4   8    3.13    0.59
   2  -4   9    4.22    0.83
  -2  -4  -9    3.33    0.55
   2   4   9    5.21    0.71
   2   4   9    4.71    0.74
   2   4  10   10.30    1.02
  -2  -4 -10    7.54    0.81
   2  -4  10    8.13    1.08
   2   4  10    8.10    0.98
   2   4  11    3.87    0.75
   2  -4  11    3.07    0.84
   2   4  11    4.23    0.85
   2  -4  12    2.51    0.83
   2   4  12    3.27    0.77
   2  -4  13    0.54    0.69
  -2  -6  13    5.95    1.27
  -2   6  13    4.65    0.90
  -2  -6  12    0.15    0.76
  -2   6  12   -0.07    0.55
  -2   6  12    0.45    0.43
  -2  -6  11    1.90    0.79
  -2   6  11    1.10    0.47
  -2   6  11    1.46    0.52
   2  -6 -10    1.61    0.51
  -2  -6  10    3.00    0.80
  -2   6  10    2.53    0.62
  -2   6  10    1.80    0.49
   2  -6  -9    8.93    0.92
  -2  -6   9    8.64    1.16
  -2   6   9    9.73    0.92
  -2   6   9    9.21    0.88
   2  -6  -8    3.25    0.57
  -2  -6   8    2.64    0.69
  -2   6   8    2.97    0.53
  -2   6   8    3.39    0.53
   2  -6  -7    3.82    0.55
  -2  -6   7    3.97    0.76
   2   6  -7    4.95    0.74
  -2   6   7    3.72    0.54
  -2   6   7    4.12    0.56
   2   6  -6    8.54    0.85
   2  -6  -6    7.11    0.66
  -2  -6   6    8.11    0.94
  -2   6   6    7.37    0.65
  -2   6   6    8.12    0.69
   2   6  -5  406.94    6.97
  -2  -6   5  405.45    7.14
   2  -6  -5  402.83    6.45
  -2   6   5  404.99    6.23
  -2   6   5  413.85    6.37
  -2  -6   4    1.11    0.40
   2   6  -4    1.60    0.41
   2  -6  -4    2.15    0.40
  -2   6   4    1.78    0.34
  -2   6   4    3.52    0.44
   2   6  -3  430.99    6.73
  -2  -6   3  440.63    6.88
   2  -6  -3  430.16    6.05
  -2   6   3  424.83    6.09
   2  -6  -3  426.49    6.34
  -2   6   3  446.77    6.41
   2   6  -2    8.07    0.60
  -2  -6   2    8.75    0.65
   2  -6  -2    9.42    0.61
   2  -6  -2    9.36    0.49
   2   6  -2    7.98    0.59
   2  -6  -2   10.20    0.63
  -2   6   2    9.56    0.58
  -2  -6   1   10.73    0.60
   2  -6  -1   12.06    0.62
   2   6  -1   11.42    0.62
  -2  -6   1   11.23    0.64
   2  -6  -1   12.41    0.69
  -2   6   1   12.48    0.71
   2   6  -1   10.73    0.67
  -2  -6   1   11.93    0.70
  -2   6   1   11.02    0.62
   2  -6  -1   12.52    0.68
   2  -6   0   45.46    1.28
  -2   6   0   43.21    1.25
  -2  -6   0   44.18    1.12
  -2   6   0   44.59    1.30
   2   6   0   44.20    1.10
  -2  -6   0   47.67    1.18
   2   6   0   44.90    1.35
  -2   6   0   43.40    1.35
  -2  -6   0   43.71    1.36
   2  -6   0   42.56    1.31
   2  -6   0   42.05    1.30
  -2   6  -1   30.70    1.13
  -2   6  -1   29.67    1.09
   2  -6   1   30.26    1.12
   2  -6   1   30.59    1.12
   2   6   1   29.73    0.78
   2   6   1   28.72    0.75
  -2  -6  -1   29.83    0.78
  -2   6  -1   28.76    1.09
  -2  -6  -1   30.06    1.05
  -2  -6  -1   29.74    1.09
  -2  -6  -1   29.77    0.79
  -2  -6  -2   41.71    0.81
   2  -6   2   40.48    1.40
   2   6   2   40.82    0.86
  -2   6  -2   40.12    1.36
   2  -6   2   40.23    1.40
  -2  -6  -2   40.58    1.31
   2   6   2   40.30    1.29
  -2  -6  -2   40.12    1.33
  -2  -6  -2   40.92    0.89
   2  -6   3    2.92    0.45
  -2   6  -3    3.18    0.47
   2  -6   3    2.67    0.51
  -2  -6  -3    2.95    0.24
   2   6   3    4.23    0.49
  -2  -6  -3    3.55    0.41
   2   6   3    3.66    0.26
   2  -6   4    2.79    0.47
  -2   6  -4    3.33    0.50
   2  -6   4    3.09    0.54
  -2  -6  -4    2.96    0.27
   2   6   4    2.31    0.42
   2   6   4    2.68    0.28
   2  -6   5  368.41    6.48
  -2   6  -5  370.80    6.40
  -2  -6  -5  358.10    5.13
   2  -6   5  355.68    6.49
   2   6   5  358.24    6.10
   2   6   5  364.64    5.28
  -2   6  -6    1.93    0.51
   2  -6   6    1.25    0.42
   2  -6   6    1.31    0.52
  -2  -6  -6    1.70    0.31
   2   6   6    1.72    0.45
   2   6   6    1.99    0.33
  -2   6  -7   89.98    2.88
   2  -6   7   85.06    2.98
  -2  -6  -7   88.00    2.09
   2   6   7   87.73    2.69
   2   6   7   89.51    2.23
  -2  -6  -8    1.98    0.42
   2  -6   8    2.12    0.67
   2   6   8    1.86    0.51
   2   6   8    1.95    0.38
  -2  -6  -9   -0.71    0.44
   2  -6   9    0.20    0.50
   2   6   9    0.25    0.45
   2   6   9    0.35    0.33
   2  -6  10    1.59    0.68
   2   6  10    1.33    0.51
   2   6  10    2.45    0.54
   2  -6  11    2.94    0.90
   2   6  11    3.22    0.75
   2   6  11    2.84    0.59
   2  -6  12   -0.37    0.73
   2   6  12    1.22    0.60
  -2   8  13    0.93    0.56
  -2  -8  12   -0.87    0.77
  -2   8  12    0.36    0.53
  -2  -8  11    5.59    1.15
  -2   8  11    5.23    0.84
  -2   8  11    4.92    0.75
  -2  -8  10   11.61    1.42
  -2   8  10   11.64    1.11
  -2   8  10   11.87    1.06
  -2  -8   9   23.50    1.85
   2  -8  -9   21.88    1.34
  -2   8   9   21.88    1.39
  -2   8   9   22.03    1.34
   2  -8  -8   35.45    1.60
  -2  -8   8   34.15    2.07
  -2   8   8   34.70    1.65
  -2   8   8   34.83    1.59
   2  -8  -7    1.64    0.45
  -2  -8   7    1.17    0.58
  -2   8   7    1.05    0.43
  -2   8   7    0.57    0.35
   2   8  -6    3.52    0.62
  -2  -8   6    3.46    0.70
   2  -8  -6    3.18    0.51
  -2   8   6    2.98    0.48
  -2   8   6    3.18    0.50
   2   8  -5   34.84    1.63
   2  -8  -5   33.55    1.37
  -2  -8   5   36.24    1.76
  -2   8   5   35.69    1.34
  -2   8   5   34.33    1.35
   2   8  -4   12.22    0.89
  -2  -8   4   11.87    0.97
  -2   8   4   11.90    0.71
   2  -8  -4   12.35    0.75
  -2   8   4   13.32    0.79
   2   8  -3   35.55    1.45
  -2  -8   3   36.33    1.53
   2  -8  -3   35.93    1.17
   2  -8  -3   36.74    1.45
  -2   8   3   37.21    1.27
   2   8  -3   34.64    1.44
   2  -8  -3   34.42    1.29
  -2  -8   2   30.13    1.23
   2  -8  -2   32.94    1.11
   2   8  -2   30.78    1.24
  -2  -8   2   31.95    1.34
   2   8  -2   31.34    1.31
   2  -8  -2   32.38    1.30
   2  -8  -2   33.17    1.10
   2  -8  -2   32.96    1.27
  -2   8   2   35.10    1.20
   2   8  -1  322.57    5.09
  -2  -8   1  319.57    5.12
  -2   8   1  323.02    5.12
   2  -8  -1  325.07    5.04
  -2  -8   1  325.98    5.21
   2  -8  -1  317.81    5.35
  -2   8   1  315.10    5.39
   2   8  -1  321.52    5.39
  -2  -8   1  321.49    5.43
   2  -8  -1  324.43    5.27
   2   8   0  771.63   10.25
  -2   8   0  768.13   10.57
  -2  -8   0  780.91   10.36
  -2   8   0  782.74   10.66
   2  -8   0  763.53   10.57
  -2  -8   0  767.02   10.29
  -2   8   0  774.27   10.88
   2  -8   0  776.11   10.81
   2   8   0  779.51   10.84
  -2  -8   0  774.43   10.89
   2  -8   0  764.84   10.71
   2  -8   1  281.07    4.88
   2  -8   1  281.74    4.83
   2   8   1  284.09    4.18
  -2   8  -1  277.30    4.77
  -2   8  -1  291.28    4.90
  -2  -8  -1  286.58    4.25
   2   8   1  281.19    4.88
  -2  -8  -1  277.77    4.68
  -2  -8  -1  278.29    4.93
  -2   8  -1  275.12    4.90
  -2  -8  -1  285.86    4.29
   2  -8   2  412.88    6.70
   2   8   2  426.06    5.69
   2  -8   2  403.33    6.67
  -2  -8  -2  426.88    5.64
  -2   8  -2  413.58    6.61
  -2  -8  -2  419.65    6.67
  -2  -8  -2  421.17    6.54
  -2  -8  -2  400.36    5.79
  -2   8  -2  407.40    6.65
  -2  -8  -3  101.77    1.68
   2  -8   3  104.27    2.74
   2  -8   3   98.37    2.68
  -2   8  -3  101.44    2.66
  -2  -8  -3   97.96    2.46
   2   8   3   98.44    2.44
  -2  -8  -3   99.74    2.58
   2   8   3   97.55    1.76
  -2  -8  -3   95.02    1.78
   2  -8   4    1.88    0.44
  -2   8  -4    2.60    0.48
   2   8   4    2.46    0.26
  -2  -8  -4    2.85    0.22
  -2  -8  -4    1.21    0.55
   2  -8   4    2.25    0.54
  -2  -8  -4    3.14    0.45
   2   8   4    2.20    0.41
   2  -8   5   49.71    2.02
  -2   8  -5   48.80    1.94
  -2  -8  -5   46.36    1.14
   2  -8   5   47.90    2.02
   2   8   5   43.16    1.72
   2   8   5   46.74    1.23
  -2   8  -6    8.86    0.90
   2  -8   6    9.09    0.92
   2  -8   6    7.98    0.90
  -2  -8  -6    8.21    0.50
   2   8   6    8.35    0.82
   2   8   6    9.15    0.57
  -2  -8  -7   10.43    0.63
   2  -8   7   10.79    1.11
   2   8   7   11.20    0.97
   2   8   7   10.30    0.67
   2  -8   8    0.88    0.59
  -2  -8  -8    0.80    0.26
   2   8   8    0.41    0.39
   2   8   8    0.90    0.32
   2  -8   9    0.60    0.57
   2   8   9    0.16    0.42
   2   8   9    0.11    0.29
   2  -8  10    7.14    1.18
   2   8  10    8.06    1.04
   2   8  10    7.57    0.76
   2  -8  11    8.32    1.32
   2   8  11    6.44    1.07
   2  -8  12    1.60    0.90
   2   8  12    0.32    0.54
  -2  10  13   -0.71    0.70
  -2  10  12    1.11    0.60
  -2 -10  11    2.10    0.79
  -2  10  11    1.52    0.61
  -2 -10  10   11.13    1.48
  -2  10  10   13.21    1.21
  -2  10  10   13.97    1.12
  -2 -10   9    6.21    1.07
  -2  10   9    7.33    0.86
  -2  10   9    6.87    0.78
  -2 -10   8    7.22    1.10
   2 -10  -8    6.03    0.72
  -2  10   8    4.38    0.69
  -2  10   8    6.47    0.75
  -2 -10   7   25.90    1.82
   2 -10  -7   25.14    1.30
  -2  10   7   25.53    1.36
  -2  10   7   27.09    1.34
   2 -10  -6   69.37    2.18
  -2 -10   6   73.74    2.90
  -2  10   6   81.06    2.33
  -2  10   6   80.70    2.29
  -2 -10   5    0.18    0.37
  -2 -10   5    0.31    0.42
   2  10  -5    0.12    0.35
   2 -10  -5    0.76    0.32
  -2  10   5    1.22    0.31
   2 -10  -5    1.57    0.43
  -2  10   5    0.63    0.29
   2  10  -4  123.03    3.26
  -2 -10   4  126.72    3.33
  -2 -10   4  121.81    3.39
   2 -10  -4  130.95    3.29
   2 -10  -4  124.87    2.73
   2  10  -4  116.84    3.18
   2 -10  -4  120.03    2.80
  -2  10   4  119.07    2.72
   2 -10  -3    5.21    0.48
  -2  10   3    4.12    0.48
   2  10  -3    4.62    0.57
  -2 -10   3    4.13    0.58
  -2 -10   3    3.64    0.58
   2 -10  -3    4.38    0.59
   2 -10  -3    5.22    0.51
   2 -10  -3    4.06    0.51
   2  10  -3    4.30    0.61
  -2  10   2   31.75    1.25
   2 -10  -2   32.22    1.21
  -2 -10   2   33.33    1.40
   2  10  -2   34.81    1.41
  -2 -10   2   31.82    1.43
   2  10  -2   33.33    1.49
   2 -10  -2   32.51    1.21
   2 -10  -2   33.12    1.46
   2 -10  -2   33.75    1.41
   2  10  -1   33.92    1.29
  -2  10   1   34.41    1.34
   2 -10  -1   33.93    1.29
  -2 -10   1   32.85    1.30
  -2 -10   1   33.76    1.38
   2  10  -1   32.54    1.45
   2 -10  -1   34.03    1.47
  -2  10   1   35.73    1.52
   2 -10  -1   34.53    1.40
  -2 -10   1   34.59    1.50
   2  10   0  175.24    3.27
  -2 -10   0  177.34    3.35
  -2 -10   0  174.33    3.37
   2 -10   0  171.85    3.52
  -2  10   0  173.23    3.56
  -2  10   0  173.58    3.50
  -2  10   0  169.88    3.77
   2 -10   0  174.27    3.75
   2  10   0  173.42    3.75
  -2 -10   0  183.19    3.87
   2 -10   0  171.55    3.63
   2 -10   1  104.01    2.70
  -2 -10  -1  106.05    2.27
  -2  10  -1  110.08    2.74
   2  10   1  105.74    2.22
  -2  10  -1  107.88    2.67
   2  10   1  103.28    2.74
  -2  10  -1  105.36    2.81
  -2 -10  -1  111.93    2.88
  -2 -10  -1  105.91    2.57
   2 -10   1  110.15    2.78
  -2 -10  -1  107.94    2.33
  -2 -10  -2   77.16    1.71
   2 -10   2   75.73    2.36
   2  10   2   77.02    1.73
   2 -10   2   75.73    2.33
  -2  10  -2   76.40    2.28
  -2 -10  -2   78.85    2.24
  -2  10  -2   76.33    2.36
  -2 -10  -2   78.10    2.38
  -2 -10  -2   72.39    1.82
   2  10   3    7.02    0.44
   2 -10   3    5.97    0.75
  -2 -10  -3    7.47    0.43
  -2  10  -3    5.72    0.64
   2 -10   3    6.23    0.72
  -2 -10  -3    7.67    0.71
  -2 -10  -3    7.96    0.77
  -2  10  -3    6.81    0.74
  -2 -10  -3    5.89    0.44
   2 -10   4   36.08    1.74
   2  10   4   36.32    1.02
   2 -10   4   35.62    1.76
  -2  10  -4   37.47    1.72
  -2 -10  -4   37.67    0.94
  -2 -10  -4   35.79    1.04
   2  10   4   34.71    1.50
  -2 -10  -4   36.85    1.69
  -2 -10  -4   35.86    1.55
  -2  10  -4   37.94    1.74
  -2 -10  -5    5.76    0.34
   2 -10   5    5.40    0.77
  -2 -10  -5    5.82    0.41
   2  10   5    4.75    0.63
   2  10   5    5.88    0.40
  -2 -10  -6   62.00    1.29
   2 -10   6   58.84    2.55
  -2 -10  -6   61.49    1.39
   2  10   6   62.26    2.26
   2  10   6   61.73    1.50
  -2 -10  -7    1.85    0.28
   2 -10   7    1.97    0.66
   2  10   7    2.35    0.55
   2  10   7    2.31    0.35
  -2 -10  -8   13.69    0.67
   2 -10   8   14.62    1.46
   2  10   8   15.02    1.25
   2  10   8   14.23    0.80
   2 -10   9    6.67    1.14
   2  10   9    5.43    0.83
   2  10   9    4.89    0.54
   2 -10  10    4.01    1.03
   2  10  10    3.43    0.80
   2 -10  11    0.16    0.67
   2  10  11    1.05    0.72
   2  10  12    3.80    0.91
  -2  12  12    0.14    0.53
  -2  12  11    0.02    0.48
  -2 -12  10    8.67    1.31
  -2  12  10    8.59    0.99
  -2 -12   9   -0.18    0.64
  -2  12   9    0.69    0.47
  -2  12   9    0.42    0.31
  -2 -12   8   10.66    1.34
  -2  12   8    7.58    0.86
  -2  12   8    9.72    0.85
   2 -12  -7   11.03    0.90
  -2 -12   7   12.13    1.34
  -2  12   7   10.68    0.90
  -2  12   7   10.57    0.84
  -2 -12   6   60.59    2.73
   2 -12  -6   60.23    2.05
  -2  12   6   61.92    2.07
  -2  12   6   65.64    2.03
   2  12  -6   59.66    2.52
  -2 -12   5    2.22    0.66
   2 -12  -5    2.11    0.37
  -2  12   5    2.31    0.40
   2 -12  -5    2.12    0.41
   2  12  -5    1.96    0.53
   2  12  -4  144.77    3.73
  -2 -12   4  145.24    3.80
   2 -12  -4  145.10    3.02
  -2 -12   4  139.83    3.90
   2 -12  -4  142.08    3.19
   2  12  -4  146.26    3.82
   2 -12  -4  136.40    3.26
  -2  12   4  141.64    3.14
   2  12  -3    3.56    0.56
   2 -12  -3    3.96    0.49
  -2  12   3    3.91    0.49
  -2 -12   3    3.91    0.62
  -2 -12   3    3.91    0.63
   2 -12  -3    3.87    0.60
   2 -12  -3    4.18    0.52
   2 -12  -3    3.45    0.53
   2  12  -3    4.42    0.68
  -2 -12   2   80.26    2.44
   2  12  -2   82.22    2.42
   2 -12  -2   83.40    2.23
  -2  12   2   83.05    2.29
  -2 -12   2   83.16    2.57
   2  12  -2   77.78    2.57
   2 -12  -2   86.96    2.68
   2 -12  -2   80.98    2.23
   2 -12  -2   79.72    2.47
   2 -12  -1   59.83    1.90
   2  12  -1   58.33    1.88
  -2  12   1   58.93    1.93
  -2 -12   1   58.58    1.95
  -2 -12   1   58.68    2.00
  -2  12   1   59.74    2.20
   2  12  -1   57.18    2.14
   2 -12  -1   58.87    2.14
   2 -12  -1   59.47    2.05
  -2 -12   1   62.01    2.23
   2 -12   0    8.95    0.76
  -2 -12   0    8.99    0.73
  -2  12   0    8.15    0.74
   2  12   0    7.29    0.62
  -2 -12   0    8.03    0.81
  -2  12   0    8.06    0.83
   2  12   0    8.52    0.83
  -2 -12   0    8.35    0.69
   2 -12   0    7.53    0.73
   2 -12   0    8.16    0.80
  -2 -12  -1   74.73    2.01
  -2  12  -1   73.68    2.39
  -2  12  -1   76.62    2.33
   2 -12   1   78.31    2.43
   2  12   1   74.12    2.44
  -2 -12  -1   75.54    2.26
  -2 -12  -1   79.76    2.58
  -2  12  -1   74.53    2.51
  -2 -12  -1   77.08    2.10
   2 -12   1   76.04    2.43
  -2  12  -2    5.89    0.67
  -2 -12  -2    5.13    0.49
   2 -12   2    5.30    0.67
   2 -12   2    5.30    0.68
  -2 -12  -2    4.98    0.67
  -2 -12  -2    6.13    0.67
  -2  12  -2    6.27    0.77
  -2 -12  -2    5.23    0.54
  -2 -12  -3   31.51    1.05
  -2  12  -3   31.07    1.57
   2 -12   3   31.31    1.62
   2  12   3   31.82    1.08
   2 -12   3   30.52    1.66
  -2 -12  -3   31.18    1.50
  -2  12  -3   29.56    1.59
  -2 -12  -3   30.92    1.60
  -2 -12  -3   30.18    1.13
   2  12   4   54.61    1.41
  -2 -12  -4   53.23    1.31
   2 -12   4   51.10    2.26
  -2 -12  -4   52.20    2.02
  -2  12  -4   51.00    2.20
  -2 -12  -4   54.19    1.43
  -2 -12  -5    0.84    0.20
   2  12   5    0.55    0.22
   2 -12   5    1.00    0.56
  -2 -12  -5    0.92    0.25
  -2 -12  -5    0.45    0.32
  -2  12  -5    0.41    0.40
  -2 -12  -6   65.03    1.32
   2 -12   6   70.66    2.94
  -2 -12  -6   65.65    1.43
   2  12   6   67.40    2.44
   2  12   6   66.96    1.56
   2  12   7    1.41    0.28
  -2 -12  -7    1.37    0.20
  -2 -12  -7    1.15    0.21
   2 -12   7    1.82    0.68
   2  12   7    1.13    0.45
   2 -12   8    7.70    1.12
   2  12   8    8.52    0.99
   2 -12   9    2.46    0.86
   2  12   9    2.90    0.69
   2 -12  10    4.21    1.05
   2  12  10    2.26    0.72
   2  12  11    0.69    0.52
  -2  14  11    2.83    0.77
  -2  14  10    9.33    1.04
  -2 -14   9   21.74    1.99
  -2  14   9   19.33    1.39
  -2 -14   8   22.76    1.96
  -2  14   8   26.45    1.52
   2  14  -8   24.22    1.84
  -2  14   8   20.26    1.19
  -2 -14   7   15.97    1.60
   2 -14  -7   14.35    0.88
  -2  14   7   13.10    0.93
   2  14  -7   15.49    1.43
  -2 -14   6    0.42    0.57
   2 -14  -6    3.40    0.60
   2 -14  -6    2.05    0.41
  -2  14   6    1.79    0.41
   2  14  -6    2.50    0.67
   2 -14  -5   11.65    0.80
  -2 -14   5   10.25    1.19
   2 -14  -5   11.23    0.89
  -2  14   5   10.14    0.79
   2 -14  -5    9.46    0.83
   2  14  -5   10.13    1.06
  -2  14   4    8.12    0.75
   2 -14  -4    8.92    0.74
  -2 -14   4    7.44    0.98
   2 -14  -4    7.87    0.78
   2  14  -4    7.55    0.93
   2 -14  -4    8.50    0.83
   2  14  -3   35.43    1.72
   2 -14  -3   35.70    1.46
  -2  14   3   35.87    1.51
  -2 -14   3   35.46    1.75
  -2 -14   3   33.64    1.80
   2  14  -3   34.78    1.83
   2 -14  -3   32.21    1.49
   2 -14  -3   32.95    1.62
   2  14  -2    1.14    0.39
   2 -14  -2    1.78    0.43
  -2  14   2    0.96    0.37
  -2 -14   2    1.26    0.40
  -2 -14   2    1.59    0.49
   2 -14  -2    1.44    0.41
   2  14  -2    1.30    0.47
   2 -14  -2    1.99    0.51
  -2 -14   1   49.99    1.95
   2  14  -1   51.24    1.89
  -2  14   1   50.89    1.92
   2 -14  -1   52.37    1.91
  -2 -14   1   48.29    1.94
  -2  14   1   49.69    2.17
   2 -14  -1   50.48    1.80
   2  14  -1   52.85    2.20
   2 -14  -1   50.77    2.06
  -2  14   0   79.16    2.53
   2 -14   0   79.32    2.52
  -2 -14   0   79.96    2.41
   2  14   0   78.95    2.28
   2  14   0   75.92    2.68
  -2  14   0   76.11    2.71
   2 -14   0   79.91    2.63
  -2 -14   0   76.79    2.37
   2 -14   1  122.71    3.40
  -2 -14  -1  128.28    3.00
  -2  14  -1  125.12    3.33
  -2 -14  -1  129.12    3.28
  -2  14  -1  119.98    3.54
   2  14   1  122.60    3.51
   2 -14   1  123.98    3.45
  -2 -14  -1  129.25    3.12
   2 -14   2   35.71    1.82
  -2 -14  -2   35.81    1.36
  -2 -14  -2   37.03    1.70
  -2  14  -2   35.31    1.85
  -2 -14  -2   35.20    1.48
   2 -14   3   25.85    1.63
  -2 -14  -3   25.24    1.05
  -2 -14  -3   26.18    1.47
  -2  14  -3   22.69    1.52
  -2 -14  -3   24.77    1.14
   2 -14   4    0.35    0.46
  -2 -14  -4    0.19    0.20
   2  14   4    0.12    0.21
  -2  14  -4    1.55    0.59
  -2 -14  -4    0.58    0.26
  -2 -14  -5   18.08    0.72
   2  14   5   18.84    0.82
  -2 -14  -5   19.49    0.83
   2 -14   5   19.78    1.58
  -2  14  -5   19.31    1.50
   2 -14   6   13.16    1.39
   2  14   6   11.45    0.60
  -2 -14  -6    9.84    0.46
  -2  14  -6   12.92    1.28
   2 -14   7    5.66    1.04
  -2  14  -7    6.16    1.03
   2 -14   8    0.99    0.63
   2  14   8    0.92    0.48
   2 -14   9    0.92    0.65
   2  14   9    2.28    0.70
   2  14  10    3.12    0.78
   2  14  11    3.69    0.86
  -2 -16   8    1.59    0.74
   2  16  -8    2.46    0.80
  -2 -16   7    4.43    0.96
  -2  16   7    3.44    0.54
   2  16  -7    3.11    0.83
  -2 -16   6    7.19    1.16
  -2  16   6    6.27    0.66
   2 -16  -6    6.58    0.65
   2  16  -6    5.33    0.94
   2 -16  -5  103.49    2.69
  -2  16   5  100.67    2.77
  -2 -16   5   99.17    3.73
   2  16  -5   97.07    3.57
   2 -16  -5  102.42    2.98
   2 -16  -5   94.32    2.83
  -2  16   4    1.34    0.40
   2 -16  -4    1.75    0.43
  -2 -16   4    1.28    0.60
   2 -16  -4    0.22    0.33
   2 -16  -4    1.04    0.42
   2  16  -4    0.96    0.49
   2 -16  -3   67.61    2.22
  -2  16   3   66.35    2.26
  -2 -16   3   67.97    2.75
   2  16  -3   67.09    2.76
   2 -16  -3   66.34    2.35
   2 -16  -3   62.59    2.44
   2 -16  -2   15.45    1.08
  -2  16   2   15.26    1.10
  -2 -16   2   14.89    1.22
   2  16  -2   13.46    1.22
   2 -16  -2   17.22    1.15
   2 -16  -2   13.90    1.17
   2  16  -1    1.39    0.39
  -2  16   1    1.49    0.43
  -2 -16   1    2.00    0.53
   2 -16  -1    2.08    0.51
  -2 -16   1    1.21    0.44
   2  16  -1    2.02    0.55
   2 -16  -1    1.39    0.41
  -2  16   1    1.29    0.50
   2 -16  -1    0.87    0.44
   2  16   0   31.45    1.51
   2 -16   0   33.14    1.70
  -2 -16   0   29.64    1.54
   2  16   0   31.93    1.84
  -2  16   0   33.48    1.91
  -2 -16   0   32.11    1.62
   2 -16   0   31.68    1.76
   2 -16   1   70.42    2.63
  -2 -16  -1   70.64    2.28
   2  16   1   69.73    2.73
  -2  16  -1   61.29    2.64
  -2 -16  -1   68.29    2.35
  -2 -16  -2    8.78    0.77
   2 -16   2   11.01    1.11
  -2  16  -2   10.77    1.12
  -2 -16  -2    9.97    0.89
  -2 -16  -3    0.34    0.27
   2 -16   3    0.35    0.52
  -2 -16  -3    0.46    0.29
  -2  16  -3    0.69    0.51
   2 -16   4    6.73    0.97
  -2 -16  -4    5.48    0.52
  -2 -16  -4    5.46    0.54
  -2  16  -4    4.37    0.84
  -2 -16  -5   40.37    1.24
   2 -16   5   40.49    2.37
  -2  16  -5   43.07    2.36
   2 -16   6    1.11    0.74
  -2  16  -6    2.09    0.76
   2 -16   7   29.67    2.23
  -2  16  -7   30.73    2.13
   2 -16   8    3.11    0.90
  -2  16  -8    2.75    0.79
  -2 -18   7    1.56    0.75
   2  18  -7    0.48    0.57
  -2 -18   6    2.55    0.83
   2  18  -6    3.34    0.80
   2 -18  -5   40.25    1.69
  -2  18   5   39.63    1.74
   2  18  -5   42.88    2.46
  -2 -18   5   43.68    2.57
  -2  18   4    0.42    0.30
   2 -18  -4    0.84    0.40
  -2 -18   4   -0.31    0.53
   2  18  -4   -0.44    0.49
  -2  18   3   34.75    1.70
   2 -18  -3   37.29    1.73
  -2 -18   3   32.94    2.04
   2  18  -3   35.42    2.15
   2 -18  -3   32.52    1.87
  -2  18   2    1.83    0.47
   2 -18  -2    1.36    0.46
  -2 -18   2    1.01    0.49
   2  18  -2    2.12    0.62
  -2 -18   1    0.38    0.43
   2 -18  -1    0.88    0.49
   2  18  -1    1.02    0.46
  -2  18   1    0.99    0.50
   2 -18   0   13.47    1.20
  -2 -18   0   14.97    1.16
  -2  18   0   15.11    1.39
   2  18   0   12.90    1.26
  -2 -18   0   15.11    1.20
   2 -18   1   17.53    1.40
  -2 -18  -1   15.89    1.14
  -2  18  -1   14.66    1.38
  -2 -18  -1   14.88    1.19
   2 -18   2   14.78    1.36
  -2 -18  -2   15.31    1.05
  -2  18  -2   16.82    1.50
  -2 -18  -2   13.69    1.10
  -2 -18  -3    0.57    0.32
   2 -18   3    1.07    0.62
  -2  18  -3    0.72    0.54
   2 -18   4   -0.59    0.69
  -2  18  -4    0.97    0.57
   2 -18   5   28.01    2.09
  -2  18  -5   29.27    2.08
   2 -18   6    0.59    0.71
  -2  18  -6    0.51    0.51
   2 -18   7   11.45    1.48
  -2  18  -7   12.97    1.50
  -2 -20   6    0.75    0.72
   2  20  -5    0.04    0.57
  -2 -20   5   -0.03    0.65
  -2  20   4   13.40    1.10
   2  20  -4   12.25    1.37
  -2 -20   4   11.33    1.42
   2  20  -3   -0.01    0.49
  -2 -20   3    0.40    0.65
   2 -20  -3    0.86    0.46
   2  20  -2    0.94    0.47
   2 -20  -2    1.27    0.50
  -2 -20   2    1.40    0.66
   2 -20  -1   14.22    1.27
   2  20  -1   13.70    1.41
  -2 -20   1   14.41    1.32
   2 -20   0   32.35    1.93
  -2  20   0   33.08    2.17
   2  20   0   30.08    2.04
  -2 -20   0   31.06    1.81
   2 -20   1   23.04    1.71
  -2 -20  -1   22.35    1.45
  -2  20  -1   22.42    1.79
  -2 -20  -2   22.83    1.39
   2 -20   2   23.38    1.82
  -2  20  -2   23.10    1.85
   2 -20   3    8.62    1.20
  -2  20  -3    8.20    1.18
   2 -20   4    2.66    0.85
  -2  20  -4    2.97    0.82
   2 -20   5    1.09    0.66
  -2  20  -5    0.76    0.70
  -2 -22   4   47.84    2.83
  -2 -22   3    0.42    0.71
  -2 -22   2   12.10    1.37
   2 -22  -2    9.78    1.10
   2 -22  -1    0.31    0.59
  -2 -22   1   -0.70    0.63
   2  22  -1   -0.18    0.58
   2 -22   0   11.18    1.25
  -2 -22   0   12.42    1.23
  -2  22   0   12.24    1.39
   2 -22   1    4.43    0.95
  -2  22  -1    4.19    0.93
   2 -22   2   10.31    1.36
   2 -22   3    0.50    0.83
  -2 -24   3   -0.42    0.77
  -2 -24   2    1.04    0.79
   2 -24   0    4.70    1.03
   2 -24   1    8.66    1.27
  -3  -1  14    1.48    0.91
  -3   1  14    0.99    0.95
  -3   1  13    0.27    0.70
  -3  -1  13    0.93    0.77
  -3   1  12   13.01    1.44
  -3  -1  12   10.45    1.39
  -3   1  11    0.97    0.63
  -3  -1  11    1.42    0.67
  -3  -1  10   18.81    1.56
  -3   1  10   17.88    1.52
  -3   1   9    0.33    0.45
   3  -1  -9    0.27    0.40
  -3  -1   9    0.48    0.48
  -3  -1   8   10.80    1.05
   3  -1  -8   13.77    1.08
   3   1  -8   12.23    1.05
  -3   1   8   11.01    1.07
  -3   1   7  103.18    3.01
  -3  -1   7   98.86    3.04
   3  -1  -7  105.69    2.95
   3   1  -7  109.74    3.06
   3  -1  -6   45.42    1.73
  -3   1   6   43.73    1.77
   3   1  -6   42.56    1.72
  -3  -1   6   42.78    1.82
  -3   1   5   72.47    2.15
   3  -1  -5   67.53    2.03
   3   1  -5   69.98    2.11
  -3  -1   5   71.64    2.17
  -3  -1   4   32.30    1.29
  -3   1   4   32.77    1.27
   3  -1  -4   32.02    1.25
   3   1  -4   31.53    1.27
   3   1  -3    3.15    0.43
  -3  -1   3    3.83    0.50
   3  -1  -3    3.35    0.43
  -3   1   3    2.60    0.43
   3   1  -2  590.23    8.04
  -3  -1   2  591.83    8.08
   3  -1  -2  583.72    8.08
  -3   1   2  607.29    7.89
   3   1  -1   32.18    0.91
  -3  -1   1   34.35    0.93
  -3   1   1   35.21    0.90
   3  -1  -1   33.57    0.89
   3  -1   0 1134.55   13.66
   3   1   0 1151.11   13.92
  -3  -1   0 1143.16   13.91
   3  -1   0 1131.90   14.06
   3   1   0 1125.69   13.79
  -3   1   0 1126.80   14.05
  -3  -1   0 1140.22   13.79
  -3  -1  -1   48.17    0.87
  -3   1  -1   51.93    1.11
  -3   1  -1   49.35    1.06
   3   1   1   50.19    0.86
   3  -1   1   50.00    1.08
  -3  -1  -1   49.00    1.10
   3   1   1   48.29    1.11
   3   1   1   46.23    0.86
   3  -1   1   49.75    1.09
  -3   1  -2    7.35    0.45
   3  -1   2    7.37    0.46
   3   1   2    5.83    0.32
   3  -1   2    7.66    0.46
   3   1   2    5.91    0.33
  -3  -1  -2    5.99    0.31
   3   1   2    6.36    0.47
   3  -1   3    2.80    0.39
   3   1   3    3.98    0.34
   3  -1   3    2.39    0.32
  -3  -1  -3    3.68    0.31
  -3   1  -3    3.30    0.36
   3   1   4  208.96    3.52
   3  -1   4  216.18    3.75
   3  -1   4  211.91    3.71
  -3  -1  -4  206.92    3.40
  -3   1  -4  207.43    3.63
   3   1   5   19.19    0.93
   3  -1   5   18.40    0.98
  -3  -1  -5   18.52    0.84
  -3   1  -5   19.04    0.95
  -3   1  -6    2.28    0.46
   3  -1   6    2.73    0.52
  -3  -1  -6    2.19    0.39
   3   1   6    2.28    0.46
   3   1   7    1.46    0.39
   3  -1   7    2.13    0.51
  -3   1  -7    1.94    0.45
  -3  -1  -7    2.30    0.42
   3  -1   8   39.13    1.86
   3   1   8   36.39    1.73
  -3   1  -8   37.61    1.68
  -3  -1  -8   36.31    1.55
   3  -1   9    2.53    0.61
  -3   1  -9    2.47    0.56
  -3  -1  -9    2.23    0.50
   3   1   9    2.50    0.63
   3   1  10   20.89    1.50
   3  -1  10   20.58    1.58
  -3  -1 -10   20.97    1.37
   3   1  11    1.12    0.59
   3  -1  11    1.65    0.62
   3  -1  12    0.28    0.70
   3   1  12   -0.88    0.60
  -3  -3  13   -0.19    0.73
  -3   3  13    0.19    0.58
  -3  -3  12    0.46    0.67
  -3   3  12   -0.71    0.64
  -3  -3  11    9.97    1.32
  -3   3  11   10.75    1.21
  -3  -3  10    5.11    0.93
  -3   3  10    4.30    0.78
   3  -3  -9    4.00    0.65
  -3   3   9    2.91    0.65
  -3  -3   9    3.06    0.74
  -3   3   8   59.44    2.34
   3  -3  -8   59.93    2.23
  -3  -3   8   56.30    2.44
   3   3  -8   61.36    2.41
   3   3  -7  150.38    3.76
   3  -3  -7  147.30    3.55
  -3   3   7  149.47    3.69
  -3  -3   7  137.09    3.84
   3   3  -6  356.59    6.34
   3  -3  -6  342.86    6.06
  -3   3   6  355.76    6.23
  -3  -3   6  353.36    6.52
  -3   3   5  397.04    6.42
   3  -3  -5  386.65    6.32
  -3  -3   5  389.09    6.63
   3   3  -5  382.21    6.51
   3  -3  -4   44.16    1.51
  -3  -3   4   48.95    1.67
   3   3  -4   43.93    1.58
  -3   3   4   46.10    1.43
   3   3  -3    5.01    0.51
   3  -3  -3    5.51    0.53
  -3  -3   3    5.46    0.56
  -3   3   3    5.30    0.48
  -3  -3   2  105.55    2.22
   3   3  -2  107.20    2.21
  -3   3   2  107.73    1.62
  -3   3   2  109.82    2.17
   3  -3  -2  105.81    2.11
   3   3  -1   54.42    1.27
  -3  -3   1   55.35    1.30
   3  -3  -1   55.18    1.16
   3  -3  -1   55.73    1.36
  -3   3   1   55.55    1.36
   3   3  -1   55.78    1.20
   3  -3   0   10.76    0.53
   3   3   0   11.66    0.43
  -3  -3   0   11.83    0.44
   3   3   0   12.13    0.50
  -3  -3   0   11.28    0.50
  -3   3   0    9.70    0.45
   3  -3   0   10.00    0.44
   3  -3   0    9.62    0.52
  -3   3   0    9.87    0.53
   3  -3   1    1.37    0.28
  -3   3  -1    1.68    0.32
   3  -3   1    1.65    0.29
  -3   3  -1    1.77    0.28
  -3  -3  -1    2.24    0.29
   3   3   1    1.92    0.30
  -3   3  -2   17.44    0.77
   3  -3   2   16.07    0.76
   3  -3   2   16.27    0.75
  -3   3  -2   17.11    0.80
  -3  -3  -2   16.08    0.73
   3   3   2   16.50    0.76
   3  -3   3  185.96    3.40
  -3  -3  -3  185.51    2.59
   3  -3   3  181.06    3.40
  -3   3  -3  183.22    3.33
   3   3   3  181.21    3.31
   3   3   3  182.66    2.67
  -3   3  -4  372.60    5.81
   3  -3   4  367.91    5.90
  -3  -3  -4  360.97    5.02
   3   3   4  362.38    5.77
   3  -3   4  369.22    5.95
   3   3   4  359.03    5.15
  -3   3  -5  136.59    3.05
   3  -3   5  134.43    3.12
  -3  -3  -5  134.22    2.48
   3   3   5  138.09    3.05
   3   3   5  131.70    2.62
   3  -3   5  133.60    3.13
   3  -3   6   24.14    1.26
  -3   3  -6   21.11    1.16
  -3  -3  -6   21.56    0.92
   3   3   6   20.72    1.16
   3   3   6   20.58    1.00
   3  -3   6   22.48    1.27
   3  -3   7    0.51    0.35
   3   3   7    0.29    0.33
  -3   3  -7    0.44    0.38
   3   3   7    0.52    0.29
   3  -3   7    0.63    0.42
  -3  -3  -7    0.64    0.28
   3  -3   8    0.31    0.33
   3   3   8    0.80    0.45
  -3  -3  -8    0.87    0.34
   3   3   8    0.65    0.38
   3  -3   8    0.27    0.47
  -3   3  -8    1.54    0.47
  -3  -3  -9   22.41    1.23
   3   3   9   23.26    1.40
   3  -3   9   22.24    1.58
   3   3   9   23.78    1.50
  -3  -3 -10    2.48    0.57
   3   3  10    3.21    0.63
   3  -3  10    2.54    0.70
   3   3  10    3.68    0.76
   3   3  11    3.16    0.71
   3  -3  11    1.62    0.72
   3   3  11    2.33    0.71
   3  -3  12   -0.81    0.67
   3   3  12    0.73    1.05
   3  -3  13    0.16    0.88
  -3  -5  13    5.26    1.20
  -3   5  13    7.97    1.11
  -3   5  13    6.39    1.05
  -3  -5  12    3.32    1.00
  -3   5  12    3.18    0.75
  -3   5  12    3.02    0.73
  -3  -5  11   30.21    2.20
  -3   5  11   26.96    1.70
  -3   5  11   30.25    1.80
  -3  -5  10    1.34    0.66
   3  -5 -10    2.66    0.58
  -3   5  10    2.36    0.58
  -3   5  10    1.77    0.54
  -3  -5   9    2.88    0.79
   3  -5  -9    4.15    0.72
  -3   5   9    3.45    0.64
  -3   5   9    2.64    0.55
   3  -5  -8    5.63    0.70
  -3  -5   8    5.58    0.89
  -3   5   8    4.78    0.62
  -3   5   8    5.49    0.68
   3   5  -7   33.40    1.71
  -3  -5   7   30.11    1.73
   3  -5  -7   29.77    1.46
  -3   5   7   30.57    1.33
  -3   5   7   31.17    1.45
  -3  -5   6   10.78    1.00
   3   5  -6   10.42    0.93
   3  -5  -6   10.39    0.82
  -3   5   6   10.81    0.73
  -3   5   6    9.43    0.75
   3   5  -5   28.12    1.38
   3  -5  -5   28.58    1.29
  -3  -5   5   27.25    1.44
  -3   5   5   27.31    1.05
  -3   5   5   29.17    1.23
   3   5  -4    3.62    0.52
   3  -5  -4    3.51    0.47
  -3  -5   4    3.35    0.55
  -3   5   4    3.76    0.38
  -3   5   4    3.96    0.48
  -3  -5   3  126.94    2.86
   3   5  -3  128.10    2.80
  -3   5   3  127.27    2.21
   3  -5  -3  124.37    2.58
  -3   5   3  128.15    2.63
   3   5  -2    1.29    0.30
  -3  -5   2    1.20    0.32
   3  -5  -2    1.21    0.17
   3  -5  -2    1.41    0.27
   3  -5  -2    2.56    0.36
  -3   5   2    1.63    0.35
   3   5  -1 1222.45   15.44
  -3  -5   1 1219.52   15.50
  -3   5   1 1202.19   15.51
   3  -5  -1 1226.38   15.48
   3   5  -1 1242.55   15.54
  -3   5   1 1217.80   15.61
   3  -5  -1 1215.14   15.74
  -3  -5   1 1224.81   15.58
   3   5   0    9.64    0.45
   3  -5   0    8.76    0.57
  -3  -5   0    9.66    0.48
  -3   5   0    8.34    0.56
  -3  -5   0    9.30    0.57
   3   5   0   10.12    0.58
   3  -5   0    8.49    0.52
  -3   5   0    9.12    0.60
   3  -5   0    8.35    0.58
  -3   5  -1   79.91    1.86
   3  -5   1   78.15    1.89
   3   5   1   81.28    1.27
  -3   5  -1   78.33    1.94
  -3  -5  -1   79.56    1.31
  -3  -5  -1   83.17    1.87
  -3  -5  -1   79.67    1.83
   3  -5   1   77.46    1.89
  -3  -5  -1   81.25    1.28
  -3   5  -1   78.03    1.82
   3  -5   2   15.68    0.85
   3  -5   2   16.10    0.85
  -3   5  -2   15.38    0.85
  -3   5  -2   16.00    0.82
  -3  -5  -2   15.95    0.80
   3   5   2   15.31    0.80
   3  -5   3   14.60    0.88
  -3   5  -3   14.26    0.83
   3  -5   3   15.40    0.89
  -3  -5  -3   12.51    0.76
   3   5   3   11.56    0.76
   3   5   3   11.99    0.37
  -3   5  -4   35.59    1.42
  -3  -5  -4   32.45    0.75
   3  -5   4   36.54    1.48
   3  -5   4   35.60    1.49
   3   5   4   33.85    1.36
   3   5   4   33.81    0.86
   3  -5   5   20.88    1.21
  -3  -5  -5   20.44    0.71
  -3   5  -5   22.42    1.21
   3   5   5   23.85    1.19
   3   5   5   22.33    0.81
   3  -5   5   23.56    1.29
  -3  -5  -6    6.02    0.45
   3  -5   6    6.13    0.73
  -3   5  -6    7.45    0.77
   3   5   6    7.16    0.73
   3  -5   6    6.42    0.75
   3   5   6    6.54    0.52
   3  -5   7   28.98    1.57
  -3  -5  -7   27.35    1.06
  -3   5  -7   28.25    1.51
   3   5   7   26.41    1.44
   3  -5   7   27.42    1.61
   3   5   7   31.37    1.27
   3   5   8    3.18    0.63
  -3  -5  -8    1.91    0.52
   3  -5   8    2.11    0.62
   3   5   8    2.47    0.45
  -3  -5  -9   24.56    1.19
   3  -5   9   23.88    1.72
   3   5   9   24.61    1.36
   3   5   9   25.57    1.59
   3  -5  10    0.80    0.62
   3   5  10    1.40    0.49
   3   5  10    0.52    0.51
   3  -5  11    0.80    0.70
   3   5  11    0.99    0.59
   3  -5  12    0.46    0.75
   3   5  12    1.68    0.69
   3  -5  13   -0.41    0.77
  -3   7  13    1.78    0.68
  -3  -7  12    1.25    0.77
  -3   7  12    1.80    0.64
  -3   7  12    1.95    0.59
  -3  -7  11   12.36    1.52
  -3   7  11   11.55    1.13
  -3   7  11   12.58    1.17
  -3  -7  10    0.46    0.60
   3  -7 -10    0.10    0.47
  -3   7  10    0.98    0.41
  -3   7  10    1.15    0.46
   3  -7  -9    5.75    0.78
  -3  -7   9    6.53    1.06
  -3   7   9    5.21    0.71
  -3   7   9    7.49    0.86
  -3  -7   8   30.12    1.93
   3  -7  -8   33.00    1.61
  -3   7   8   32.05    1.51
  -3   7   8   34.05    1.62
   3  -7  -7   38.60    1.66
  -3  -7   7   38.27    2.02
  -3   7   7   40.17    1.57
  -3   7   7   40.03    1.65
   3   7  -6  142.63    3.69
   3  -7  -6  143.21    3.33
  -3  -7   6  141.89    3.89
  -3   7   6  138.17    3.03
  -3   7   6  142.45    3.26
   3   7  -5   22.48    1.28
   3  -7  -5   20.40    1.10
  -3  -7   5   21.52    1.34
  -3   7   5   20.00    0.94
  -3   7   5   20.83    1.08
   3   7  -4   48.29    1.78
  -3  -7   4   51.15    1.91
  -3   7   4   44.52    1.32
  -3   7   4   46.59    1.57
   3  -7  -4   45.92    1.52
   3   7  -3  177.40    3.62
  -3  -7   3  172.48    3.70
   3  -7  -3  176.87    3.48
  -3   7   3  176.96    2.96
   3  -7  -3  179.65    2.96
   3  -7  -3  171.23    3.43
  -3   7   3  185.52    3.46
   3   7  -2   23.34    1.04
  -3  -7   2   25.98    1.15
   3   7  -2   24.21    1.08
   3  -7  -2   25.76    0.84
   3  -7  -2   26.63    1.09
   3  -7  -2   25.53    1.11
  -3   7   2   27.58    1.09
   3   7  -1  902.28   11.99
   3  -7  -1  912.74   12.05
  -3  -7   1  904.99   12.10
   3   7  -1  927.18   12.30
   3  -7  -1  914.47   12.24
  -3   7   1  905.51   12.26
  -3   7   1  904.54   12.18
  -3  -7   1  913.82   12.34
   3  -7  -1  910.41   12.34
  -3   7   0   46.15    1.49
   3  -7   0   47.13    1.45
  -3  -7   0   48.64    1.23
   3   7   0   49.44    1.24
  -3  -7   0   48.75    1.29
   3   7   0   49.86    1.53
   3  -7   0   47.59    1.47
  -3  -7   0   47.85    1.52
  -3   7   0   46.42    1.51
   3  -7   0   49.66    1.54
   3  -7   1   31.39    1.23
   3   7   1   33.31    0.84
  -3   7  -1   31.64    1.26
  -3   7  -1   31.58    1.22
  -3  -7  -1   32.02    0.87
  -3   7  -1   29.69    1.20
  -3  -7  -1   31.83    1.18
  -3  -7  -1   31.74    1.23
  -3  -7  -1   32.13    0.86
   3  -7   1   30.82    1.25
   3  -7   2   95.98    2.47
  -3   7  -2   94.89    2.38
   3  -7   2   97.11    2.43
  -3  -7  -2   97.28    1.53
  -3   7  -2   98.06    2.46
  -3  -7  -2   93.17    2.34
   3   7   2   94.60    2.29
  -3  -7  -2   96.68    2.35
  -3   7  -2   95.54    2.36
  -3  -7  -2   93.35    1.59
  -3   7  -3   23.15    1.16
   3   7   3   19.70    0.50
   3  -7   3   22.61    1.21
   3  -7   3   22.99    1.20
   3   7   3   21.29    1.07
  -3  -7  -3   18.70    0.99
  -3   7  -4  187.27    4.02
   3  -7   4  184.62    4.11
   3  -7   4  184.93    4.09
   3   7   4  192.44    3.93
  -3  -7  -4  196.79    3.90
   3   7   4  193.49    2.76
  -3   7  -5  162.86    3.75
   3  -7   5  167.47    3.89
  -3  -7  -5  149.94    2.31
   3  -7   5  159.15    3.89
   3   7   5  158.82    3.59
   3   7   5  154.73    2.56
   3  -7   6   21.49    1.38
  -3  -7  -6   19.86    0.69
  -3   7  -6   20.75    1.30
   3  -7   6   18.94    1.32
   3   7   6   20.63    1.25
   3   7   6   20.06    0.80
  -3  -7  -7    5.88    0.46
   3  -7   7    6.74    0.91
   3   7   7    7.05    0.82
   3   7   7    7.33    0.57
  -3  -7  -8    0.93    0.27
   3  -7   8    1.82    0.57
   3   7   8    1.18    0.49
   3   7   8    1.35    0.31
  -3  -7  -9   20.06    0.98
   3  -7   9   21.79    1.74
   3   7   9   18.78    1.44
   3   7   9   20.47    1.11
   3  -7  10    0.25    0.63
   3   7  10    1.01    0.57
   3   7  10    0.32    0.33
   3  -7  11    1.56    0.79
   3   7  11    2.67    0.79
   3  -7  12    0.43    0.65
   3   7  12    0.55    0.67
  -3   9  13    0.32    0.54
  -3  -9  12    1.04    0.79
  -3   9  12    3.35    0.72
  -3  -9  11   -1.30    0.74
  -3   9  11    0.37    0.82
  -3   9  11    0.52    0.38
  -3  -9  10    0.89    0.72
  -3   9  10    0.38    0.44
  -3   9  10    1.63    0.55
   3  -9  -9    7.08    0.85
  -3  -9   9    9.68    1.29
  -3   9   9    9.38    0.92
  -3   9   9    7.62    0.82
  -3  -9   8   23.01    1.77
   3  -9  -8   20.68    1.30
  -3   9   8   23.65    1.34
  -3   9   8   22.31    1.32
   3  -9  -7   93.34    2.73
  -3  -9   7   93.91    3.39
  -3   9   7   94.03    2.61
  -3   9   7   94.62    2.72
   3  -9  -6   89.76    2.59
  -3  -9   6   87.36    3.10
  -3   9   6   90.17    2.40
  -3   9   6   93.77    2.58
   3   9  -5   68.48    2.40
  -3  -9   5   70.73    2.58
   3  -9  -5   61.62    2.08
  -3   9   5   64.16    1.84
  -3   9   5   66.99    2.07
  -3  -9   4    1.92    0.53
   3   9  -4    1.72    0.44
  -3   9   4    1.81    0.31
   3  -9  -4    1.25    0.39
   3  -9  -4    1.24    0.37
  -3   9   4    1.69    0.38
  -3   9   3    3.32    0.46
   3   9  -3    4.11    0.53
  -3  -9   3    2.69    0.52
   3  -9  -3    3.35    0.51
   3  -9  -3    2.98    0.36
   3   9  -3    3.88    0.54
   3  -9  -3    3.81    0.52
  -3  -9   2  206.80    3.97
   3   9  -2  205.97    3.96
   3  -9  -2  209.31    3.75
  -3  -9   2  200.15    4.06
   3  -9  -2  203.59    3.52
   3   9  -2  205.75    4.09
   3  -9  -2  210.48    4.10
   3  -9  -2  207.33    4.10
  -3   9   2  209.34    3.87
   3   9  -1   17.85    0.89
  -3  -9   1   18.47    0.90
  -3   9   1   18.57    0.97
   3  -9  -1   19.04    0.95
  -3  -9   1   16.98    0.92
  -3   9   1   20.81    1.10
   3  -9  -1   20.64    1.07
   3   9  -1   18.49    1.03
   3  -9  -1   18.22    1.01
  -3  -9   1   19.14    1.06
  -3   9   0   15.68    0.92
   3  -9   0   14.64    0.87
   3   9   0   16.16    0.76
  -3  -9   0   14.51    0.74
  -3  -9   0   16.16    0.80
  -3  -9   0   14.58    0.93
   3   9   0   14.77    0.92
  -3   9   0   15.29    0.94
   3  -9   0   15.73    0.94
   3  -9   0   16.44    0.94
   3   9   1   16.14    0.67
  -3   9  -1   16.84    0.95
   3  -9   1   16.54    0.97
  -3   9  -1   15.05    0.94
  -3  -9  -1   14.85    0.68
  -3  -9  -1   14.81    0.87
   3   9   1   14.96    0.93
  -3   9  -1   15.75    0.98
  -3  -9  -1   14.71    0.94
  -3  -9  -1   15.81    0.70
   3  -9   1   16.43    1.00
  -3  -9  -2  106.58    1.92
   3  -9   2  102.80    2.74
  -3   9  -2  104.56    2.77
  -3   9  -2  107.13    2.73
   3  -9   2  105.47    2.81
  -3  -9  -2  107.14    2.75
  -3  -9  -2  106.55    2.67
  -3   9  -2  102.95    2.73
  -3  -9  -2  104.87    2.02
  -3  -9  -3  312.18    4.16
   3  -9   3  316.95    5.84
   3   9   3  304.96    4.24
  -3   9  -3  323.25    5.74
   3  -9   3  300.70    5.75
  -3  -9  -3  310.09    5.53
  -3  -9  -3  316.17    5.68
   3   9   3  311.58    5.44
  -3  -9  -3  300.48    4.27
  -3   9  -3  315.16    5.68
   3  -9   4  155.43    3.85
   3   9   4  157.65    2.33
  -3   9  -4  162.89    3.78
  -3  -9  -4  149.21    2.11
   3  -9   4  159.53    3.86
  -3  -9  -4  167.62    3.74
  -3  -9  -4  164.39    3.59
   3   9   4  162.04    3.57
   3  -9   5  109.08    3.18
  -3   9  -5  110.88    3.11
   3  -9   5  108.71    3.21
   3   9   5  104.27    2.83
   3   9   5  101.38    1.69
  -3  -9  -6    8.98    0.37
   3  -9   6   10.43    1.09
   3   9   6   11.03    0.97
   3   9   6   11.21    0.54
  -3  -9  -7    0.55    0.18
   3  -9   7    0.34    0.55
   3   9   7    0.69    0.41
   3   9   7    0.95    0.23
  -3  -9  -8    6.18    0.41
   3  -9   8    6.62    1.01
   3   9   8    6.37    0.85
   3   9   8    6.70    0.54
   3  -9   9    2.66    0.78
   3   9   9    4.66    0.82
   3   9   9    3.85    0.47
   3  -9  10    2.49    0.91
   3   9  10    2.82    0.72
   3  -9  11    1.14    0.81
   3   9  11    0.74    0.62
  -3  11  12    7.10    1.07
  -3 -11  11    1.33    0.73
  -3  11  11    1.15    0.54
  -3 -11  10   28.47    2.27
  -3  11  10   26.72    1.65
  -3  11  10   29.50    1.67
  -3 -11   9    0.70    0.61
  -3  11   9    0.78    0.40
  -3  11   9    0.96    0.45
  -3 -11   8    4.57    0.96
   3 -11  -8    4.78    0.70
  -3  11   8    5.45    0.71
  -3  11   8    5.42    0.71
  -3 -11   7   12.63    1.33
   3 -11  -7   10.65    0.91
  -3  11   7   10.11    0.86
  -3  11   7   10.19    0.88
  -3 -11   6   79.10    3.08
   3 -11  -6   77.93    2.48
  -3  11   6   81.76    2.30
  -3  11   6   81.32    2.41
  -3 -11   5    0.65    0.48
   3  11  -5    1.40    0.42
   3 -11  -5    1.72    0.39
  -3  11   5    1.29    0.34
  -3 -11   4    6.21    0.76
   3 -11  -4    6.33    0.57
  -3 -11   4    5.75    0.76
   3  11  -4    6.41    0.73
   3 -11  -4    7.32    0.77
   3 -11  -4    8.23    0.63
   3 -11  -4    7.32    0.71
   3  11  -4    6.26    0.74
  -3  11   4    6.17    0.62
  -3 -11   3   17.96    1.14
   3  11  -3   16.38    1.09
   3 -11  -3   18.42    0.96
  -3 -11   3   15.98    1.15
   3 -11  -3   17.46    1.13
   3  11  -3   18.81    1.20
   3 -11  -3   16.71    0.90
  -3  11   3   17.79    1.01
   3 -11  -3   16.61    1.06
  -3 -11   2  322.75    5.65
   3  11  -2  322.26    5.62
   3 -11  -2  318.26    5.38
  -3  11   2  318.26    5.51
  -3 -11   2  314.37    5.78
   3  11  -2  314.37    5.87
   3 -11  -2  323.25    5.89
   3 -11  -2  311.39    5.18
   3 -11  -2  322.25    5.85
  -3  11   1    0.75    0.35
  -3 -11   1    0.66    0.30
   3 -11  -1    0.76    0.30
   3  11  -1    0.75    0.30
  -3 -11   1    1.28    0.37
  -3  11   1    1.20    0.40
   3  11  -1    1.46    0.40
   3 -11  -1    1.31    0.36
  -3 -11   1    1.21    0.40
   3 -11  -1    1.10    0.37
  -3 -11   0  366.12    5.80
   3 -11   0  353.18    6.12
   3  11   0  361.45    5.69
  -3  11   0  354.30    6.18
  -3 -11   0  364.09    5.85
  -3 -11   0  379.72    6.57
  -3  11   0  352.08    6.41
   3  11   0  352.05    6.33
   3 -11   0  369.49    6.38
   3 -11   0  371.33    6.41
   3 -11   1    1.79    0.45
   3 -11   1    2.22    0.48
  -3  11  -1    1.88    0.45
   3  11   1    2.01    0.31
  -3 -11  -1    1.93    0.33
  -3  11  -1    2.30    0.44
  -3 -11  -1    1.69    0.34
  -3 -11  -1    2.29    0.43
   3  11   1    2.48    0.49
  -3  11  -1    1.67    0.43
  -3 -11  -1    2.02    0.47
   3 -11   2    0.49    0.34
  -3  11  -2    0.69    0.35
  -3 -11  -2    0.47    0.21
   3 -11   2    0.79    0.40
  -3 -11  -2    0.23    0.28
  -3 -11  -2    1.10    0.33
  -3 -11  -2    0.76    0.26
  -3  11  -2    0.68    0.37
   3 -11   3    2.12    0.47
  -3  11  -3    1.13    0.42
  -3 -11  -3    1.01    0.20
   3 -11   3    0.61    0.38
  -3 -11  -3    0.75    0.36
  -3 -11  -3    1.67    0.44
  -3 -11  -3    1.79    0.26
  -3  11  -3    1.45    0.42
  -3 -11  -4   47.04    0.99
   3  11   4   44.40    1.08
   3 -11   4   48.95    2.14
  -3 -11  -4   43.71    1.04
  -3 -11  -4   47.46    1.90
  -3 -11  -4   46.53    1.98
  -3  11  -4   47.75    2.04
   3  11   5    0.70    0.16
  -3 -11  -5    0.59    0.30
   3  11   5    0.57    0.35
   3 -11   5    1.06    0.51
   3  11   6    0.64    0.16
   3  11   6    1.34    0.47
   3 -11   6    0.75    0.50
   3  11   7    2.17    0.26
   3 -11   7    2.46    0.67
   3  11   7    2.67    0.57
   3 -11   8   22.87    1.83
   3  11   8   20.28    1.49
   3 -11   9    1.58    0.75
   3  11   9    3.67    0.79
   3 -11  10   26.55    2.19
   3  11  10   26.18    1.87
   3  11  11    0.91    0.82
  -3  13  11   -0.07    0.46
  -3 -13  10    2.82    0.90
  -3  13  10    3.11    0.63
  -3 -13   9    7.31    1.26
  -3  13   9    5.19    0.73
  -3  13   9    7.03    0.77
  -3 -13   8   16.27    1.66
  -3  13   8   15.07    1.10
  -3  13   8   15.43    1.10
   3 -13  -7   47.26    1.95
  -3 -13   7   49.83    2.70
  -3  13   7   55.74    2.01
   3  13  -7   50.77    2.49
   3 -13  -6   21.11    1.30
  -3 -13   6   21.22    1.65
   3 -13  -6   20.66    1.09
   3  13  -6   21.59    1.55
  -3  13   6   20.01    1.16
  -3 -13   5   74.38    2.94
   3 -13  -5   75.93    2.16
   3 -13  -5   70.90    2.32
   3  13  -5   73.47    2.78
  -3  13   5   74.33    2.28
   3 -13  -4    0.14    0.29
  -3  13   4    0.30    0.32
  -3 -13   4    0.16    0.44
   3 -13  -4    0.37    0.29
   3  13  -4    0.02    0.37
   3 -13  -4    0.33    0.34
  -3  13   3   22.67    1.21
  -3 -13   3   22.66    1.35
   3  13  -3   23.52    1.36
   3 -13  -3   22.96    1.16
  -3 -13   3   23.09    1.45
   3 -13  -3   23.11    1.15
   3  13  -3   23.42    1.44
   3 -13  -3   20.78    1.30
   3  13  -2   37.66    1.63
  -3  13   2   39.20    1.63
   3 -13  -2   38.91    1.57
  -3 -13   2   40.57    1.73
  -3 -13   2   40.13    1.79
   3  13  -2   39.29    1.84
   3 -13  -2   38.58    1.50
   3 -13  -2   40.12    1.84
   3 -13  -2   39.86    1.94
  -3 -13   1   20.48    1.15
  -3  13   1   19.61    1.16
   3 -13  -1   20.89    1.18
   3  13  -1   19.73    1.09
  -3 -13   1   19.84    1.17
   3  13  -1   18.72    1.25
  -3  13   1   18.43    1.27
   3 -13  -1   20.81    1.30
   3 -13  -1   20.99    1.29
  -3 -13   1   19.98    1.31
   3 -13   0   98.83    2.81
  -3  13   0   99.17    2.86
   3  13   0  100.61    2.51
  -3 -13   0   97.36    2.59
  -3  13   0   97.93    3.03
  -3 -13   0  105.44    3.13
   3  13   0   99.50    2.98
   3 -13   0  101.32    2.99
   3 -13   0  104.92    3.04
  -3 -13   0  101.04    2.60
   3 -13   1   17.58    1.18
  -3  13  -1   16.69    1.15
  -3  13  -1   16.81    1.12
  -3 -13  -1   16.30    0.91
  -3 -13  -1   17.24    1.22
   3  13   1   16.96    1.17
  -3 -13  -1   17.03    1.09
  -3  13  -1   16.52    1.20
  -3 -13  -1   16.68    0.94
   3 -13   1   18.08    1.19
  -3 -13  -2    6.79    0.55
  -3  13  -2    7.57    0.81
   3 -13   2    7.35    0.84
  -3 -13  -2    6.76    0.74
  -3 -13  -2    6.46    0.59
   3 -13   2    7.90    0.87
  -3  13  -2    7.07    0.82
  -3 -13  -3  110.94    2.22
   3 -13   3  103.37    3.27
  -3 -13  -3  109.95    3.14
  -3  13  -3  101.94    3.22
  -3 -13  -3  105.84    2.31
  -3 -13  -4   46.04    1.14
   3 -13   4   48.40    2.27
  -3  13  -4   47.81    2.18
  -3 -13  -4   43.91    1.20
   3 -13   5   41.41    2.22
  -3  13  -5   44.77    2.17
   3  13   6    1.67    0.22
   3 -13   6    1.68    0.69
   3  13   6    2.31    0.62
  -3  13  -6    1.70    0.58
   3 -13   7    0.24    0.57
   3  13   7    1.26    0.57
   3 -13   8    5.34    1.07
   3  13   8    4.54    0.81
   3 -13   9    1.85    0.88
   3  13   9    2.00    0.65
   3  13  10    1.25    0.59
   3  13  11    0.15    0.51
  -3 -15   9    2.43    0.90
   3  15  -9    1.02    0.64
  -3 -15   8    2.87    0.86
  -3  15   8    2.77    0.52
   3  15  -8    2.00    0.76
  -3 -15   7   28.01    2.10
   3 -15  -7   29.88    1.36
   3  15  -7   28.51    1.97
  -3  15   7   28.47    1.45
   3 -15  -6   28.69    1.33
  -3 -15   6   30.69    2.09
   3 -15  -6   24.41    1.49
   3  15  -6   26.59    1.83
  -3  15   6   28.61    1.43
  -3  15   5   42.00    1.74
   3 -15  -5   41.31    1.63
  -3 -15   5   36.83    2.17
   3 -15  -5   38.89    1.66
   3  15  -5   42.38    2.22
   3 -15  -5   39.14    1.78
  -3  15   4   33.18    1.54
   3 -15  -4   36.26    1.54
  -3 -15   4   32.57    1.96
   3 -15  -4   34.15    1.54
   3  15  -4   34.57    1.95
   3 -15  -4   35.83    1.76
  -3  15   3   71.70    2.35
   3 -15  -3   76.72    2.35
  -3 -15   3   69.86    2.72
   3 -15  -3   71.78    2.30
   3  15  -3   68.43    2.71
   3 -15  -3   64.01    2.47
   3 -15  -2    9.91    0.86
   3  15  -2    9.76    0.88
  -3  15   2    8.41    0.82
  -3 -15   2   10.25    0.94
  -3 -15   2    8.13    0.88
   3  15  -2   10.85    1.04
   3 -15  -2    9.98    0.84
   3 -15  -2    9.81    0.97
   3  15  -1  109.51    2.96
  -3  15   1  111.36    3.15
   3 -15  -1  112.93    3.13
  -3 -15   1  115.51    3.14
  -3 -15   1  110.65    3.15
  -3  15   1  108.68    3.44
   3  15  -1  109.27    3.40
   3 -15  -1  108.46    2.85
   3 -15  -1  114.14    3.41
  -3  15   0    3.84    0.63
  -3 -15   0    3.94    0.60
   3 -15   0    4.93    0.73
   3  15   0    4.49    0.59
  -3  15   0    4.28    0.71
   3  15   0    3.39    0.64
  -3 -15   0    4.59    0.61
   3 -15   0    5.09    0.69
  -3 -15  -1    5.84    0.64
  -3 -15  -1    5.47    0.63
   3 -15   1    4.28    0.68
  -3  15  -1    4.96    0.80
   3  15   1    4.79    0.72
   3 -15   2   31.95    1.77
  -3 -15  -2   32.17    1.31
  -3  15  -2   33.13    1.89
  -3 -15  -2   32.00    1.42
   3 -15   3   44.66    2.22
  -3 -15  -3   50.43    1.52
  -3  15  -3   45.18    2.24
  -3 -15  -3   48.06    1.58
   3 -15   4   89.25    3.33
  -3 -15  -4   92.78    1.97
  -3  15  -4   91.85    3.30
  -3 -15  -4   85.11    1.99
   3 -15   5   27.43    1.94
  -3 -15  -5   21.68    0.68
  -3  15  -5   22.23    1.67
   3 -15   6   24.84    1.90
  -3  15  -6   25.16    1.83
   3 -15   7    1.76    0.85
  -3  15  -7    1.83    0.76
   3 -15   8    1.05    0.72
  -3  15  -8    0.98    0.59
   3  15   9    6.73    1.03
   3  15  10    0.30    0.50
  -3 -17   8    0.43    0.70
   3  17  -8   -0.06    0.65
  -3 -17   7    4.33    1.03
   3  17  -7    4.78    0.94
  -3 -17   6    1.11    0.80
  -3  17   6    0.30    0.29
   3 -17  -6    0.28    0.32
   3  17  -6   -0.04    0.50
  -3 -17   5    1.21    0.64
   3 -17  -5    1.62    0.46
  -3  17   5    1.52    0.45
   3  17  -5    1.51    0.61
   3 -17  -4    0.29    0.33
  -3  17   4   -0.26    0.36
  -3 -17   4    0.51    0.58
   3 -17  -4    0.78    0.40
   3  17  -4   -0.45    0.59
   3 -17  -4   -0.51    0.47
  -3  17   3  101.42    3.03
   3 -17  -3  105.13    3.02
  -3 -17   3  102.41    3.54
   3  17  -3  105.84    3.64
   3 -17  -3  103.30    3.04
   3 -17  -3   99.89    3.35
   3 -17  -2    0.77    0.41
  -3  17   2    0.66    0.37
  -3 -17   2    1.38    0.54
   3  17  -2    0.46    0.47
   3 -17  -2    0.73    0.34
  -3  17   1  236.33    5.23
   3 -17  -1  240.86    5.26
   3  17  -1  233.94    5.01
  -3 -17   1  236.44    5.28
  -3  17   1  233.85    5.71
   3  17  -1  236.40    5.68
   3 -17  -1  229.81    4.92
  -3 -17   1  240.40    5.26
   3  17   0    4.25    0.62
  -3 -17   0    3.37    0.59
   3 -17   0    3.93    0.68
  -3 -17   0    4.09    0.66
  -3  17   0    3.89    0.72
   3  17   0    2.98    0.64
   3 -17   1   34.54    1.91
  -3 -17  -1   32.88    1.56
  -3  17  -1   31.58    1.94
  -3 -17  -1   35.98    1.69
   3 -17   2    3.43    0.76
  -3 -17  -2    3.00    0.50
  -3  17  -2    3.65    0.78
  -3 -17  -2    2.65    0.50
  -3 -17  -3    8.24    0.69
   3 -17   3    9.53    1.13
  -3  17  -3    8.53    1.05
   3 -17   4    1.64    0.65
  -3 -17  -4    2.41    0.36
  -3  17  -4    3.07    0.78
   3 -17   5   28.79    2.10
  -3  17  -5   31.45    2.10
   3 -17   6    1.14    0.67
  -3  17  -6    0.28    0.54
   3 -17   7    0.63    0.59
  -3  17  -7    3.18    0.91
  -3 -19   7   19.46    1.96
  -3 -19   6   22.62    2.01
   3  19  -6   25.92    2.01
  -3 -19   5    7.71    1.21
   3 -19  -5    5.95    0.73
  -3  19   5    8.24    0.84
   3  19  -5    7.67    1.10
   3 -19  -4    1.70    0.49
  -3  19   4    2.06    0.51
   3  19  -4    2.31    0.68
  -3 -19   4    1.71    0.71
  -3  19   3    2.59    0.54
   3  19  -3    2.05    0.72
   3 -19  -3    2.21    0.53
  -3 -19   3    1.16    0.56
  -3  19   2    6.81    0.85
   3  19  -2    6.88    1.02
  -3 -19   2    6.53    0.95
   3 -19  -2    5.88    0.80
   3 -19  -1   30.69    1.80
  -3  19   1   30.57    2.03
   3  19  -1   32.43    2.05
  -3 -19   1   35.00    1.93
  -3  19   0    1.63    0.59
   3  19   0    0.74    0.48
  -3 -19   0    1.48    0.49
   3 -19   0    1.69    0.61
  -3  19  -1    1.16    0.60
  -3 -19  -1    1.10    0.43
   3 -19   1    0.65    0.56
   3 -19   2   25.80    1.84
  -3  19  -2   26.59    1.90
  -3 -19  -2   28.90    1.47
   3 -19   3   20.37    1.70
  -3  19  -3   24.04    1.87
   3 -19   4   30.97    2.15
  -3  19  -4   30.20    2.11
   3 -19   5    8.10    1.23
  -3  19  -5    8.83    1.26
   3 -19   6    4.45    1.03
  -3  19  -6    2.80    0.86
  -3 -21   5    7.23    1.22
   3  21  -4    1.64    0.72
  -3 -21   4    1.26    0.85
   3  21  -3    5.55    1.01
   3 -21  -3    5.36    0.84
  -3 -21   3    3.55    0.87
   3 -21  -2   20.50    1.51
   3  21  -2   20.45    1.77
  -3 -21   2   19.38    1.65
   3  21  -1    4.14    0.99
   3 -21  -1    3.47    0.72
  -3 -21   1    2.38    0.69
   3 -21   0   40.94    2.28
  -3  21   0   42.51    2.52
   3  21   0   43.37    2.54
  -3 -21   0   38.86    2.06
  -3  21  -1    7.34    1.15
  -3 -21  -1    5.99    0.83
   3 -21   1    7.71    1.10
  -3  21  -2    3.30    0.85
   3 -21   2    3.98    0.90
  -3  21  -3   17.12    1.71
   3 -21   3   12.44    1.43
   3 -21   4   20.27    1.92
  -3 -23   4    3.23    0.89
  -3 -23   3    2.51    0.85
  -3 -23   2   45.69    2.61
   3 -23  -1    1.37    0.73
  -3 -23   1    0.91    0.69
   3 -23   0   24.40    1.90
   3 -23   1   -0.65    0.73
   3 -23   2    0.26    0.63
  -4   0  14    2.85    1.04
  -4   0  13   -0.69    0.70
  -4   0  12    4.31    1.00
  -4   0  11    0.45    0.68
  -4   0  10   25.16    1.79
  -4   0   9    2.39    0.65
   4   0  -8  217.38    4.94
  -4   0   8  219.48    5.14
  -4   0   7    0.33    0.40
   4   0  -7    0.65    0.35
   4   0  -6    6.41    0.75
  -4   0   6    8.40    0.86
   4   0  -5    0.19    0.30
  -4   0   5    0.50    0.37
  -4   0   4  135.37    2.99
   4   0  -4  132.68    2.97
  -4   0   3    3.65    0.48
   4   0  -3    3.68    0.46
  -4   0   2   40.14    1.26
   4   0  -2   40.38    1.26
  -4   0   1    8.55    0.47
   4   0  -1    8.24    0.45
   4   0   0  398.58    5.20
  -4   0   0  388.91    5.17
   4   0   0  392.52    5.35
  -4   0   0  405.99    5.38
  -4   0  -1    2.65    0.27
   4   0   1    2.50    0.26
   4   0   1    2.17    0.26
   4   0   1    2.67    0.30
  -4   0  -2 9820.91  116.77
   4   0   2 9999.00  116.74
  -4   0  -2 9818.99  116.72
   4   0   2 9785.85  116.77
   4   0   3   20.07    0.79
   4   0   3   18.52    0.77
  -4   0  -3   20.40    0.76
   4   0   4  285.94    4.59
  -4   0  -4  293.74    4.53
   4   0   4  288.01    4.60
   4   0   5    2.10    0.38
   4   0   5    1.25    0.29
  -4   0  -5    1.73    0.32
   4   0   6    8.56    0.73
   4   0   6    8.77    0.70
  -4   0  -6    8.09    0.65
   4   0   7    0.42    0.35
   4   0   7    0.17    0.29
  -4   0  -7    0.15    0.28
   4   0   8   20.15    1.29
   4   0   8   18.91    1.18
  -4   0  -8   21.00    1.20
   4   0   9   -0.15    0.40
   4   0   9    0.54    0.40
  -4   0  -9    0.52    0.35
   4   0  10    2.10    0.63
   4   0  11    0.00    0.51
   4   0  12    3.44    0.98
  -4   2  14    1.99    0.89
  -4   2  14    3.04    0.84
  -4  -2  13    5.67    1.26
  -4   2  13    3.46    0.93
  -4  -2  12    0.89    0.65
  -4   2  12    0.75    0.59
  -4  -2  11   13.36    1.46
  -4   2  11   13.54    1.41
  -4   2  10    0.17    0.61
  -4  -2  10   -0.39    0.65
  -4   2   9    6.10    0.88
  -4  -2   9    6.95    0.98
   4  -2  -9    5.86    0.80
   4   2  -8   72.60    2.66
  -4  -2   8   73.57    2.80
   4  -2  -8   74.00    2.58
  -4   2   8   70.40    2.65
   4  -2  -7    1.80    0.44
  -4  -2   7    0.90    0.47
   4   2  -7    1.01    0.42
  -4   2   7    1.00    0.46
  -4   2   6    9.13    0.85
   4  -2  -6   10.92    0.88
  -4  -2   6    9.57    0.88
   4   2  -6   11.62    0.92
   4   2  -5  163.89    3.59
  -4   2   5  160.79    3.55
   4  -2  -5  158.55    3.49
  -4  -2   5  161.41    3.64
   4  -2  -4   56.55    1.79
   4   2  -4   56.43    1.80
  -4   2   4   60.11    1.83
  -4  -2   4   61.46    1.91
  -4   2   4   61.81    1.70
  -4  -2   3  325.91    5.28
   4   2  -3  316.91    5.19
   4  -2  -3  320.51    5.26
  -4   2   3  334.58    5.06
   4   2  -2  326.61    5.11
  -4  -2   2  333.76    5.12
  -4   2   2  341.29    5.05
   4  -2  -2  338.90    5.02
   4   2  -1    6.51    0.44
  -4  -2   1    6.77    0.46
   4  -2  -1    6.22    0.29
  -4   2   1    6.70    0.50
   4   2  -1    6.18    0.32
   4  -2  -1    5.90    0.45
   4   2   0  103.28    1.78
  -4  -2   0  103.45    1.87
   4   2   0  101.55    1.61
  -4  -2   0   98.38    1.64
  -4   2   0   96.82    1.58
  -4  -2   0  106.83    1.65
   4  -2   0   99.44    1.99
  -4   2   0  100.14    1.97
   4  -2   1    5.22    0.40
  -4   2  -1    5.16    0.42
  -4  -2  -1    4.48    0.39
   4   2   1    4.71    0.41
  -4  -2  -1    5.04    0.24
   4   2   1    4.86    0.24
   4  -2   1    4.47    0.38
   4   2   2    4.58    0.25
  -4   2  -2    3.43    0.38
   4  -2   2    4.79    0.45
  -4   2  -2    3.10    0.38
   4  -2   2    4.42    0.42
   4   2   2    4.45    0.44
   4   2   2    4.28    0.25
   4  -2   3    6.06    0.54
   4   2   3    3.83    0.30
  -4   2  -3    4.76    0.46
  -4  -2  -3    4.22    0.30
   4  -2   3    6.08    0.53
   4   2   3    4.97    0.50
   4   2   3    4.05    0.32
  -4   2  -4   66.10    1.79
  -4  -2  -4   65.22    1.43
   4  -2   4   65.90    1.85
   4   2   4   64.91    1.49
   4  -2   4   66.85    1.86
   4   2   4   67.83    1.88
   4   2   4   62.73    1.50
   4  -2   5    5.22    0.58
  -4   2  -5    4.83    0.53
  -4  -2  -5    5.22    0.44
   4  -2   5    4.60    0.58
   4   2   5    4.85    0.47
  -4   2  -6   27.11    1.26
  -4  -2  -6   25.30    1.03
   4  -2   6   25.84    1.28
   4  -2   6   27.17    1.36
   4   2   6   24.47    1.12
  -4  -2  -7   22.02    1.05
   4  -2   7   22.36    1.30
  -4   2  -7   21.46    1.20
   4   2   7   22.92    1.19
   4  -2   7   21.06    1.29
  -4   2  -8    4.10    0.60
  -4  -2  -8    5.01    0.58
   4  -2   8    4.37    0.65
   4  -2   8    6.10    0.85
   4   2   8    4.88    0.67
  -4  -2  -9    6.74    0.72
   4   2   9    6.33    0.71
   4  -2   9    6.25    0.90
   4   2   9    6.44    0.79
  -4  -2 -10    2.06    0.51
   4   2  10    1.55    0.53
   4  -2  10    2.12    0.71
   4   2  10    2.38    0.61
   4   2  10    1.36    0.55
   4  -2  11    0.76    0.59
   4   2  11    0.99    0.47
   4   2  11    1.05    0.60
   4  -2  12    0.48    0.64
   4   2  12    1.99    0.66
  -4  -4  13   15.77    1.82
  -4   4  13   12.02    1.28
  -4   4  13   12.98    1.41
  -4  -4  12    3.66    0.95
  -4   4  12    4.47    0.86
  -4  -4  11    3.37    0.91
  -4   4  11    3.88    0.72
  -4  -4  10    4.70    0.92
  -4   4  10    4.22    0.68
   4  -4  -9   56.12    2.33
  -4  -4   9   56.49    2.67
  -4   4   9   58.83    2.30
   4  -4  -8    5.28    0.75
  -4  -4   8    4.50    0.79
  -4   4   8    6.72    0.82
   4   4  -7   64.64    2.40
   4  -4  -7   64.82    2.27
  -4  -4   7   63.06    2.52
  -4   4   7   67.22    2.22
   4  -4  -6    9.56    0.80
  -4  -4   6    9.38    0.92
   4   4  -6    9.65    0.88
  -4   4   6    9.06    0.76
   4   4  -5    6.08    0.66
   4  -4  -5    5.79    0.65
  -4  -4   5    5.53    0.69
  -4   4   5    6.08    0.61
   4   4  -4  454.79    7.25
  -4  -4   4  473.29    7.40
   4  -4  -4  457.77    7.20
  -4   4   4  450.09    6.96
   4   4  -3  559.31    8.24
  -4  -4   3  568.75    8.32
  -4   4   3  558.12    7.23
   4  -4  -3  557.78    8.06
  -4   4   3  579.67    8.09
  -4  -4   2  659.46    8.92
   4   4  -2  647.47    8.86
  -4   4   2  628.46    7.83
   4  -4  -2  646.90    8.87
  -4   4   2  648.44    8.91
   4   4  -1   61.84    1.46
  -4  -4   1   62.33    1.51
   4   4  -1   62.37    1.41
  -4   4   1   60.03    1.36
   4  -4  -1   61.58    1.36
  -4   4   1   62.23    1.60
  -4  -4   1   62.33    1.44
   4  -4  -1   61.44    1.62
   4  -4   0  114.70    2.24
   4   4   0  112.51    1.91
  -4  -4   0  114.38    1.96
   4   4   0  116.55    2.09
  -4  -4   0  114.63    2.19
  -4   4   0  109.38    2.06
  -4  -4   0  110.46    2.11
   4  -4   0  108.18    2.00
   4  -4   0  111.44    2.29
  -4   4   0  111.49    2.28
  -4   4  -1  126.03    2.53
   4  -4   1  128.21    2.50
  -4   4  -1  125.83    2.47
  -4  -4  -1  125.20    2.33
  -4  -4  -1  126.77    2.49
   4   4   1  127.87    2.51
   4  -4   1  129.05    2.57
  -4   4  -2   50.27    1.48
  -4   4  -2   50.01    1.52
   4  -4   2   51.68    1.52
   4  -4   2   50.47    1.53
  -4  -4  -2   52.03    1.50
   4   4   2   52.46    1.52
  -4   4  -3  201.54    3.79
   4  -4   3  214.37    3.89
   4   4   3  206.32    2.76
   4  -4   3  213.23    3.92
  -4  -4  -3  207.30    3.79
   4   4   3  211.43    3.83
   4  -4   4   60.93    1.92
  -4  -4  -4   59.80    1.13
  -4   4  -4   58.70    1.82
   4  -4   4   59.21    1.89
   4   4   4   59.00    1.82
   4   4   4   58.98    1.24
  -4  -4  -5    7.06    0.42
  -4   4  -5    6.92    0.68
   4  -4   5    7.78    0.74
   4   4   5    7.52    0.71
   4   4   5    8.19    0.51
   4  -4   5    7.66    0.78
   4  -4   6   37.41    1.66
  -4   4  -6   38.35    1.63
  -4  -4  -6   35.98    1.12
   4   4   6   36.26    1.60
   4  -4   6   39.61    1.76
   4   4   6   37.84    1.29
   4  -4   7   33.41    1.66
  -4   4  -7   32.28    1.59
  -4  -4  -7   32.08    1.17
   4   4   7   36.75    1.70
   4  -4   7   35.79    1.78
   4   4   7   32.62    1.33
  -4  -4  -8   43.51    1.49
   4   4   8   39.85    1.92
   4   4   8   44.28    1.72
   4  -4   8   44.43    2.13
  -4  -4  -9    1.01    0.40
   4  -4   9    1.71    0.63
   4   4   9    1.05    0.48
   4   4   9    2.18    0.63
   4  -4  10   -0.50    0.61
   4   4  10   -0.37    0.38
   4   4  10   -0.49    0.53
   4  -4  11    1.60    0.68
   4   4  11    1.55    0.64
   4  -4  12    1.00    0.80
   4   4  12    0.18    0.56
   4  -4  13    0.43    0.87
  -4   6  13    0.65    0.52
  -4   6  13   -0.33    0.61
  -4  -6  12    1.48    0.78
  -4   6  12    2.16    0.67
  -4   6  12    1.64    0.59
  -4  -6  11    3.02    0.96
  -4   6  11    2.57    0.59
  -4   6  11    2.32    0.61
   4  -6 -10    1.73    0.62
  -4  -6  10    1.40    0.67
  -4   6  10    1.66    0.53
  -4   6  10    1.88    0.54
   4  -6  -9  101.78    3.20
  -4  -6   9  100.76    3.74
  -4   6   9  101.10    2.93
  -4   6   9  103.39    3.15
   4  -6  -8    1.71    0.47
  -4  -6   8    1.58    0.60
  -4   6   8    0.93    0.39
  -4   6   8    1.90    0.52
   4   6  -7  142.42    3.91
  -4  -6   7  140.37    4.05
   4  -6  -7  145.22    3.58
  -4   6   7  143.70    3.17
  -4   6   7  145.10    3.51
  -4  -6   6    1.45    0.46
   4   6  -6    1.24    0.42
   4  -6  -6    1.64    0.43
  -4   6   6    1.84    0.34
  -4   6   6    2.08    0.44
  -4  -6   5    7.25    0.81
   4  -6  -5    8.40    0.79
   4   6  -5    7.84    0.78
  -4   6   5    7.44    0.55
  -4   6   5    8.34    0.74
   4   6  -4  255.53    4.86
  -4  -6   4  259.42    5.02
  -4   6   4  255.27    4.01
   4  -6  -4  265.57    4.61
  -4   6   4  268.35    4.69
   4   6  -3  360.99    5.94
  -4  -6   3  367.78    6.06
  -4   6   3  361.85    4.99
   4  -6  -3  358.38    5.80
  -4   6   3  360.35    5.81
  -4  -6   2   65.74    1.84
   4   6  -2   68.14    1.81
   4  -6  -2   62.92    1.24
   4  -6  -2   65.99    1.69
   4   6  -2   66.37    1.73
   4  -6  -2   63.01    1.83
  -4   6   2   68.28    1.84
  -4  -6   1   30.62    1.08
   4   6  -1   31.55    1.05
  -4   6   1   29.33    1.10
   4  -6  -1   29.36    1.05
   4   6  -1   30.07    1.09
  -4  -6   1   30.24    1.12
  -4   6   1   28.60    1.12
   4  -6  -1   29.79    1.21
   4  -6   0    3.33    0.41
   4  -6   0    4.08    0.46
  -4   6   0    4.22    0.49
  -4  -6   0    3.53    0.35
   4   6   0    3.42    0.31
   4   6   0    3.71    0.43
  -4   6   0    3.99    0.43
  -4  -6   0    3.33    0.40
   4  -6   0    3.32    0.36
  -4  -6  -1  254.02    3.44
  -4   6  -1  251.98    4.32
   4  -6   1  251.08    4.35
  -4   6  -1  250.49    4.43
   4   6   1  256.32    3.46
  -4  -6  -1  256.83    3.55
  -4   6  -1  253.34    4.24
  -4  -6  -1  251.93    4.27
  -4  -6  -1  257.48    4.34
   4  -6   1  253.06    4.45
   4  -6   2    5.81    0.59
  -4   6  -2    5.86    0.57
   4  -6   2    6.12    0.59
  -4   6  -2    5.89    0.61
   4   6   2    5.31    0.55
  -4  -6  -2    5.75    0.53
  -4  -6  -2    4.96    0.53
  -4   6  -3  480.53    7.44
   4  -6   3  478.25    7.53
   4  -6   3  465.03    7.48
   4   6   3  477.19    7.35
  -4  -6  -3  481.06    7.35
   4  -6   4    4.84    0.62
  -4   6  -4    4.74    0.61
   4  -6   4    4.31    0.62
   4   6   4    3.58    0.55
   4   6   4    3.47    0.21
   4  -6   5    3.13    0.54
  -4  -6  -5    3.00    0.22
  -4   6  -5    3.07    0.54
   4  -6   5    3.62    0.62
   4   6   5    4.34    0.60
   4   6   5    4.39    0.32
  -4  -6  -6    1.03    0.20
  -4   6  -6    1.04    0.39
   4  -6   6    1.28    0.39
   4  -6   6    0.74    0.41
   4   6   6    1.05    0.44
   4   6   6    0.56    0.18
  -4  -6  -7   37.67    1.11
   4  -6   7   37.41    1.91
   4   6   7   40.60    1.85
   4   6   7   38.58    1.27
  -4  -6  -8   10.52    0.64
   4  -6   8    8.73    1.08
   4   6   8   10.27    1.01
   4   6   8    9.90    0.71
  -4  -6  -9    1.32    0.36
   4  -6   9    2.40    0.81
   4   6   9    1.74    0.65
   4   6   9    1.35    0.43
   4  -6  10    0.95    0.69
   4   6  10    0.35    0.49
   4   6  10    0.35    0.32
   4  -6  11    3.24    1.42
   4   6  11    3.61    0.82
   4  -6  12    0.49    0.71
   4   6  12    0.13    0.57
  -4   8  13    5.24    0.93
  -4  -8  12    4.40    1.07
  -4   8  12    5.00    0.89
  -4   8  12    4.34    0.84
  -4  -8  11   -0.41    0.76
  -4   8  11    0.12    0.39
  -4   8  11    1.01    0.47
  -4  -8  10    3.48    0.87
  -4   8  10    3.58    0.66
  -4   8  10    4.46    0.73
   4  -8  -9    6.53    0.84
  -4  -8   9    7.35    1.14
  -4   8   9    7.04    0.80
  -4   8   9    7.96    0.88
  -4  -8   8    2.52    0.71
   4  -8  -8    2.30    0.57
  -4   8   8    2.52    0.47
  -4   8   8    3.54    0.60
   4  -8  -7   20.19    1.27
  -4  -8   7   21.39    1.56
  -4   8   7   18.52    1.06
  -4   8   7   19.63    1.22
   4   8  -6   62.60    2.38
   4  -8  -6   55.52    2.05
  -4  -8   6   57.10    2.42
  -4   8   6   58.58    1.78
  -4   8   6   62.27    2.09
   4   8  -5   55.65    2.11
  -4  -8   5   49.86    2.15
   4  -8  -5   55.23    1.98
  -4   8   5   56.39    1.60
  -4   8   5   56.76    1.92
   4   8  -4  208.46    4.36
  -4  -8   4  202.52    4.46
   4  -8  -4  217.54    4.18
  -4   8   4  199.63    3.43
  -4   8   4  214.77    4.14
   4  -8  -4  202.61    4.05
   4   8  -3  333.01    5.73
  -4  -8   3  332.08    5.87
   4  -8  -3  331.81    4.83
   4  -8  -3  335.31    5.63
   4   8  -3  336.49    5.67
   4  -8  -3  321.80    5.65
  -4   8   3  331.97    5.56
   4   8  -2  367.36    5.86
  -4  -8   2  370.26    6.00
   4  -8  -2  345.00    5.14
   4   8  -2  370.38    5.94
   4  -8  -2  372.05    5.90
  -4   8   2  359.46    5.84
   4  -8  -2  355.75    6.05
   4  -8  -1   38.03    1.36
   4   8  -1   39.23    1.28
  -4  -8   1   40.03    1.36
  -4   8   1   37.20    1.42
   4   8  -1   42.03    1.47
   4  -8  -1   38.75    1.41
  -4   8   1   36.93    1.40
   4  -8  -1   38.59    1.47
  -4  -8   1   42.12    1.51
   4  -8   0   26.98    1.16
  -4  -8   0   28.47    0.95
   4   8   0   28.40    0.95
  -4   8   0   27.57    1.20
  -4  -8   0   26.72    0.99
  -4   8   0   27.57    1.21
   4   8   0   28.09    1.19
  -4  -8   0   28.00    1.22
   4  -8   0   28.29    1.17
   4  -8   0   27.24    1.22
   4  -8   1  150.39    3.27
   4   8   1  153.85    2.49
  -4   8  -1  157.21    3.38
  -4   8  -1  157.77    3.28
  -4  -8  -1  155.28    2.59
  -4  -8  -1  152.58    3.21
  -4   8  -1  150.42    3.23
  -4  -8  -1  150.48    3.26
  -4  -8  -1  155.53    2.53
   4  -8   1  154.91    3.41
   4  -8   2   46.93    1.75
  -4   8  -2   48.50    1.71
   4  -8   2   46.45    1.74
  -4   8  -2   46.65    1.74
  -4  -8  -2   50.00    0.98
  -4  -8  -2   50.68    1.71
  -4  -8  -2   51.64    1.73
  -4  -8  -2   49.95    1.00
  -4   8  -2   46.83    1.67
   4  -8   3  159.19    3.73
  -4   8  -3  165.25    3.65
   4  -8   3  162.56    3.71
  -4  -8  -3  166.76    3.59
  -4  -8  -3  167.08    3.58
   4   8   3  162.66    3.52
  -4   8  -4   17.84    1.13
   4  -8   4   16.76    1.15
   4  -8   4   18.78    1.21
   4   8   4   16.12    1.06
  -4  -8  -4   17.44    1.09
  -4   8  -5   18.23    1.20
   4  -8   5   16.62    1.23
   4  -8   5   18.34    1.26
   4   8   5   16.79    1.13
   4   8   5   15.59    0.45
   4  -8   6   44.68    2.10
   4   8   6   43.00    1.89
   4   8   6   44.98    1.08
  -4  -8  -7   17.01    0.58
   4  -8   7   20.21    1.52
   4   8   7   20.14    1.35
   4   8   7   20.26    0.83
  -4  -8  -8    9.69    0.50
   4  -8   8    9.66    1.20
   4   8   8   10.66    1.07
   4   8   8    9.75    0.64
   4  -8   9    5.25    0.98
   4   8   9    4.58    0.86
   4   8   9    4.51    0.50
   4  -8  10    0.13    0.66
   4   8  10    0.04    0.54
   4  -8  11    2.19    0.77
   4   8  11    0.66    0.54
   4  -8  12    0.12    0.76
  -4  10  12    1.36    0.62
  -4 -10  11    1.87    0.83
  -4  10  11    1.05    0.52
  -4  10  11    0.13    0.42
  -4 -10  10    8.02    1.27
  -4  10  10    7.56    0.89
  -4  10  10    8.58    0.96
   4 -10  -9    1.38    0.55
  -4 -10   9    1.01    0.68
  -4  10   9    1.08    0.47
  -4  10   9    0.17    0.39
  -4 -10   8  117.35    4.13
   4 -10  -8  119.72    3.37
  -4  10   8  117.94    3.13
  -4  10   8  120.04    3.36
   4 -10  -7   19.38    1.25
  -4 -10   7   19.22    1.59
  -4  10   7   20.28    1.12
  -4  10   7   20.12    1.25
  -4 -10   6    2.66    0.73
   4 -10  -6    1.98    0.52
  -4  10   6    2.61    0.44
  -4  10   6    2.26    0.48
   4  10  -5   24.17    1.45
  -4 -10   5   22.80    1.51
  -4  10   5   23.38    1.03
   4 -10  -5   26.48    1.43
   4 -10  -5   22.22    1.21
  -4  10   5   23.54    1.24
   4  10  -4   73.48    2.41
  -4 -10   4   68.40    2.47
   4 -10  -4   72.68    2.32
   4 -10  -4   69.39    1.75
   4  10  -4   67.54    2.30
  -4  10   4   69.03    2.13
   4 -10  -4   65.57    2.16
   4  10  -3   74.35    2.29
  -4 -10   3   70.86    2.36
   4 -10  -3   69.91    1.76
   4 -10  -3   73.32    2.27
   4  10  -3   76.74    2.35
   4 -10  -3   71.43    2.27
  -4  10   3   73.46    2.15
   4 -10  -2   41.80    1.49
  -4 -10   2   43.22    1.57
   4  10  -2   43.82    1.59
  -4 -10   2   40.78    1.63
   4 -10  -2   39.20    1.60
   4  10  -2   41.14    1.63
   4 -10  -2   37.97    1.23
   4 -10  -2   38.88    1.64
  -4  10   2   37.67    1.50
  -4  10   1   68.67    2.08
  -4 -10   1   68.63    1.89
   4 -10  -1   68.38    2.01
   4  10  -1   70.41    1.91
  -4 -10   1   67.92    1.99
  -4  10   1   67.59    2.16
   4 -10  -1   68.34    2.13
   4  10  -1   66.08    2.11
   4 -10  -1   69.04    2.20
  -4 -10   1   66.32    2.18
   4 -10   0  163.43    3.54
   4  10   0  163.00    3.06
  -4  10   0  167.38    3.61
  -4 -10   0  166.14    3.11
  -4 -10   0  163.95    3.20
  -4 -10   0  165.14    3.72
   4  10   0  167.20    3.63
  -4  10   0  164.38    3.67
   4 -10   0  168.41    3.60
   4 -10   0  170.37    3.76
  -4  10  -1   13.58    0.96
  -4  10  -1   15.87    0.98
   4  10   1   15.06    0.67
   4 -10   1   14.12    0.96
  -4 -10  -1   15.29    0.73
  -4  10  -1   13.35    0.95
  -4 -10  -1   15.35    1.01
  -4 -10  -1   14.94    0.94
   4  10   1   16.05    1.01
  -4 -10  -1   15.81    0.72
   4 -10   1   13.78    0.99
  -4  10  -2  192.47    4.26
  -4  10  -2  207.85    4.25
   4 -10   2  195.11    4.24
  -4 -10  -2  198.94    3.10
  -4 -10  -2  202.58    4.16
  -4 -10  -2  197.63    4.21
  -4  10  -2  186.59    4.13
   4 -10   2  202.11    4.36
  -4 -10  -2  189.14    3.15
  -4  10  -3    3.57    0.57
   4 -10   3    4.45    0.63
  -4 -10  -3    3.62    0.24
   4 -10   3    3.43    0.63
  -4 -10  -3    4.98    0.62
  -4 -10  -3    4.75    0.61
  -4  10  -3    3.87    0.62
  -4 -10  -3    4.49    0.27
   4 -10   4   56.27    2.24
  -4  10  -4   58.40    2.23
   4 -10   4   50.82    2.17
  -4 -10  -4   59.37    2.18
  -4 -10  -4   60.55    2.15
   4  10   4   57.72    2.07
   4 -10   5   21.55    1.47
  -4 -10  -5   23.44    1.34
   4  10   5   21.65    1.32
   4 -10   6    5.26    0.82
   4  10   6    6.78    0.82
   4  10   6    4.04    0.20
   4  10   7    2.18    0.21
   4 -10   7    2.50    0.67
   4  10   7    2.06    0.59
   4 -10   8    6.70    1.04
   4  10   8    7.95    0.98
   4  10   8    6.77    0.42
   4 -10   9    0.14    0.65
   4  10   9    0.71    0.51
   4 -10  10    1.44    0.90
   4  10  10    1.23    0.63
   4 -10  11    0.34    0.66
   4  10  11    0.56    0.56
  -4  12  11    0.72    0.52
  -4 -12  10   17.08    1.85
  -4  12  10   14.02    1.18
  -4  12  10   14.45    1.22
  -4 -12   9    4.95    1.09
  -4  12   9    3.21    0.61
  -4  12   9    3.83    1.51
   4 -12  -8   89.38    2.91
  -4 -12   8   93.71    3.83
  -4  12   8   94.81    2.78
  -4  12   8   95.02    2.95
  -4 -12   7   15.13    1.47
   4 -12  -7   11.84    1.06
  -4  12   7   12.74    0.93
  -4  12   7   13.20    1.03
  -4 -12   6   47.36    2.42
   4 -12  -6   42.86    1.92
  -4  12   6   46.76    1.87
   4  12  -6   46.56    2.20
  -4 -12   5    0.07    0.50
  -4  12   5    0.27    0.28
   4  12  -5    0.02    0.41
   4 -12  -5    0.89    0.38
  -4 -12   4   45.16    1.98
   4  12  -4   47.22    1.99
   4 -12  -4   43.44    1.61
  -4 -12   4   41.64    2.00
   4 -12  -4   45.89    1.50
   4 -12  -4   45.23    1.94
   4  12  -4   41.86    1.90
  -4  12   4   43.92    1.72
   4 -12  -4   41.24    1.78
   4  12  -3   16.06    1.09
   4 -12  -3   14.36    0.92
  -4 -12   3   13.70    1.02
  -4 -12   3   14.63    1.11
   4 -12  -3   15.14    1.10
   4 -12  -3   15.20    0.85
   4  12  -3   13.40    1.04
   4 -12  -3   13.39    1.05
  -4  12   3   14.62    0.97
  -4  12   2   14.22    0.98
  -4 -12   2   12.72    0.93
   4  12  -2   13.07    0.92
   4 -12  -2   13.57    0.92
  -4 -12   2   13.98    1.02
   4  12  -2   13.14    1.02
   4 -12  -2   12.27    0.99
   4 -12  -2   13.44    0.80
   4 -12  -2   13.80    1.07
  -4 -12   1   13.62    0.90
   4 -12  -1   12.50    0.91
   4  12  -1   13.72    0.87
  -4  12   1   12.73    0.95
  -4 -12   1   12.11    0.88
   4  12  -1   14.26    1.04
  -4  12   1   12.91    1.04
   4 -12  -1   12.03    0.95
   4 -12  -1   14.65    1.08
  -4 -12   1   14.78    1.09
  -4  12   0   19.43    1.19
   4  12   0   18.76    0.94
  -4 -12   0   18.57    0.96
   4 -12   0   18.50    1.13
  -4 -12   0   18.47    1.00
   4  12   0   17.05    1.13
  -4  12   0   17.36    1.20
  -4 -12   0   19.69    1.25
   4 -12   0   19.60    1.23
   4 -12   0   19.25    1.19
  -4  12  -1    2.28    0.46
   4  12   1    1.50    0.29
   4 -12   1    1.59    0.45
  -4 -12  -1    1.08    0.27
   4 -12   1    1.92    0.48
  -4  12  -1    1.27    0.41
  -4 -12  -1    0.66    0.30
   4  12   1    0.63    0.37
  -4 -12  -1    1.41    0.37
  -4  12  -1    2.25    0.52
  -4 -12  -1    0.88    0.34
  -4  12  -2  222.78    4.90
   4 -12   2  220.45    4.89
  -4  12  -2  239.39    4.91
  -4 -12  -2  232.02    3.78
  -4 -12  -2  236.99    5.02
  -4  12  -2  215.07    4.87
  -4 -12  -2  244.82    4.90
   4 -12   2  232.37    5.03
  -4 -12  -2  217.18    3.84
  -4 -12  -3    5.48    0.37
   4 -12   3    6.81    0.86
  -4 -12  -3    5.61    0.68
  -4  12  -3    5.94    0.79
  -4 -12  -3    5.43    0.37
   4 -12   4   12.68    1.19
  -4 -12  -4   17.71    1.21
  -4  12  -4   13.23    1.13
   4 -12   5    2.79    0.68
   4  12   5    5.11    0.73
  -4  12  -5    4.45    0.75
   4 -12   6    5.22    0.98
   4  12   6    3.35    0.66
   4 -12   7    0.32    0.53
   4  12   7    0.58    0.53
   4 -12   8    7.78    1.17
   4  12   8    6.77    0.93
   4 -12   9    1.60    0.77
   4  12   9    2.19    0.69
   4 -12  10    3.93    1.06
   4  12  10    3.65    0.89
   4  12  11    0.05    0.61
  -4  14  10    0.96    0.46
  -4 -14   9    7.08    1.21
  -4  14   9    8.39    0.89
  -4  14   9    5.34    0.75
  -4 -14   8   13.53    1.57
  -4  14   8   11.61    0.99
   4  14  -8   11.76    1.30
  -4 -14   7    6.23    1.05
   4 -14  -7    5.25    0.77
  -4  14   7    6.38    0.75
   4  14  -7    7.32    1.02
   4 -14  -6    3.16    0.65
  -4 -14   6    3.36    0.77
   4 -14  -6    3.66    0.54
  -4  14   6    2.13    0.58
   4  14  -6    2.57    0.71
   4 -14  -5   69.94    2.19
  -4 -14   5   63.60    2.79
   4  14  -5   64.64    2.66
   4 -14  -5   63.53    2.35
  -4  14   5   67.76    2.30
   4 -14  -4   35.66    1.54
  -4 -14   4   37.63    2.01
   4 -14  -4   38.11    1.49
   4  14  -4   36.00    1.89
   4 -14  -4   31.78    1.66
  -4  14   4   33.26    1.58
  -4  14   3  215.75    4.62
   4 -14  -3  220.88    4.52
   4  14  -3  230.84    4.91
  -4 -14   3  230.97    4.99
  -4 -14   3  222.52    5.15
   4 -14  -3  221.92    4.32
   4  14  -3  218.07    5.09
   4 -14  -3  210.82    4.94
  -4 -14   2  210.02    4.53
  -4  14   2  202.53    4.44
   4 -14  -2  204.24    4.35
   4  14  -2  211.29    4.46
  -4 -14   2  203.46    4.67
   4 -14  -2  197.72    4.05
   4  14  -2  204.19    4.81
   4 -14  -2  213.48    4.90
  -4 -14   1   21.82    1.22
  -4  14   1   18.48    1.22
   4 -14  -1   17.37    1.15
   4  14  -1   19.51    1.12
  -4 -14   1   20.46    1.24
  -4  14   1   17.33    1.29
   4  14  -1   20.13    1.34
   4 -14  -1   18.84    1.31
  -4 -14   0    4.67    0.60
   4 -14   0    4.61    0.64
  -4  14   0    4.22    0.66
   4  14   0    4.11    0.50
  -4 -14   0    4.16    0.55
   4  14   0    3.96    0.65
  -4  14   0    3.72    0.65
   4 -14   0    4.76    0.67
   4 -14   1   35.78    1.78
  -4  14  -1   36.66    1.81
  -4 -14  -1   36.03    1.41
  -4  14  -1   36.89    1.87
  -4 -14  -1   38.08    1.46
   4 -14   2   10.23    1.03
  -4 -14  -2   10.79    0.71
  -4  14  -2   11.32    1.08
  -4 -14  -2   10.60    0.74
   4 -14   3   16.65    1.34
  -4 -14  -3   18.45    0.79
  -4  14  -3   16.17    1.30
  -4 -14  -3   16.91    0.78
   4 -14   4    2.89    0.71
  -4 -14  -4    2.09    0.25
  -4 -14  -4    2.72    0.25
  -4  14  -4    3.85    0.75
   4 -14   5    1.23    0.63
  -4  14  -5    0.99    0.49
   4 -14   6   51.68    2.67
  -4  14  -6   51.51    2.55
   4 -14   7   26.68    2.08
   4  14   7   25.31    1.68
  -4  14  -7   26.90    1.92
   4 -14   8    2.49    0.86
   4  14   8    3.38    0.77
   4 -14   9    1.63    0.79
   4  14   9    2.33    0.66
   4  14  10    0.57    0.53
  -4 -16   8    1.34    0.75
   4  16  -8    0.19    0.49
   4 -16  -7   35.38    1.61
  -4 -16   7   36.44    2.45
   4  16  -7   38.15    2.31
  -4  16   7   35.26    1.70
  -4 -16   6    0.88    0.61
  -4  16   6    2.48    0.54
   4 -16  -6    1.56    0.42
   4  16  -6    0.96    0.53
  -4  16   5    5.31    0.70
   4 -16  -5    4.57    0.65
  -4 -16   5    4.50    0.92
   4 -16  -5    4.62    0.63
   4  16  -5    4.04    0.82
   4 -16  -5    4.17    0.68
   4 -16  -4   27.89    1.45
  -4  16   4   25.52    1.46
  -4 -16   4   25.16    1.77
   4 -16  -4   28.05    1.40
   4  16  -4   26.94    1.79
   4 -16  -4   25.52    1.59
  -4  16   3   35.27    1.71
   4 -16  -3   34.52    1.64
  -4 -16   3   33.72    1.92
   4  16  -3   34.83    1.96
   4 -16  -3   34.60    1.57
   4 -16  -3   35.37    1.94
   4 -16  -2   12.81    1.05
  -4  16   2   11.24    1.00
   4  16  -2   12.80    1.05
  -4 -16   2   12.53    1.06
  -4 -16   2   11.14    1.10
   4  16  -2   13.25    1.21
   4 -16  -2   12.26    0.95
   4 -16  -2   10.77    1.13
  -4 -16   1    4.05    0.62
   4 -16  -1    4.19    0.66
  -4  16   1    3.67    0.64
   4  16  -1    4.91    0.64
   4  16  -1    3.69    0.68
  -4  16   1    3.57    0.71
   4 -16  -1    2.99    0.52
  -4 -16   1    4.02    0.65
   4  16   0    2.80    0.51
  -4 -16   0    2.94    0.54
  -4  16   0    2.39    0.54
   4 -16   0    3.25    0.64
  -4 -16   0    3.37    0.55
   4  16   0    2.36    0.59
  -4  16   0    3.16    0.70
   4 -16   1   55.07    2.37
  -4 -16  -1   53.15    1.90
  -4  16  -1   53.97    2.45
  -4 -16  -1   57.51    2.02
   4 -16   2    9.69    1.07
  -4 -16  -2   10.19    0.77
  -4  16  -2    9.27    1.07
  -4 -16  -2   10.48    0.82
   4 -16   3   32.19    1.96
  -4 -16  -3   33.37    1.22
  -4  16  -3   30.20    1.90
  -4 -16  -3   31.65    1.21
   4 -16   4    4.97    0.96
  -4 -16  -4    3.64    0.35
  -4  16  -4    3.86    0.80
   4 -16   5    0.85    0.68
  -4  16  -5    0.28    0.51
   4 -16   6    1.53    0.70
  -4  16  -6    1.06    0.61
   4 -16   7    7.65    1.22
  -4  16  -7    8.24    1.16
   4 -16   8    7.07    1.28
  -4  16  -8    4.88    1.02
  -4 -18   7   15.96    1.73
   4  18  -7   19.93    1.81
  -4 -18   6    2.21    0.81
   4 -18  -6    1.23    0.42
  -4  18   6    2.09    0.49
   4  18  -6    1.62    0.65
  -4 -18   5    1.88    0.77
  -4  18   5    2.05    0.52
   4 -18  -5    2.66    0.54
   4  18  -5    2.03    0.64
  -4  18   4   24.61    1.47
   4 -18  -4   24.95    1.45
   4  18  -4   22.84    1.75
  -4 -18   4   23.77    1.83
  -4  18   3   34.53    1.78
   4 -18  -3   32.39    1.70
   4  18  -3   33.79    2.07
   4 -18  -3   35.24    1.71
  -4 -18   3   31.23    1.96
  -4  18   2   11.44    1.07
   4 -18  -2   14.15    1.16
   4 -18  -2   12.64    1.03
   4  18  -2   13.63    1.30
  -4 -18   2   12.80    1.20
  -4  18   1   -0.23    0.45
   4  18  -1   -0.35    0.51
   4 -18  -1    0.10    0.34
  -4  18   1    0.90    0.51
  -4 -18   1    0.22    0.44
   4 -18  -1    0.26    0.39
   4  18   0    7.79    0.79
  -4 -18   0    6.46    0.78
  -4 -18   0    7.91    0.84
   4 -18   0    7.58    0.96
  -4  18   0    6.34    0.97
   4  18   0    6.69    0.94
   4 -18   1   64.82    2.76
  -4 -18  -1   66.57    2.31
  -4  18  -1   61.72    2.83
  -4 -18  -1   65.78    2.36
  -4  18  -2    2.67    0.72
  -4 -18  -2    2.82    0.50
   4 -18   2    3.21    0.74
   4 -18   3   45.70    2.49
  -4  18  -3   40.89    2.36
   4 -18   4    8.09    1.18
  -4  18  -4    6.02    1.03
   4 -18   5    2.37    0.82
  -4  18  -5    1.12    0.61
   4 -18   6    2.27    0.82
  -4  18  -6    2.73    0.81
  -4 -20   6    0.57    0.65
   4  20  -5   10.98    1.37
  -4 -20   5   11.96    1.46
   4 -20  -4   22.59    1.48
  -4  20   4   26.30    1.63
   4  20  -4   29.91    2.08
  -4 -20   4   25.47    1.99
  -4  20   3   31.17    1.79
   4 -20  -3   33.52    1.85
   4  20  -3   33.91    2.18
  -4 -20   3   34.63    2.25
   4 -20  -2   24.46    1.63
  -4  20   2   22.51    1.58
  -4 -20   2   25.14    1.78
   4  20  -2   25.99    1.89
  -4 -20   1    9.03    1.05
   4 -20  -1    8.31    1.02
   4  20  -1    9.20    1.16
   4 -20   0    0.20    0.50
  -4 -20   0    0.19    0.41
   4  20   0    0.42    0.47
  -4  20   0    1.04    0.63
   4 -20   1    0.36    0.55
  -4 -20  -1   -0.32    0.40
  -4  20  -1    0.36    0.55
   4 -20   2   12.12    1.35
  -4  20  -2   10.38    1.28
   4 -20   3    0.48    0.56
  -4  20  -3    0.94    0.62
   4 -20   4   -0.68    0.72
  -4  20  -4    0.66    0.60
   4 -20   5    5.06    1.13
  -4  20  -5    3.97    0.95
  -4 -22   5    0.76    0.68
  -4 -22   4    6.68    1.14
   4 -22  -3    0.61    0.56
  -4 -22   3    0.30    0.67
   4 -22  -2    7.73    1.09
  -4 -22   2   10.24    1.29
   4 -22  -1    0.86    0.60
  -4 -22   1    2.42    0.74
   4 -22   0   16.08    1.53
  -4  22   0   12.97    1.48
  -4  22  -1   -0.50    0.75
   4 -22   1   -1.00    0.79
   4 -22   2   30.08    2.17
   4 -22   3   -0.08    0.67
   4 -24  -1    2.32    0.82
   4 -24   0    2.56    0.81
  -5  -1  14    0.48    0.80
  -5   1  14    0.72    0.78
  -5   1  13    0.95    0.85
  -5  -1  13    1.00    0.81
  -5   1  12    1.73    0.64
  -5  -1  12    1.27    0.71
  -5   1  11    1.18    0.64
  -5  -1  11    1.58    0.77
  -5  -1  10    8.67    1.12
  -5   1  10    9.64    1.19
  -5  -1   9   23.41    1.67
  -5   1   9   23.59    1.65
  -5  -1   8    6.32    0.86
   5  -1  -8    6.95    0.84
  -5   1   8    5.38    0.77
   5   1  -8    5.82    0.80
   5  -1  -7    7.49    0.81
   5   1  -7    8.76    0.90
  -5  -1   7    9.14    0.96
  -5   1   7    7.25    0.85
   5   1  -6  378.09    6.78
   5  -1  -6  383.35    6.72
  -5  -1   6  376.89    6.86
  -5   1   6  383.99    6.84
  -5  -1   5   80.37    2.44
  -5   1   5   81.15    2.41
   5   1  -5   78.71    2.35
   5  -1  -5   77.47    2.33
   5  -1  -4  513.52    7.96
  -5  -1   4  522.41    8.02
  -5   1   4  528.67    8.01
   5   1  -4  509.67    7.94
   5   1  -3   83.72    2.17
  -5  -1   3   86.64    2.20
   5  -1  -3   82.63    2.19
  -5   1   3   90.61    2.07
  -5  -1   2    4.06    0.48
   5   1  -2    3.80    0.44
   5  -1  -2    4.11    0.50
  -5   1   2    3.88    0.43
   5  -1  -2    3.86    0.40
   5   1  -1   24.57    0.92
  -5   1   1   21.10    0.52
  -5  -1   1   23.02    0.79
   5  -1  -1   20.65    0.83
   5   1  -1   22.84    0.50
  -5   1   1   21.38    0.85
  -5  -1   0  178.03    2.79
  -5  -1   0  167.53    2.36
   5   1   0  177.84    2.80
   5  -1   0  181.46    2.59
   5   1   0  177.06    2.74
   5  -1   0  176.75    2.97
  -5   1   0  173.90    2.96
  -5  -1   0  177.82    2.77
   5   1   1   82.48    1.77
  -5  -1  -1   82.62    1.74
   5   1   1   82.30    1.58
   5  -1   1   90.42    1.80
  -5  -1  -1   81.57    1.55
  -5   1  -2   11.85    0.65
   5   1   2   15.11    0.58
   5  -1   2   14.30    0.71
  -5  -1  -2   14.27    0.57
  -5   1  -2   13.57    0.66
   5   1   2   15.78    0.77
   5  -1   2   12.94    0.67
   5   1   2   14.04    0.56
  -5  -1  -3    6.59    0.43
  -5   1  -3    8.65    0.56
   5  -1   3    6.66    0.53
   5  -1   3    7.21    0.55
   5   1   3    6.34    0.43
   5   1   3    6.05    0.43
   5   1   3    6.59    0.57
   5  -1   4  576.77    8.23
   5   1   4  577.13    7.94
  -5  -1  -4  572.33    7.80
  -5   1  -4  565.08    8.12
   5  -1   4  575.02    8.23
   5   1   4  573.63    7.91
   5  -1   5    2.05    0.40
   5   1   5    1.58    0.33
  -5  -1  -5    1.74    0.30
  -5   1  -5    2.23    0.37
   5  -1   5    2.71    0.45
   5   1   5    1.59    0.33
  -5   1  -6   29.17    1.27
   5   1   6   29.63    1.22
  -5  -1  -6   29.59    1.17
   5  -1   6   28.81    1.32
   5  -1   6   30.98    1.39
   5   1   6   29.89    1.27
  -5   1  -7    2.94    0.50
  -5  -1  -7    2.17    0.42
   5  -1   7    2.72    0.52
   5   1   7    1.72    0.38
   5   1   7    2.41    0.49
   5  -1   7    2.60    0.51
  -5  -1  -8    1.56    0.39
  -5   1  -8    1.25    0.42
   5  -1   8    0.58    0.37
   5   1   8    0.96    0.34
   5  -1   8    1.89    0.54
   5   1   8    0.79    0.41
  -5   1  -9    4.80    0.79
   5   1   9    5.40    0.69
  -5  -1  -9    4.49    0.63
   5   1   9    5.31    0.89
   5  -1   9    4.17    0.74
   5  -1  10    4.26    0.80
   5   1  10    5.41    0.81
   5   1  11    1.60    0.62
   5  -1  11    1.64    0.69
   5   1  11    1.60    0.64
   5  -1  12    0.59    0.67
  -5   3  14   -0.60    0.72
  -5  -3  13    1.76    0.88
  -5   3  13    1.90    0.76
  -5  -3  12    5.11    1.04
  -5   3  12    5.47    0.96
  -5  -3  11   49.63    2.79
  -5   3  11   53.33    2.69
  -5   3  11   53.56    2.49
  -5  -3  10   71.79    3.20
  -5   3  10   68.96    2.96
  -5  -3   9   40.11    2.22
   5  -3  -9   38.01    1.96
  -5   3   9   38.83    2.07
   5  -3  -8   11.82    1.06
  -5   3   8   10.84    1.08
  -5  -3   8   11.85    1.17
  -5  -3   7    5.93    0.78
   5  -3  -7    8.05    0.82
   5   3  -7    7.11    0.82
  -5   3   7    7.51    0.83
  -5   3   7    7.34    0.75
   5   3  -6   25.80    1.42
  -5  -3   6   24.82    1.44
   5  -3  -6   23.55    1.33
  -5   3   6   25.64    1.28
   5  -3  -5  149.09    3.47
   5   3  -5  147.70    3.50
  -5  -3   5  152.13    3.61
  -5   3   5  153.30    3.30
   5   3  -4    4.69    0.59
  -5  -3   4    4.49    0.62
   5  -3  -4    6.84    0.68
  -5   3   4    6.39    0.61
  -5  -3   3   15.65    0.92
   5  -3  -3   15.62    0.94
   5   3  -3   15.73    0.89
   5  -3  -3   16.52    0.86
  -5   3   3   16.11    0.87
  -5  -3   2  231.81    4.04
   5   3  -2  230.63    3.98
   5  -3  -2  238.47    4.03
  -5   3   2  239.42    4.03
  -5  -3   1  299.39    4.55
   5   3  -1  294.89    4.52
   5   3  -1  307.71    4.18
   5  -3  -1  289.08    4.08
   5  -3  -1  291.11    4.71
  -5   3   1  297.55    4.74
   5   3   0  309.99    4.43
  -5  -3   0  321.98    4.67
   5   3   0  309.72    4.31
  -5   3   0  304.94    4.29
  -5  -3   0  307.31    4.38
  -5  -3   0  313.18    4.24
  -5   3   0  307.46    4.86
   5  -3   0  312.99    4.87
  -5   3  -1   82.54    1.92
   5  -3   1   84.44    1.89
   5   3   1   83.05    1.46
   5   3   1   84.78    1.91
  -5  -3  -1   86.25    1.91
  -5  -3  -1   78.74    1.33
   5  -3   1   85.04    1.91
  -5   3  -2  118.63    2.50
   5   3   2  117.48    1.70
   5  -3   2  118.01    2.43
  -5   3  -2  117.75    2.41
   5   3   2  117.34    2.49
  -5  -3  -2  119.83    2.47
   5   3   2  114.32    1.71
   5  -3   2  117.64    2.48
   5  -3   3   14.74    0.85
  -5   3  -3   14.48    0.80
   5  -3   3   15.79    0.87
  -5   3  -3   14.29    0.85
   5   3   3   13.90    0.48
   5   3   3   13.92    0.84
   5   3   3   14.03    0.49
  -5   3  -4   10.79    0.73
   5  -3   4   11.71    0.80
   5   3   4    8.82    0.47
   5  -3   4    9.39    0.74
  -5  -3  -4    9.00    0.44
   5   3   4    8.55    0.72
   5   3   4    8.90    0.48
  -5  -3  -5   20.58    0.76
   5   3   5   20.26    0.81
   5  -3   5   20.30    1.13
  -5   3  -5   19.34    1.06
   5  -3   5   19.94    1.11
   5   3   5   20.66    1.14
   5   3   5   19.89    0.83
  -5  -3  -6    2.93    0.34
  -5   3  -6    2.97    0.49
   5   3   6    2.72    0.36
   5  -3   6    4.27    0.59
   5   3   6    3.23    0.54
   5  -3   6    3.48    0.57
   5   3   6    3.17    0.40
  -5   3  -7    1.42    0.42
  -5  -3  -7    0.80    0.28
   5  -3   7    1.56    0.43
   5   3   7    1.17    0.30
   5   3   7    1.61    0.51
   5  -3   7    1.06    0.50
   5   3   7    1.24    0.39
  -5   3  -8    5.40    0.72
  -5  -3  -8    4.10    0.50
   5   3   8    4.17    0.54
   5  -3   8    4.45    0.69
   5   3   8    3.29    0.64
   5   3   8    4.52    0.60
   5  -3   8    5.27    0.79
  -5  -3  -9   18.12    1.06
   5   3   9   17.39    1.09
   5   3   9   20.03    1.28
   5  -3   9   18.40    1.46
   5   3   9   18.68    1.43
   5  -3  10   13.29    1.32
   5   3  10    7.59    0.92
   5   3  10    9.23    1.10
   5  -3  11    2.27    0.72
   5   3  11    4.02    0.81
   5  -3  12    0.16    0.70
  -5   5  14    0.71    0.67
  -5  -5  13    1.12    0.77
  -5   5  13    1.14    0.66
  -5   5  13    0.90    0.66
  -5  -5  12    1.29    0.76
  -5   5  12    1.68    0.58
  -5   5  12    1.85    0.63
  -5  -5  11   13.52    1.57
  -5   5  11   13.10    1.15
  -5   5  11   12.59    1.23
  -5  -5  10    1.83    0.68
  -5   5  10    3.28    0.71
  -5  -5   9   14.59    1.40
   5  -5  -9   13.63    1.20
  -5   5   9   14.77    1.18
  -5  -5   8    7.57    1.02
   5  -5  -8    7.37    0.83
  -5   5   8    7.44    0.84
   5   5  -7   64.96    2.48
  -5  -5   7   62.08    2.54
   5  -5  -7   64.01    2.33
  -5   5   7   64.26    2.21
   5   5  -6   10.81    0.99
   5  -5  -6   10.30    0.89
  -5  -5   6   10.89    1.01
  -5   5   6   11.11    0.87
   5  -5  -5  322.98    5.87
  -5  -5   5  329.43    6.13
   5   5  -5  323.68    6.00
  -5   5   5  318.83    4.86
  -5   5   5  327.83    5.65
   5   5  -4   45.19    1.69
   5  -5  -4   40.85    1.65
  -5  -5   4   44.35    1.74
  -5   5   4   42.69    1.09
  -5   5   4   46.78    1.61
   5   5  -3  601.10    8.71
  -5  -5   3  597.46    8.77
  -5   5   3  579.14    7.42
  -5   5   3  593.15    8.58
   5  -5  -3  570.26    8.56
   5   5  -2   99.56    2.30
  -5  -5   2  103.96    2.40
   5  -5  -2  103.94    2.10
  -5   5   2  103.52    2.43
   5  -5  -2   98.20    2.43
   5   5  -2  106.56    2.17
   5   5  -1   33.58    1.09
  -5  -5   1   34.75    1.14
  -5   5   1   33.21    1.06
   5  -5  -1   33.74    1.03
   5   5  -1   34.02    1.08
  -5  -5   1   34.30    1.11
  -5   5   1   34.23    1.27
   5  -5  -1   34.61    1.30
  -5   5   0    2.24    0.39
   5  -5   0    2.59    0.39
  -5  -5   0    2.31    0.30
   5   5   0    1.99    0.27
   5   5   0    2.72    0.34
  -5  -5   0    2.48    0.36
  -5   5   0    2.28    0.34
  -5  -5   0    2.36    0.34
   5  -5   0    2.78    0.40
   5  -5   0    2.42    0.30
   5  -5   1    1.35    0.36
   5  -5   1    0.69    0.31
  -5   5  -1    0.46    0.31
   5   5   1    0.71    0.15
   5   5   1    0.26    0.27
  -5  -5  -1    0.54    0.26
  -5  -5  -1    0.43    0.22
  -5   5  -1    0.88    0.28
   5  -5   2    4.16    0.50
  -5   5  -2    4.60    0.50
  -5   5  -2    4.77    0.54
  -5  -5  -2    5.12    0.54
   5   5   2    4.42    0.52
   5  -5   2    5.23    0.56
  -5   5  -3  178.96    3.55
   5  -5   3  172.64    3.57
  -5   5  -3  172.79    3.59
   5  -5   3  173.29    3.64
  -5  -5  -3  173.47    3.51
   5   5   3  172.73    3.54
   5  -5   4    2.18    0.43
   5   5   4    1.83    0.16
  -5   5  -4    2.32    0.47
   5   5   4    2.17    0.47
   5  -5   4    2.34    0.51
  -5  -5  -5  131.56    2.06
   5  -5   5  130.21    3.33
  -5   5  -5  134.02    3.23
   5   5   5  133.16    2.22
   5  -5   5  137.73    3.39
   5   5   5  137.49    3.30
   5   5   5  128.73    2.23
   5  -5   6    1.57    0.45
   5   5   6    1.49    0.26
  -5   5  -6    0.75    0.37
  -5  -5  -6    1.70    0.24
   5   5   6    1.91    0.50
   5  -5   6    1.84    0.53
   5   5   6    2.33    0.33
   5  -5   7    2.22    0.54
  -5  -5  -7    1.14    0.25
   5   5   7    1.32    0.26
  -5   5  -7    1.97    0.50
   5   5   7    1.80    0.53
   5   5   7    0.93    0.29
   5  -5   7    2.07    0.55
  -5  -5  -8    1.17    0.30
   5   5   8    0.60    0.27
   5   5   8    0.67    0.47
   5   5   8    1.36    0.39
   5  -5   8    1.06    0.56
   5   5   9    7.32    0.66
  -5  -5  -9    7.57    0.64
   5   5   9    7.42    0.74
   5  -5   9    6.78    0.97
   5   5   9    8.44    1.02
   5  -5  10    0.48    0.55
   5   5  10    0.47    0.40
   5   5  10   -0.08    0.47
   5  -5  11    0.95    0.72
   5   5  11    0.80    0.58
   5  -5  12    1.54    0.83
   5  -5  13   -0.36    0.94
  -5   7  13    0.23    0.54
  -5  -7  12    5.93    1.24
  -5   7  12    4.02    0.90
  -5   7  12    6.84    1.00
  -5  -7  11   10.24    1.45
  -5   7  11   11.38    1.10
  -5   7  11   10.07    1.10
  -5  -7  10    9.60    1.34
  -5   7  10   11.57    1.03
  -5   7  10    9.23    1.03
   5  -7  -9    0.67    0.44
  -5  -7   9    1.16    0.64
  -5   7   9    0.57    0.38
  -5   7   9    1.53    0.50
  -5  -7   8    8.22    1.07
   5  -7  -8    9.49    0.95
  -5   7   8    8.13    0.74
  -5   7   8    9.59    0.92
   5  -7  -7   47.07    2.00
  -5  -7   7   47.96    2.31
  -5   7   7   50.80    1.68
  -5   7   7   50.68    1.99
   5  -7  -6    7.37    0.80
   5   7  -6    7.71    0.83
  -5  -7   6    7.47    0.90
  -5   7   6    7.85    0.61
  -5   7   6    7.47    0.74
   5  -7  -5  183.77    4.10
  -5  -7   5  183.04    4.32
   5   7  -5  187.71    4.21
  -5   7   5  179.10    3.21
  -5   7   5  183.36    3.91
  -5  -7   4   55.54    2.05
   5   7  -4   58.13    2.00
  -5   7   4   56.77    1.34
   5  -7  -4   56.40    1.89
  -5   7   4   56.94    1.92
  -5  -7   3   41.07    1.64
   5   7  -3   41.37    1.57
   5  -7  -3   40.34    1.43
   5   7  -3   41.51    1.52
   5  -7  -3   41.50    1.58
  -5   7   3   42.96    1.58
  -5  -7   2  187.92    3.66
   5   7  -2  185.67    3.55
   5  -7  -2  183.94    3.44
   5  -7  -2  181.58    2.74
   5   7  -2  186.22    3.50
  -5   7   2  182.94    3.64
   5  -7  -2  178.44    3.74
   5  -7  -1  476.51    7.13
   5   7  -1  473.14    6.89
  -5  -7   1  479.42    7.01
  -5   7   1  469.38    7.07
   5   7  -1  487.78    7.10
   5  -7  -1  479.25    7.02
   5  -7  -1  492.51    7.53
  -5  -7   1  471.66    7.16
  -5   7   1  464.36    7.26
  -5   7   0  205.65    3.99
   5  -7   0  212.29    3.90
   5   7   0  210.92    3.35
  -5  -7   0  210.15    3.45
   5   7   0  214.83    3.79
  -5   7   0  203.17    3.77
  -5  -7   0  207.67    3.78
  -5  -7   0  209.92    3.86
   5  -7   0  206.57    4.03
   5  -7   0  205.37    3.69
   5  -7   1    1.88    0.42
  -5   7  -1    2.29    0.45
   5   7   1    1.80    0.20
   5  -7   1    2.24    0.46
  -5  -7  -1    1.64    0.18
  -5  -7  -1    1.50    0.23
  -5  -7  -1    1.44    0.32
  -5  -7  -1    1.34    0.33
  -5   7  -1    1.63    0.35
  -5   7  -2  100.15    2.64
   5  -7   2  107.21    2.67
  -5   7  -2  110.47    2.66
  -5  -7  -2  110.59    2.68
   5   7   2  105.31    2.58
  -5  -7  -2  106.68    2.56
   5  -7   2  100.32    2.68
  -5   7  -2  104.50    2.51
  -5   7  -3   91.62    2.51
  -5   7  -3   89.47    2.57
   5  -7   3   89.58    2.54
   5  -7   3   90.63    2.60
  -5  -7  -3   90.23    2.46
   5   7   3   88.03    2.44
  -5   7  -4    1.29    0.39
   5  -7   4    1.45    0.40
  -5  -7  -4    1.06    0.38
   5   7   4    1.26    0.42
   5  -7   4    2.00    0.52
   5  -7   5  128.37    3.48
  -5   7  -5  127.59    3.33
   5  -7   5  124.38    3.41
   5   7   5  126.47    3.29
  -5   7  -6    1.84    0.49
   5   7   6    1.37    0.20
   5  -7   6    1.49    0.48
   5  -7   6    1.21    0.54
   5   7   6    1.06    0.43
   5   7   6    1.93    0.24
   5   7   7    8.29    0.48
  -5  -7  -7    6.31    0.38
   5  -7   7    7.50    0.95
   5   7   7    8.05    0.90
   5   7   7    7.44    0.55
  -5  -7  -8    2.91    0.32
   5   7   8    2.98    0.37
   5  -7   8    2.87    0.77
   5   7   8    3.78    0.72
   5   7   8    3.41    0.41
   5  -7   9    8.72    1.15
   5   7   9    9.10    1.07
   5   7   9    7.18    0.62
   5  -7  10    2.18    0.76
   5   7  10    2.52    0.72
   5  -7  11    1.66    0.80
   5   7  11    0.44    0.48
   5  -7  12   -0.39    0.64
  -5   9  12    3.46    0.81
  -5   9  12    4.94    0.88
  -5  -9  11    7.67    1.28
  -5   9  11    6.25    0.86
  -5   9  11    5.86    0.88
  -5  -9  10   24.11    2.04
  -5   9  10   22.07    1.41
  -5   9  10   27.02    1.69
  -5  -9   9   12.89    1.44
   5  -9  -9   14.73    1.23
  -5   9   9   14.76    1.10
  -5   9   9   14.38    1.21
   5  -9  -8    4.00    0.71
  -5  -9   8    4.75    0.96
  -5   9   8    3.41    0.54
  -5   9   8    3.56    0.62
  -5  -9   7    2.64    0.73
   5  -9  -7    2.04    0.53
  -5   9   7    1.98    0.42
  -5   9   7    1.95    0.49
  -5  -9   6   41.81    2.10
   5  -9  -6   40.11    1.82
  -5   9   6   40.12    1.41
  -5   9   6   42.10    1.79
  -5  -9   5    2.75    0.59
   5   9  -5    3.41    0.58
  -5   9   5    2.81    0.36
   5  -9  -5    3.27    0.51
   5  -9  -5    3.04    0.50
  -5   9   5    3.43    0.56
   5   9  -4    9.62    0.82
  -5  -9   4    8.07    0.87
   5  -9  -4    8.61    0.77
   5   9  -4    9.74    0.83
  -5   9   4    8.80    0.78
   5  -9  -4    8.15    0.77
   5   9  -3   53.76    1.89
  -5  -9   3   55.18    2.00
   5   9  -3   51.17    1.81
   5  -9  -3   52.45    1.29
   5  -9  -3   53.90    1.82
  -5   9   3   51.91    1.82
   5  -9  -3   51.19    1.90
   5  -9  -2   50.05    1.66
   5   9  -2   50.51    1.68
  -5  -9   2   49.16    1.74
   5  -9  -2   50.13    1.71
   5   9  -2   50.10    1.74
   5  -9  -2   47.82    1.25
   5  -9  -2   48.40    1.85
  -5   9   2   49.48    1.74
   5   9  -1  358.24    5.64
   5  -9  -1  362.14    5.93
  -5  -9   1  351.40    5.77
  -5   9   1  348.51    5.99
   5  -9  -1  358.54    5.92
   5   9  -1  363.28    6.00
   5  -9  -1  365.93    6.32
  -5  -9   1  354.11    6.09
  -5   9   1  360.48    6.10
  -5   9   0   99.50    2.67
   5  -9   0   97.06    2.56
  -5  -9   0  103.15    2.13
   5   9   0  103.18    2.14
  -5  -9   0  102.06    2.25
  -5  -9   0  107.30    2.71
  -5  -9   0  105.02    2.54
   5   9   0  102.90    2.58
  -5   9   0   99.84    2.62
   5  -9   0  100.49    2.73
   5  -9   0   99.29    2.50
   5  -9   1  391.65    6.59
  -5   9  -1  391.73    6.66
   5   9   1  394.33    5.46
  -5  -9  -1  385.51    5.61
  -5  -9  -1  391.39    6.58
  -5  -9  -1  404.77    6.55
  -5   9  -1  386.88    6.51
  -5  -9  -1  402.59    5.50
   5  -9   1  394.34    6.71
  -5   9  -2   20.40    1.21
   5  -9   2   20.02    1.20
  -5   9  -2   20.51    1.16
  -5  -9  -2   19.98    0.61
  -5  -9  -2   22.41    1.20
  -5  -9  -2   21.19    1.15
  -5   9  -2   20.14    1.14
   5  -9   2   20.86    1.23
  -5  -9  -2   20.12    0.58
   5  -9   3    7.48    0.77
  -5   9  -3    7.90    0.78
   5  -9   3    6.44    0.74
  -5  -9  -3    7.90    0.77
  -5  -9  -3    7.38    0.72
   5   9   3    7.54    0.74
  -5   9  -3    8.11    0.80
   5  -9   4   18.33    1.26
   5  -9   4   15.09    1.14
  -5   9  -4   14.87    1.11
  -5  -9  -4   16.94    1.10
  -5  -9  -4   16.93    1.12
   5   9   4   15.85    1.09
   5  -9   5    9.62    1.00
   5   9   5    9.89    0.92
   5  -9   6   13.17    1.20
   5   9   6   15.57    1.20
   5   9   7    0.29    0.10
   5  -9   7    0.66    0.55
   5   9   7    0.04    0.39
   5   9   7    0.42    0.10
   5  -9   8    6.06    0.98
   5   9   8    3.39    0.75
   5   9   8    3.86    0.32
   5  -9   9    6.46    1.07
   5   9   9    8.02    1.05
   5  -9  10    4.75    1.06
   5   9  10    4.34    0.88
   5  -9  11    0.71    0.73
   5   9  11    1.21    0.64
  -5 -11  11    0.66    0.66
  -5  11  11    0.36    0.44
  -5  11  11    0.08    0.46
  -5 -11  10   17.49    1.84
  -5  11  10   14.45    1.17
  -5  11  10   16.01    1.31
  -5 -11   9    3.02    0.91
  -5  11   9    2.79    0.54
  -5  11   9    3.19    0.65
  -5 -11   8    5.20    1.00
   5 -11  -8    3.88    0.68
  -5  11   8    4.78    0.61
  -5  11   8    4.07    0.66
   5 -11  -7   19.04    1.33
  -5 -11   7   25.07    1.80
  -5  11   7   23.76    1.18
  -5  11   7   22.24    1.38
   5 -11  -6  273.84    5.75
  -5 -11   6  277.58    6.39
  -5  11   6  280.00    4.82
  -5  11   6  290.85    5.63
  -5 -11   5    7.60    0.93
   5 -11  -5    6.96    0.78
   5  11  -5    7.15    0.82
   5 -11  -5    5.97    0.72
  -5  11   5    7.51    0.76
   5  11  -4  194.30    4.37
  -5 -11   4  183.96    4.50
   5 -11  -4  195.50    4.29
   5 -11  -4  185.81    3.33
   5  11  -4  191.68    4.33
  -5  11   4  181.65    4.04
   5 -11  -4  178.70    4.18
   5  11  -3   45.62    1.80
   5 -11  -3   43.10    1.62
  -5 -11   3   43.86    1.88
   5  11  -3   43.70    1.81
   5 -11  -3   44.49    1.33
   5 -11  -3   43.36    1.78
   5 -11  -3   43.09    1.86
  -5  11   3   41.30    1.69
  -5  11   2    1.09    0.39
   5 -11  -2    1.42    0.38
  -5 -11   2    0.95    0.36
  -5 -11   2    0.72    0.38
   5  11  -2    1.23    0.36
   5 -11  -2    1.91    0.31
   5 -11  -2    1.36    0.39
   5 -11  -2    1.93    0.46
   5  11  -2    1.28    0.39
   5  11  -1   11.37    0.77
  -5 -11   1   10.86    0.76
   5 -11  -1   10.95    0.84
  -5  11   1   10.59    0.88
  -5 -11   1   10.40    0.80
   5 -11  -1   12.99    0.94
  -5  11   1   12.23    0.97
   5  11  -1   10.08    0.85
   5 -11  -1   12.06    0.99
  -5 -11   1   12.75    0.97
  -5  11   0   33.88    1.57
  -5 -11   0   35.42    1.25
   5 -11   0   32.63    1.49
   5  11   0   34.93    1.21
  -5 -11   0   33.65    1.28
   5  11   0   33.20    1.51
  -5 -11   0   33.51    1.57
  -5 -11   0   35.00    1.46
  -5  11   0   33.00    1.57
   5 -11   0   32.09    1.56
   5 -11   0   34.79    1.52
  -5  11  -1   25.84    1.38
   5  11   1   24.18    0.90
   5 -11   1   22.57    1.29
  -5 -11  -1   23.39    0.95
  -5  11  -1   22.19    1.28
  -5 -11  -1   24.79    1.34
  -5 -11  -1   23.57    1.25
  -5 -11  -1   25.08    0.95
   5 -11   1   26.73    1.45
   5 -11   2   14.00    1.07
  -5  11  -2   15.85    1.15
  -5  11  -2   14.68    1.06
  -5 -11  -2   13.50    0.61
  -5 -11  -2   14.92    1.06
  -5  11  -2   14.00    1.04
  -5 -11  -2   13.25    1.00
  -5 -11  -2   13.09    0.61
   5 -11   2   15.82    1.15
   5 -11   3    4.24    0.67
  -5  11  -3    4.99    0.69
   5 -11   3    5.04    0.74
  -5 -11  -3    4.81    0.63
  -5 -11  -3    5.21    0.65
  -5  11  -3    3.56    0.61
   5 -11   4  161.97    4.27
  -5 -11  -4  169.21    4.09
  -5  11  -4  162.84    4.11
   5 -11   5    2.31    0.64
   5  11   5    2.00    0.53
   5 -11   6   27.26    1.79
   5  11   6   29.45    1.67
   5 -11   7    3.21    0.81
   5  11   7    2.93    0.70
   5 -11   8    0.32    0.59
   5  11   8    0.02    0.44
   5 -11   9    1.37    0.71
   5  11   9    0.92    0.59
   5 -11  10   11.07    1.49
   5  11  10   10.61    1.27
  -5 -13  10    7.11    1.30
  -5  13  10    7.01    0.87
  -5 -13   9   12.75    1.59
  -5  13   9   12.01    0.98
  -5  13   9   12.70    1.13
  -5 -13   8    0.68    0.66
  -5  13   8    1.08    0.40
  -5  13   8    0.66    0.39
  -5 -13   7    3.58    0.91
   5 -13  -7    3.46    0.68
   5  13  -7    3.52    0.75
  -5  13   7    3.48    0.63
  -5 -13   6   31.14    2.00
   5 -13  -6   25.95    1.60
   5  13  -6   30.07    1.79
   5 -13  -6   26.35    1.48
  -5  13   6   29.85    1.55
  -5 -13   5    0.36    0.46
  -5  13   5    0.27    0.34
   5 -13  -5    0.53    0.32
   5  13  -5    0.98    0.50
   5 -13  -5    0.42    0.37
  -5 -13   4   37.46    1.85
   5 -13  -4   36.70    1.58
  -5 -13   4   35.42    1.91
   5  13  -4   36.49    1.83
   5 -13  -4   34.93    1.30
  -5  13   4   35.68    1.65
   5 -13  -4   33.41    1.73
  -5  13   3    1.88    0.46
   5 -13  -3    1.40    0.38
   5  13  -3    2.25    0.51
  -5 -13   3    1.33    0.46
  -5 -13   3    0.68    0.43
   5 -13  -3    1.88    0.35
   5 -13  -3    1.14    0.44
   5  13  -3    1.25    0.45
  -5 -13   2    6.72    0.69
   5  13  -2    7.86    0.75
   5 -13  -2    7.90    0.76
  -5  13   2    7.96    0.79
  -5 -13   2    7.70    0.85
   5  13  -2    6.42    0.77
   5 -13  -2    8.95    0.68
   5 -13  -2    7.88    0.80
   5 -13  -2    8.61    0.90
   5 -13  -1   88.62    2.66
  -5  13   1   87.94    2.72
   5  13  -1   87.95    2.40
  -5 -13   1   87.71    2.45
  -5 -13   1   89.65    2.60
  -5  13   1   85.70    2.82
   5  13  -1   84.99    2.74
   5 -13  -1   91.55    2.81
   5 -13  -1   92.19    2.95
  -5 -13   1   95.20    2.96
  -5  13   0   72.53    2.47
   5 -13   0   70.58    2.41
   5  13   0   72.53    2.00
  -5 -13   0   73.63    2.08
  -5 -13   0   72.06    2.14
  -5  13   0   69.81    2.50
  -5 -13   0   74.32    2.61
   5  13   0   72.17    2.50
  -5 -13   0   73.58    2.35
   5 -13   0   76.15    2.51
   5 -13   0   76.58    2.63
  -5  13  -1   62.46    2.38
   5 -13   1   59.83    2.30
   5  13   1   64.57    1.73
  -5 -13  -1   66.56    1.87
  -5  13  -1   63.19    2.40
  -5 -13  -1   65.85    2.29
   5 -13   1   63.51    2.42
  -5 -13  -1   67.87    1.85
   5 -13   2    1.54    0.53
  -5 -13  -2    1.59    0.31
  -5  13  -2    1.36    0.45
  -5 -13  -2    1.49    0.27
  -5  13  -2    0.59    0.40
   5 -13   3   15.13    1.25
  -5 -13  -3   15.72    0.61
  -5  13  -3   15.55    1.22
  -5 -13  -3   15.43    0.58
   5 -13   4   66.68    2.73
  -5  13  -4   68.53    2.67
   5 -13   5    5.38    0.90
  -5  13  -5    5.96    0.88
   5 -13   6    4.07    0.90
   5  13   6    2.91    0.65
  -5  13  -6    2.58    0.70
   5 -13   7    3.81    0.87
   5  13   7    4.65    0.80
   5 -13   8    1.84    0.89
   5  13   8   -0.37    0.56
   5 -13   9    3.52    0.95
   5  13   9    2.46    0.74
   5  13  10    0.39    0.50
  -5 -15   9    4.81    1.12
   5  15  -9    4.34    0.88
  -5 -15   8    0.73    0.75
  -5  15   8    0.83    0.39
   5 -15  -8    1.75    0.48
   5  15  -8    1.37    0.59
  -5 -15   7    7.93    1.26
   5 -15  -7   10.78    0.92
  -5  15   7    8.98    0.90
   5  15  -7    7.99    1.13
  -5 -15   6    2.37    0.77
  -5  15   6    3.43    0.60
   5 -15  -6    3.87    0.59
   5 -15  -6    2.88    0.60
   5  15  -6    2.00    0.61
   5 -15  -5   46.63    1.88
  -5 -15   5   50.85    2.56
   5  15  -5   48.05    2.33
   5 -15  -5   43.52    2.05
  -5  15   5   48.63    2.03
   5 -15  -4    0.48    0.33
  -5  15   4    0.51    0.36
  -5 -15   4    0.51    0.43
   5 -15  -4    0.58    0.30
   5 -15  -4    0.48    0.39
   5  15  -4    0.62    0.49
   5 -15  -3    7.53    0.80
  -5  15   3    7.33    0.83
  -5 -15   3    7.08    0.90
   5 -15  -3    7.46    0.70
   5  15  -3    6.35    0.84
   5 -15  -3    5.38    0.80
  -5  15   2  158.09    3.99
   5 -15  -2  155.58    3.84
   5  15  -2  155.01    3.79
  -5 -15   2  155.35    3.85
  -5 -15   2  154.67    4.04
   5  15  -2  151.47    4.13
   5 -15  -2  156.89    3.47
   5 -15  -2  159.50    4.36
   5  15  -1   56.70    1.99
  -5  15   1   53.66    2.20
  -5 -15   1   56.19    2.05
   5 -15  -1   51.30    2.12
  -5 -15   1   56.61    2.15
  -5  15   1   53.56    2.35
   5  15  -1   52.97    2.28
   5  15   0  132.54    3.09
  -5  15   0  132.79    3.72
   5 -15   0  131.05    3.65
  -5 -15   0  133.24    3.29
   5  15   0  132.26    3.77
  -5  15   0  125.51    3.77
  -5 -15   0  135.74    3.24
   5 -15   1   29.12    1.68
  -5  15  -1   24.91    1.58
  -5 -15  -1   30.41    1.33
  -5  15  -1   25.67    1.64
  -5 -15  -1   31.25    1.35
   5 -15   2   34.45    1.89
  -5 -15  -2   34.27    1.29
  -5  15  -2   33.50    1.88
  -5 -15  -2   34.42    1.32
   5 -15   3    4.65    0.82
  -5 -15  -3    3.89    0.38
  -5 -15  -3    3.23    0.33
  -5  15  -3    4.23    0.76
   5 -15   4    0.02    0.56
  -5  15  -4    0.89    0.55
   5 -15   5   13.88    1.41
  -5  15  -5   15.88    1.43
   5 -15   6    6.44    1.26
  -5  15  -6    7.25    1.04
   5 -15   7    6.98    1.21
  -5  15  -7    4.83    0.97
   5 -15   8    2.71    0.80
  -5  15  -8    3.37    0.75
   5  15   9    5.26    1.13
  -5 -17   8   -0.47    0.71
   5  17  -8    1.09    0.56
   5 -17  -7   24.37    1.41
  -5 -17   7   22.57    2.00
   5  17  -7   19.06    1.70
  -5  17   7   24.54    1.49
  -5 -17   6    1.08    0.76
  -5  17   6    0.45    0.35
   5 -17  -6    1.68    0.48
   5  17  -6    1.40    0.60
   5 -17  -5   78.84    2.61
  -5  17   5   72.73    2.64
   5  17  -5   79.31    3.24
  -5 -17   5   81.73    3.43
  -5  17   4   -0.05    0.41
   5 -17  -4    0.49    0.34
   5  17  -4    0.60    0.64
   5 -17  -4    0.91    0.37
  -5 -17   4   -0.05    0.52
   5 -17  -3   17.26    1.26
  -5  17   3   15.98    1.22
   5 -17  -3   17.12    1.13
   5  17  -3   17.91    1.48
  -5 -17   3   17.83    1.45
  -5  17   2    0.66    0.38
   5 -17  -2    1.29    0.48
  -5 -17   2    0.74    0.50
   5 -17  -2    2.01    0.47
   5  17  -2    1.52    0.55
  -5  17   1   57.84    2.43
   5  17  -1   59.07    2.18
   5 -17  -1   59.14    2.42
  -5 -17   1   59.39    2.35
   5 -17  -1   59.15    2.10
   5  17  -1   57.76    2.54
  -5  17   1   55.03    2.55
  -5 -17   1   58.37    2.26
  -5 -17   0    3.41    0.59
  -5  17   0    3.73    0.68
   5  17   0    3.79    0.55
   5 -17   0    4.32    0.73
  -5 -17   0    3.80    0.63
   5  17   0    3.13    0.64
  -5  17   0    3.22    0.72
   5 -17   1    2.73    0.68
  -5 -17  -1    3.03    0.54
  -5  17  -1    2.38    0.74
  -5 -17  -1    2.05    0.48
   5 -17   2    0.20    0.54
  -5 -17  -2   -0.02    0.34
  -5  17  -2    0.58    0.48
  -5 -17  -2    1.12    0.35
   5 -17   3   33.32    2.08
  -5 -17  -3   31.38    1.18
  -5  17  -3   29.37    1.93
   5 -17   4    1.32    0.68
  -5  17  -4    1.74    0.72
   5 -17   5   49.03    2.75
  -5  17  -5   53.55    2.74
   5 -17   6    1.21    0.71
  -5  17  -6    2.31    0.74
   5 -17   7    6.92    1.22
  -5  17  -7    4.33    0.99
  -5 -19   7    8.71    1.36
  -5 -19   6    0.73    0.65
  -5  19   6    1.04    0.48
   5  19  -6    0.43    0.64
   5 -19  -5   19.90    1.37
  -5  19   5   18.82    1.38
   5  19  -5   23.39    1.87
  -5 -19   5   18.76    1.78
   5 -19  -4    0.90    0.48
  -5  19   4    0.07    0.40
   5  19  -4    1.13    0.54
  -5 -19   4    0.09    0.62
  -5  19   3    1.11    0.50
   5 -19  -3    1.90    0.57
   5  19  -3    0.22    0.49
  -5 -19   3    1.31    0.73
   5 -19  -2   14.50    1.25
  -5  19   2   14.10    1.26
   5  19  -2   16.78    1.47
  -5 -19   2   15.01    1.33
   5 -19  -1   25.16    1.67
  -5  19   1   26.96    1.76
  -5  19   1   25.36    1.83
   5  19  -1   28.32    1.91
  -5 -19   1   26.76    1.67
   5 -19   0   36.27    2.06
  -5  19   0   33.01    2.12
   5  19   0   33.74    2.07
  -5 -19   0   35.47    1.81
   5 -19   1   21.83    1.66
  -5 -19  -1   23.28    1.36
  -5  19  -1   19.06    1.63
   5 -19   2   10.41    1.24
  -5  19  -2   11.18    1.30
   5 -19   3    2.79    0.79
  -5  19  -3    4.13    0.91
   5 -19   4    2.52    0.86
  -5  19  -4    0.99    0.61
   5 -19   5    9.04    1.32
  -5  19  -5    8.19    1.19
  -5 -21   5    0.38    0.62
  -5  21   4    9.04    1.07
  -5 -21   4    9.33    1.34
   5 -21  -4   10.02    1.07
  -5  21   3    3.57    0.74
   5  21  -3    5.11    1.02
   5 -21  -3    5.55    0.92
  -5 -21   3    4.33    0.97
  -5  21   2    1.88    0.62
   5  21  -2    2.45    0.70
  -5 -21   2    2.41    0.74
   5 -21  -2    4.22    0.87
   5  21  -1    9.65    1.23
   5 -21  -1    9.52    1.18
  -5 -21   1    7.84    1.03
   5 -21   0   20.56    1.71
  -5  21   0   20.77    1.78
  -5 -21   0   23.45    1.59
   5 -21   1   16.18    1.54
  -5  21  -1   14.97    1.54
   5 -21   2    0.00    0.56
  -5  21  -2    0.63    0.67
   5 -21   3    2.90    0.87
  -5  21  -3    1.88    0.80
  -5 -23   4   11.97    1.52
  -5 -23   3    1.28    0.72
   5 -23  -2   -0.87    0.73
   5 -23  -1    1.98    0.75
   5 -23   0   11.08    1.34
   5 -23   1    0.83    0.62
  -6   0  14    5.84    1.29
  -6   0  13    1.12    0.79
  -6   0  12   11.54    1.49
  -6   0  11   -0.29    0.65
  -6   0  10   20.97    1.72
  -6   0   9   -0.54    0.63
   6   0  -8   23.18    1.49
  -6   0   8   20.14    1.49
   6   0  -7    1.72    0.51
  -6   0   7    0.14    0.44
   6   0  -6    6.15    0.72
  -6   0   6    5.39    0.73
   6   0  -5    0.89    0.37
  -6   0   5    1.16    0.48
   6   0  -4 1037.92   14.43
  -6   0   4 1050.38   14.47
   6   0  -3    1.43    0.42
  -6   0   3    1.25    0.43
  -6   0   3    1.60    0.36
   6   0  -2 1192.93   16.00
  -6   0   2 1239.77   15.68
  -6   0   1    0.60    0.16
  -6   0   1    0.41    0.27
   6   0  -1    0.61    0.24
  -6   0   0  195.51    3.03
   6   0   0  198.83    3.07
  -6   0   0  196.93    3.27
   6   0   0  193.86    3.23
   6   0   1    6.02    0.44
  -6   0  -1    6.29    0.44
   6   0   1    6.24    0.45
  -6   0  -2   69.24    1.57
   6   0   2   67.98    1.54
   6   0   2   71.35    1.70
   6   0   2   66.35    1.55
   6   0   3    3.12    0.38
   6   0   3    4.03    0.41
  -6   0  -3    4.31    0.41
  -6   0  -4   44.22    1.34
   6   0   4   45.53    1.41
   6   0   4   46.49    1.42
   6   0   5    3.22    0.45
  -6   0  -5    3.36    0.41
   6   0   5    4.05    0.48
   6   0   6   36.08    1.46
   6   0   6   36.11    1.43
  -6   0  -6   34.18    1.34
   6   0   7    1.51    0.40
  -6   0  -7    1.50    0.41
   6   0   7    1.15    0.37
   6   0   8   38.11    1.77
   6   0   8   34.57    1.61
  -6   0  -8   36.84    1.57
   6   0   9    3.01    0.65
  -6   0  -9    2.22    0.52
   6   0   9    2.74    0.59
   6   0  10    1.62    0.52
   6   0  11    0.40    0.51
  -6   2  14    3.04    0.83
  -6   2  13   -0.56    0.86
  -6  -2  13   -0.46    0.79
  -6   2  13   -0.19    0.52
  -6   2  12    5.03    1.02
  -6  -2  12    4.31    1.07
  -6   2  12    5.60    1.00
  -6  -2  11    4.47    0.94
  -6   2  11    3.97    0.90
  -6   2  10    4.68    0.91
  -6  -2  10    2.30    0.66
  -6   2   9   11.81    1.20
  -6  -2   9   11.06    1.26
   6   2  -8   88.02    3.04
  -6   2   8   84.42    3.01
  -6  -2   8   79.58    3.03
   6  -2  -8   86.84    2.95
   6   2  -7  111.65    3.27
  -6  -2   7  108.34    3.38
  -6   2   7  108.01    3.26
   6  -2  -7  107.58    3.18
  -6  -2   6   26.02    1.50
   6   2  -6   24.03    1.39
  -6   2   6   25.60    1.46
   6  -2  -6   24.38    1.38
   6  -2  -5   13.10    1.00
  -6  -2   5   13.95    1.04
   6   2  -5   12.83    0.97
  -6   2   5   14.27    0.92
  -6  -2   4  251.50    4.77
   6  -2  -4  242.61    4.71
   6   2  -4  251.55    4.72
  -6   2   4  244.68    4.44
   6  -2  -3   11.37    0.83
  -6  -2   3    9.96    0.79
   6   2  -3    9.62    0.73
  -6   2   3   10.95    0.72
   6   2  -2  571.86    8.25
  -6  -2   2  587.39    8.30
   6  -2  -2  567.34    8.20
  -6   2   2  567.57    8.16
   6   2  -1   33.74    1.14
  -6   2   1   32.93    0.65
   6   2  -1   33.79    0.76
   6  -2  -1   32.50    0.69
  -6  -2   1   36.04    1.04
   6  -2  -1   37.99    1.23
  -6   2   1   33.85    1.21
   6   2   0    2.57    0.33
   6   2   0    2.88    0.35
  -6   2   0    2.62    0.21
  -6  -2   0    2.30    0.31
  -6  -2   0    2.24    0.21
   6  -2   0    2.63    0.23
   6  -2   0    2.92    0.40
   6   2   0    2.46    0.28
  -6  -2   0    2.48    0.30
  -6   2   0    2.49    0.40
   6  -2   1  190.29    3.28
  -6  -2  -1  190.44    3.29
   6   2   1  190.93    3.32
  -6   2  -1  193.76    3.35
   6   2   1  189.16    2.88
   6  -2   1  188.68    3.33
  -6  -2  -1  187.12    2.87
   6  -2   2  491.59    6.82
  -6  -2  -2  458.93    6.16
  -6   2  -2  484.79    6.88
   6   2   2  467.70    6.16
  -6  -2  -2  458.68    6.84
   6   2   2  475.78    6.89
   6   2   2  453.55    6.18
   6  -2   2  484.52    6.85
   6  -2   3  627.68    9.02
  -6   2  -3  633.24    9.02
   6   2   3  651.49    8.35
   6  -2   3  637.50    8.98
  -6   2  -3  635.93    8.93
   6   2   3  650.19    9.15
   6   2   3  638.62    8.34
  -6   2  -4   84.55    2.14
   6  -2   4   88.21    2.25
   6   2   4   82.81    1.80
   6  -2   4   86.32    2.23
  -6  -2  -4   85.77    1.75
   6   2   4   90.99    2.36
   6   2   4   84.69    1.81
   6   2   5    4.64    0.44
  -6   2  -5    4.36    0.51
   6  -2   5    3.68    0.51
  -6  -2  -5    4.48    0.58
   6   2   5    4.14    0.57
   6  -2   5    4.59    0.58
   6   2   5    4.50    0.45
  -6  -2  -6    4.92    0.46
  -6   2  -6    5.09    0.62
   6  -2   6    4.61    0.61
   6   2   6    3.95    0.46
   6   2   6    5.43    0.69
   6  -2   6    4.81    0.64
   6   2   6    5.14    0.54
  -6  -2  -7    0.53    0.24
  -6   2  -7    0.54    0.31
   6  -2   7    0.45    0.33
   6   2   7    1.12    0.33
   6   2   7    0.93    0.43
   6   2   7    1.07    0.38
   6  -2   7    0.44    0.42
  -6  -2  -8   13.66    0.89
   6   2   8   12.76    0.90
   6  -2   8   14.18    1.10
  -6   2  -8   12.18    0.99
   6   2   8   12.06    1.10
   6  -2   8   13.90    1.16
   6   2   8   13.60    1.01
  -6  -2  -9    1.27    0.42
   6   2   9    1.20    0.44
   6  -2   9    1.79    0.60
   6   2   9    1.42    0.49
   6   2   9    2.59    0.66
   6   2  10    0.25    0.40
   6  -2  10    1.43    0.58
   6   2  10    1.81    0.70
   6  -2  11   -0.02    0.59
   6   2  11    0.83    0.54
   6  -2  12   -0.03    0.63
  -6   4  14   -0.27    0.50
  -6   4  14    1.24    0.72
  -6  -4  13    9.02    1.41
  -6   4  13    7.70    1.12
  -6  -4  12    1.25    0.77
  -6   4  12    1.50    0.64
  -6  -4  11    1.72    0.80
  -6   4  11    0.93    0.55
  -6  -4  10   10.29    1.31
  -6   4  10    9.50    1.04
  -6  -4   9   31.68    2.05
   6  -4  -9   32.68    1.84
  -6   4   9   31.29    1.77
  -6  -4   8  107.78    3.64
   6  -4  -8  108.93    3.33
  -6   4   8  111.56    3.24
   6   4  -7   25.47    1.55
  -6  -4   7   27.75    1.68
   6  -4  -7   24.41    1.47
  -6   4   7   27.42    1.44
  -6  -4   6   97.43    3.06
   6  -4  -6  102.03    2.96
   6   4  -6  100.00    2.98
  -6   4   6   98.66    2.73
  -6  -4   5    0.59    0.40
   6  -4  -5    0.60    0.39
   6   4  -5    0.92    0.39
  -6   4   5    0.73    0.36
  -6  -4   4  120.51    3.05
   6   4  -4  121.21    2.99
   6  -4  -4  117.01    3.05
  -6   4   4  123.17    2.86
  -6  -4   3  618.63    9.16
   6   4  -3  616.07    9.09
  -6   4   3  614.99    7.64
   6  -4  -3  619.59    9.01
  -6   4   3  633.08    9.05
   6   4  -2    1.85    0.38
  -6  -4   2    1.43    0.39
   6  -4  -2    1.62    0.26
  -6   4   2    1.65    0.41
   6   4  -2    1.60    0.27
   6  -4  -2    2.17    0.39
  -6  -4   1   85.78    1.97
   6   4  -1   84.37    1.92
   6   4  -1   86.36    1.72
  -6   4   1   82.45    1.63
   6  -4  -1   81.72    1.62
  -6   4   1   86.25    2.13
  -6  -4   1   84.19    1.76
   6  -4  -1   82.43    2.13
  -6  -4   0   45.36    1.19
   6   4   0   44.18    1.16
   6   4   0   44.50    1.13
  -6  -4   0   43.11    1.18
  -6   4   0   43.50    1.13
  -6  -4   0   46.10    1.35
   6  -4   0   46.65    1.48
  -6   4   0   45.40    1.46
   6  -4   1  147.44    2.93
  -6   4  -1  147.38    3.01
   6   4   1  143.18    2.30
  -6  -4  -1  148.59    2.93
  -6  -4  -1  144.36    2.62
   6   4   1  144.91    2.91
   6  -4   1  147.97    3.00
  -6  -4  -1  146.03    2.17
  -6   4  -2  200.87    3.77
   6  -4   2  204.73    3.72
   6   4   2  194.67    2.62
  -6   4  -2  198.98    3.66
   6   4   2  196.13    2.75
   6   4   2  200.17    3.74
  -6  -4  -2  195.38    3.69
   6  -4   2  198.27    3.78
   6  -4   3   62.19    1.91
  -6   4  -3   57.82    1.83
   6  -4   3   59.68    1.84
  -6   4  -3   59.39    1.80
   6   4   3   57.60    1.02
   6   4   3   59.45    1.86
  -6  -4  -3   58.38    1.82
   6   4   3   60.22    1.03
   6  -4   4   30.78    1.37
   6  -4   4   30.53    1.35
  -6   4  -4   31.76    1.34
   6   4   4   27.53    0.76
   6   4   4   31.02    1.36
   6   4   4   28.47    0.75
   6  -4   5   12.05    0.95
   6  -4   5   10.02    0.88
  -6   4  -5   11.90    0.86
   6   4   5   11.36    0.54
  -6  -4  -5   11.29    0.50
   6   4   5   12.52    0.94
   6   4   5   10.86    0.56
  -6   4  -6    0.93    0.38
   6  -4   6    0.79    0.33
   6   4   6    1.58    0.27
  -6  -4  -6    1.26    0.23
   6   4   6    1.85    0.47
   6  -4   6    1.16    0.42
   6   4   6    1.18    0.29
   6   4   7   14.86    0.79
   6  -4   7   16.11    1.17
  -6   4  -7   15.17    1.11
  -6  -4  -7   15.70    0.77
   6   4   7   13.90    1.13
   6  -4   7   13.85    1.14
   6   4   7   14.79    0.86
  -6  -4  -8    1.77    0.37
   6   4   8    2.18    0.40
   6   4   8    2.06    0.59
   6   4   8    2.06    0.52
   6  -4   8    1.18    0.48
  -6  -4  -9    9.90    0.74
   6   4   9    9.04    0.77
   6   4   9    9.20    0.87
   6  -4   9    9.81    1.15
   6   4   9    9.11    1.06
   6  -4  10    1.11    0.65
   6   4  10    0.70    0.43
   6   4  10    0.19    0.54
   6  -4  11    1.55    0.75
   6   4  11    0.04    0.46
   6  -4  12    2.23    0.88
  -6   6  13    7.86    1.03
  -6   6  13   10.42    1.30
  -6  -6  12   -0.04    0.73
  -6   6  12    1.39    0.57
  -6   6  12   -1.28    0.64
  -6  -6  11   24.66    2.06
  -6   6  11   21.01    1.42
  -6   6  11   22.44    1.66
  -6  -6  10    3.87    0.88
  -6   6  10    6.34    0.76
  -6   6  10    4.90    0.79
  -6  -6   9    8.44    1.13
   6  -6  -9    9.58    1.06
  -6   6   9   10.43    0.87
  -6   6   9   10.84    1.07
   6  -6  -8    6.80    0.86
  -6  -6   8    6.44    0.99
  -6   6   8    8.95    0.74
  -6   6   8    7.90    0.85
   6  -6  -7   21.26    1.38
  -6  -6   7   22.29    1.57
  -6   6   7   21.11    1.01
  -6   6   7   21.00    1.29
   6  -6  -6    3.11    0.60
   6   6  -6    2.88    0.56
  -6  -6   6    2.77    0.63
  -6   6   6    3.47    0.40
  -6   6   6    3.28    0.54
   6   6  -5   20.78    1.29
   6  -6  -5   20.01    1.26
  -6  -6   5   19.40    1.29
  -6   6   5   21.60    0.81
  -6   6   5   21.00    1.19
   6   6  -4    0.80    0.35
  -6  -6   4    1.24    0.44
  -6   6   4    2.14    0.22
  -6   6   4    2.06    0.44
   6  -6  -4    1.04    0.33
   6   6  -3 1094.45   14.95
  -6  -6   3 1098.31   15.10
   6  -6  -3 1111.48   14.44
  -6   6   3 1118.77   15.06
   6   6  -3 1101.96   14.51
   6  -6  -3 1074.71   15.05
   6   6  -2    4.41    0.51
  -6  -6   2    3.72    0.50
   6  -6  -2    4.05    0.42
   6  -6  -2    5.39    0.59
  -6   6   2    3.57    0.53
   6   6  -2    4.28    0.45
   6   6  -1  408.14    6.07
  -6  -6   1  413.50    6.18
  -6   6   1  403.30    6.02
   6  -6  -1  403.74    5.95
   6   6  -1  417.88    6.07
   6  -6  -1  409.19    6.63
  -6   6   1  395.62    6.49
  -6  -6   1  408.75    6.16
  -6   6   0    1.00    0.33
   6  -6   0    1.00    0.33
   6   6   0    0.45    0.18
  -6  -6   0    1.11    0.26
  -6  -6   0    0.67    0.27
   6   6   0    0.86    0.28
  -6   6   0    0.82    0.25
  -6  -6   0    0.60    0.26
   6  -6   0    0.29    0.25
   6  -6   1   20.85    1.05
  -6   6  -1   21.37    1.08
   6   6   1   19.20    0.59
  -6  -6  -1   20.75    0.94
  -6   6  -1   21.25    0.93
  -6  -6  -1   21.70    1.06
   6  -6   1   21.95    1.10
  -6   6  -2   21.07    1.12
   6  -6   2   21.67    1.12
  -6   6  -2   22.66    1.11
  -6  -6  -2   23.97    1.04
  -6  -6  -2   24.98    1.16
   6   6   2   23.96    1.17
   6  -6   2   22.31    1.14
  -6   6  -3   58.39    1.98
  -6   6  -3   61.05    1.96
   6  -6   3   60.05    1.99
  -6  -6  -3   61.30    1.97
   6   6   3   57.65    1.93
   6  -6   3   60.22    2.05
   6  -6   4   13.02    0.98
  -6   6  -4   13.38    0.95
   6  -6   4   11.76    0.93
   6   6   4   12.83    0.94
  -6   6  -5    3.03    0.56
   6   6   5    1.65    0.16
   6  -6   5    2.02    0.50
   6  -6   5    2.80    0.60
   6   6   5    2.41    0.54
   6   6   5    2.21    0.17
   6   6   6    1.24    0.19
   6  -6   6    2.07    0.48
  -6   6  -6    1.92    0.46
   6  -6   6    1.72    0.50
   6   6   6    0.82    0.39
   6   6   6    1.27    0.20
   6   6   7   49.58    1.32
  -6  -6  -7   51.02    1.17
   6   6   7   51.67    2.21
   6  -6   7   49.04    2.26
   6   6   8    1.38    0.28
  -6  -6  -8    1.15    0.26
   6  -6   8    2.28    0.68
   6   6   8    1.67    0.61
   6  -6   9   15.56    1.44
   6   6   9   15.20    1.35
   6  -6  10    1.54    0.71
   6   6  10    0.62    0.55
   6  -6  11   -0.37    0.70
   6   6  11    1.54    0.69
   6  -6  12    0.66    0.70
  -6  -8  12    0.45    0.61
  -6   8  12    0.79    0.60
  -6   8  12    0.14    0.52
  -6  -8  11    2.66    0.87
  -6   8  11    2.39    0.56
  -6   8  11    2.08    0.67
  -6  -8  10    1.50    0.76
  -6   8  10    3.02    0.58
  -6   8  10    2.44    0.62
  -6  -8   9   29.57    2.06
   6  -8  -9   28.84    1.75
  -6   8   9   31.15    1.50
  -6   8   9   29.55    1.73
   6  -8  -8   54.10    2.31
  -6  -8   8   56.36    2.74
  -6   8   8   59.45    1.95
  -6   8   8   56.77    2.30
   6  -8  -7   60.31    2.38
  -6  -8   7   61.13    2.71
  -6   8   7   60.25    1.82
  -6   8   7   58.33    2.25
   6  -8  -6   89.39    2.97
   6   8  -6   84.84    2.86
  -6  -8   6   84.85    3.05
  -6   8   6   82.92    2.02
  -6   8   6   83.36    2.65
   6   8  -5    1.67    0.46
   6  -8  -5    2.53    0.57
  -6  -8   5    2.49    0.59
  -6   8   5    1.56    0.27
  -6   8   5    1.19    0.41
   6  -8  -5    2.20    0.45
  -6  -8   4    1.55    0.50
   6   8  -4    1.41    0.42
   6  -8  -4    1.02    0.32
  -6   8   4    1.11    0.39
   6  -8  -4    0.74    0.35
   6   8  -4    1.22    0.37
   6   8  -3   88.83    2.46
  -6  -8   3   90.70    2.59
   6  -8  -3   90.57    2.33
   6   8  -3   90.25    2.37
   6  -8  -3   84.70    2.56
  -6   8   3   88.53    2.52
  -6  -8   2    8.12    0.72
   6   8  -2   10.77    0.75
   6  -8  -2    8.56    0.40
   6   8  -2    9.87    0.73
   6  -8  -2    8.70    0.66
  -6   8   2    8.49    0.74
   6  -8  -2    8.04    0.78
   6   8  -1   21.97    0.97
   6  -8  -1   22.33    1.11
  -6  -8   1   20.58    1.00
  -6   8   1   22.72    1.06
   6  -8  -1   23.23    1.04
   6   8  -1   22.38    1.06
  -6  -8   1   21.54    1.08
   6  -8  -1   23.28    1.23
  -6   8   1   20.59    1.12
   6  -8   0   10.77    0.81
   6   8   0   10.94    0.59
  -6   8   0   12.06    0.90
  -6  -8   0   11.99    0.68
  -6   8   0   11.59    0.79
  -6  -8   0   11.20    0.77
   6   8   0   11.82    0.79
  -6  -8   0   11.57    0.80
   6  -8   0   11.68    0.73
   6  -8   0   11.30    0.85
  -6  -8  -1  137.45    2.24
  -6   8  -1  140.10    3.30
   6  -8   1  146.10    3.28
   6   8   1  140.97    2.30
  -6  -8  -1  149.61    2.49
  -6   8  -1  139.06    3.08
  -6  -8  -1  141.10    3.19
  -6  -8  -1  139.13    3.13
   6  -8   1  143.79    3.38
   6  -8   2  323.30    5.91
  -6   8  -2  331.58    6.02
  -6   8  -2  345.78    5.96
  -6  -8  -2  334.87    5.75
  -6  -8  -2  345.46    5.97
   6  -8   2  346.83    6.15
  -6   8  -2  331.78    5.74
   6  -8   3  196.43    4.38
  -6   8  -3  209.13    4.40
  -6   8  -3  204.30    4.44
   6   8   3  203.65    4.28
  -6  -8  -3  213.85    4.38
  -6  -8  -3  207.10    4.20
   6  -8   3  213.69    4.56
  -6   8  -4  155.20    3.77
   6  -8   4  151.46    3.84
   6  -8   4  143.85    3.75
  -6  -8  -4  161.88    3.75
   6   8   4  152.13    3.67
   6  -8   5    7.94    0.87
  -6   8  -5    7.54    0.83
   6  -8   5    7.68    0.89
   6   8   5    8.18    0.87
   6  -8   6    2.38    0.65
   6   8   6    2.36    0.58
   6  -8   7    8.68    1.05
   6   8   7    7.88    0.92
   6   8   7    6.79    0.29
   6  -8   8    2.86    0.78
   6   8   8    2.92    0.70
   6   8   8    2.73    0.29
   6  -8   9    4.01    0.91
   6   8   9    3.35    0.77
   6  -8  10    1.01    0.71
   6   8  10   -0.65    0.61
   6  -8  11    0.58    0.61
   6   8  11   -0.22    0.52
  -6 -10  11    1.55    0.75
  -6  10  11    2.25    0.56
  -6  10  11    1.97    0.65
  -6 -10  10    1.57    0.82
  -6  10  10    0.90    0.46
  -6  10  10    2.34    0.62
  -6 -10   9   17.02    1.69
   6 -10  -9   14.18    1.26
  -6  10   9   16.91    1.12
  -6  10   9   16.22    1.29
   6 -10  -8   36.57    1.93
  -6 -10   8   39.62    2.38
  -6  10   8   39.86    1.62
  -6  10   8   41.16    1.98
   6 -10  -7   37.87    1.92
  -6 -10   7   39.03    2.23
  -6  10   7   38.88    1.46
  -6  10   7   39.43    1.88
  -6 -10   6    3.78    0.76
   6 -10  -6    2.24    0.57
  -6  10   6    2.43    0.36
  -6  10   6    3.49    0.64
   6  10  -5   55.82    2.24
  -6 -10   5   54.90    2.36
   6 -10  -5   60.28    2.19
   6  10  -5   55.64    2.13
   6 -10  -5   53.50    2.09
  -6  10   5   52.66    2.05
   6  10  -4  178.28    4.12
  -6 -10   4  171.57    4.25
   6 -10  -4  181.60    3.96
   6  10  -4  175.10    3.96
   6 -10  -4  167.70    4.04
  -6  10   4  173.86    3.95
  -6  10   3    0.25    0.33
  -6 -10   3    0.23    0.38
   6  10  -3    0.59    0.36
   6 -10  -3    0.52    0.29
   6 -10  -3    0.40    0.16
   6  10  -3   -0.04    0.36
   6 -10  -3   -0.09    0.32
   6  10  -2  251.74    4.64
   6 -10  -2  245.87    4.68
  -6 -10   2  246.13    4.79
   6 -10  -2  241.31    3.84
   6  10  -2  245.85    4.74
   6 -10  -2  252.56    4.77
  -6  10   2  247.07    4.86
   6 -10  -2  248.85    5.12
   6  10  -1    9.15    0.67
   6 -10  -1    9.52    0.78
  -6 -10   1   10.17    0.68
  -6 -10   1    9.47    0.73
   6 -10  -1    8.69    0.73
   6  10  -1   10.15    0.80
  -6  10   1    9.59    0.79
  -6  10   1    9.04    0.81
   6 -10  -1    9.98    0.92
  -6 -10   1    9.20    0.78
  -6  10   0   11.00    0.91
  -6 -10   0   12.53    0.80
   6 -10   0   12.72    0.93
   6  10   0   12.38    0.68
  -6 -10   0   12.70    0.75
   6  10   0   12.55    0.89
  -6 -10   0   12.25    0.86
  -6 -10   0   12.69    0.91
  -6  10   0   11.65    0.90
   6 -10   0   12.33    0.98
   6 -10   0   12.08    0.86
  -6  10  -1    8.58    0.85
   6  10   1    7.07    0.44
   6 -10   1    7.70    0.79
  -6 -10  -1    7.44    0.53
  -6 -10  -1    8.07    0.74
  -6 -10  -1    8.39    0.79
  -6  10  -1    8.32    0.77
   6 -10   1    7.44    0.80
  -6 -10  -1    7.42    0.46
   6 -10   2  102.86    3.01
  -6  10  -2  107.90    3.09
  -6  10  -2  113.43    3.04
  -6 -10  -2  112.73    1.90
  -6 -10  -2  115.61    3.05
  -6  10  -2  104.58    2.89
  -6 -10  -2  114.73    3.01
  -6 -10  -2  107.43    1.74
   6 -10   2  108.71    3.11
   6 -10   3   63.68    2.42
  -6  10  -3   68.71    2.46
  -6  10  -3   70.11    2.41
  -6 -10  -3   72.09    2.41
  -6 -10  -3   68.46    2.31
   6 -10   3   72.79    2.54
  -6  10  -3   70.11    2.35
   6 -10   4   34.26    1.85
  -6 -10  -4   41.54    1.85
  -6 -10  -4   41.54    1.83
   6  10   4   39.47    1.79
   6 -10   5   -0.06    0.51
   6  10   5    0.61    0.44
   6 -10   6    5.10    0.87
   6  10   6    4.17    0.73
   6 -10   7    1.28    0.61
   6  10   7    2.44    0.64
   6 -10   8   11.63    1.34
   6  10   8   11.34    1.19
   6 -10   9    0.86    0.69
   6  10   9    0.77    0.54
   6 -10  10    0.94    0.73
   6  10  10    1.09    0.49
  -6 -12  10    3.35    0.95
  -6  12  10    1.99    0.52
  -6  12  10    3.04    0.70
  -6 -12   9    1.71    0.76
  -6  12   9    3.23    0.56
  -6  12   9    2.28    0.58
   6 -12  -8   25.13    1.65
  -6 -12   8   30.77    2.21
  -6  12   8   29.95    1.38
  -6  12   8   29.44    1.70
  -6 -12   7    1.34    0.65
   6 -12  -7    1.37    0.52
  -6  12   7    2.68    0.57
   6  12  -7    2.24    0.64
  -6 -12   6   12.47    1.30
   6 -12  -6   13.22    1.17
   6  12  -6   14.26    1.21
   6 -12  -6   12.14    1.03
  -6  12   6   13.72    1.11
  -6 -12   5    7.27    0.95
  -6  12   5    5.62    0.73
   6  12  -5    6.57    0.80
   6 -12  -5    5.35    0.73
   6  12  -4  157.94    3.99
  -6 -12   4  158.28    4.22
   6 -12  -4  165.78    4.01
   6 -12  -4  162.54    2.97
   6  12  -4  158.03    3.98
  -6  12   4  157.44    3.84
   6 -12  -4  154.00    4.01
   6 -12  -3    3.77    0.55
  -6  12   3    2.54    0.52
  -6 -12   3    2.18    0.46
   6  12  -3    2.71    0.52
  -6 -12   3    2.14    0.53
   6 -12  -3    2.70    0.50
   6 -12  -3    2.88    0.34
   6 -12  -3    1.99    0.49
   6  12  -3    2.10    0.46
   6 -12  -2  290.03    5.47
   6  12  -2  296.65    5.38
  -6 -12   2  297.12    5.37
  -6 -12   2  286.14    5.57
   6 -12  -2  277.52    4.63
   6  12  -2  286.86    5.61
   6 -12  -2  292.16    5.60
  -6  12   2  290.42    5.65
   6 -12  -2  288.99    5.97
   6 -12  -1    0.87    0.36
  -6  12   1    1.28    0.37
  -6 -12   1    1.17    0.33
   6  12  -1    0.72    0.31
  -6 -12   1    1.53    0.41
   6  12  -1    1.07    0.41
  -6  12   1    0.67    0.36
  -6 -12   1    1.00    0.33
   6 -12  -1    1.28    0.42
   6 -12  -1    0.61    0.33
  -6  12   0   29.21    1.53
   6 -12   0   30.66    1.52
   6  12   0   30.04    1.17
  -6 -12   0   29.69    1.18
  -6 -12   0   29.73    1.27
   6  12   0   29.94    1.50
  -6  12   0   29.32    1.52
  -6 -12   0   30.31    1.56
  -6 -12   0   29.13    1.43
   6 -12   0   29.36    1.45
   6 -12   0   30.81    1.65
   6  12   1   41.55    1.24
  -6  12  -1   38.95    1.84
   6 -12   1   43.15    1.86
  -6 -12  -1   41.71    1.36
  -6  12  -1   39.87    1.79
  -6 -12  -1   39.66    1.74
  -6 -12  -1   41.66    1.85
  -6 -12  -1   42.28    1.29
   6 -12   1   43.00    1.94
  -6  12  -2   15.12    1.18
   6 -12   2   15.88    1.20
  -6 -12  -2   15.08    0.68
  -6 -12  -2   14.82    1.12
  -6 -12  -2   14.49    1.10
  -6  12  -2   13.47    1.08
  -6 -12  -2   14.29    0.62
   6 -12   3   29.31    1.69
  -6  12  -3   27.21    1.54
   6 -12   4    8.09    1.02
  -6  12  -4    7.94    0.92
   6 -12   5   11.29    1.18
   6  12   5   11.37    1.06
  -6  12  -5    9.94    1.03
   6 -12   6   10.41    1.24
   6  12   6    8.96    1.02
   6 -12   7    0.50    0.55
   6  12   7    0.41    0.53
   6 -12   8   10.36    1.30
   6  12   8   11.29    1.21
   6 -12   9    0.43    0.64
   6  12   9    0.86    0.58
   6  12  10    1.76    0.67
  -6 -14   9   16.83    1.84
   6  14  -9   15.48    1.55
  -6  14   9   15.54    1.27
  -6 -14   8   51.81    2.95
   6  14  -8   52.05    2.64
  -6  14   8   47.32    2.17
   6 -14  -7   52.62    2.44
  -6 -14   7   53.59    2.85
  -6  14   7   56.18    2.30
   6  14  -7   54.92    2.61
  -6 -14   6   43.18    2.42
   6  14  -6   42.59    2.20
   6 -14  -6   41.59    2.02
  -6  14   6   41.50    1.92
   6 -14  -5    9.50    0.88
  -6 -14   5   10.12    1.17
   6  14  -5    9.79    1.05
  -6  14   5    9.33    0.93
   6 -14  -5    9.19    0.96
  -6  14   4    5.13    0.71
   6 -14  -4    5.93    0.72
  -6 -14   4    5.74    0.86
   6 -14  -4    5.02    0.50
   6 -14  -4    5.04    0.75
   6  14  -4    5.11    0.75
   6 -14  -3   14.52    1.06
  -6 -14   3   13.87    1.09
   6  14  -3   17.36    1.19
  -6  14   3   14.69    1.13
  -6 -14   3   16.44    1.27
   6  14  -3   14.40    1.19
   6 -14  -3   14.57    0.85
   6 -14  -3   13.01    1.16
  -6 -14   2    9.34    0.86
   6 -14  -2   11.27    0.97
  -6  14   2   10.01    0.95
   6  14  -2   10.28    0.87
  -6 -14   2   10.89    1.00
   6  14  -2    9.19    0.93
   6 -14  -2    9.89    0.72
   6 -14  -2    9.21    1.01
  -6  14   1   44.71    2.01
   6 -14  -1   45.95    1.96
   6  14  -1   46.35    1.72
  -6 -14   1   46.59    1.76
  -6 -14   1   45.86    1.87
  -6  14   1   47.39    2.11
   6  14  -1   43.58    1.98
   6 -14  -1   47.37    2.22
   6  14   0    4.21    0.50
  -6 -14   0    4.72    0.55
   6 -14   0    3.90    0.61
  -6  14   0    4.25    0.70
  -6 -14   0    5.05    0.61
  -6  14   0    3.49    0.65
   6  14   0    3.58    0.63
  -6  14  -1   27.69    1.65
   6 -14   1   29.83    1.67
   6  14   1   30.16    1.15
  -6 -14  -1   32.52    1.31
  -6  14  -1   27.05    1.62
  -6 -14  -1   28.98    1.19
  -6  14  -2   48.80    2.23
   6 -14   2   44.84    2.15
  -6 -14  -2   44.94    1.38
  -6  14  -2   45.20    2.12
  -6 -14  -2   43.68    1.33
   6 -14   3   72.41    2.86
  -6 -14  -3   72.24    1.35
  -6  14  -3   70.91    2.74
  -6 -14  -3   68.16    1.25
   6 -14   4   14.63    1.35
  -6  14  -4   14.18    1.26
   6 -14   5   13.98    1.40
  -6  14  -5   15.59    1.38
   6 -14   6    1.83    0.75
  -6  14  -6    2.70    0.76
   6 -14   7    7.15    1.18
   6  14   7    5.51    0.89
  -6  14  -7    7.06    1.04
   6 -14   8    4.67    1.06
   6  14   8    4.81    0.90
  -6  14  -8    5.75    1.03
   6  14   9    1.88    0.67
   6  16  -9    5.05    1.07
  -6 -16   8    7.18    1.27
  -6  16   8    5.54    0.80
   6 -16  -8    4.37    0.68
   6  16  -8    5.89    1.01
   6 -16  -7   14.79    1.12
  -6 -16   7   14.46    1.59
   6  16  -7   13.08    1.40
  -6  16   7   11.98    1.08
  -6 -16   6    1.71    0.74
  -6  16   6    2.87    0.60
   6 -16  -6    2.36    0.53
   6  16  -6    2.32    0.66
   6 -16  -5   13.25    1.05
  -6 -16   5   11.13    1.28
   6  16  -5   12.34    1.24
  -6  16   5   11.53    1.04
   6 -16  -4   15.88    1.16
  -6  16   4   17.60    1.29
   6  16  -4   17.20    1.42
   6 -16  -4   17.21    0.99
  -6 -16   4   17.00    1.47
   6 -16  -3  167.92    4.16
  -6  16   3  164.85    4.26
   6 -16  -3  170.11    3.62
   6  16  -3  169.78    4.58
  -6 -16   3  167.64    4.56
  -6 -16   2    4.74    0.67
  -6  16   2    2.90    0.60
   6  16  -2    4.78    0.66
   6 -16  -2    4.47    0.70
   6 -16  -2    4.37    0.56
   6  16  -2    5.32    0.79
  -6 -16   2    4.83    0.79
   6  16  -1   71.05    2.30
  -6  16   1   66.48    2.60
  -6 -16   1   71.49    2.38
   6 -16  -1   65.00    2.52
  -6 -16   1   70.23    2.49
  -6  16   1   64.88    2.69
   6  16  -1   70.19    2.71
   6 -16  -1   64.83    2.10
  -6  16   0   14.25    1.23
   6  16   0   15.92    1.01
   6 -16   0   13.87    1.19
  -6 -16   0   15.07    1.07
   6  16   0   12.61    1.15
  -6  16   0   13.76    1.25
  -6 -16   0   15.04    1.03
  -6  16  -1    5.44    0.85
  -6 -16  -1    5.83    0.61
  -6 -16  -1    5.15    0.61
   6 -16   1    5.31    0.87
  -6  16  -1    5.58    0.83
   6 -16   2   13.38    1.27
  -6 -16  -2   14.03    0.84
  -6  16  -2   13.73    1.29
  -6 -16  -2   12.92    0.79
   6 -16   3   38.32    2.20
  -6 -16  -3   37.68    1.10
  -6  16  -3   38.21    2.14
   6 -16   4    2.71    0.76
  -6  16  -4    3.06    0.73
   6 -16   5    0.37    0.62
  -6  16  -5    0.54    0.49
   6 -16   6   -0.20    0.56
  -6  16  -6    0.45    0.51
   6 -16   7    8.79    1.30
  -6  16  -7    7.14    1.13
  -6  16  -8    2.16    0.79
  -6  18   7   15.08    1.25
  -6 -18   7   15.36    1.69
   6  18  -7   15.69    1.58
  -6 -18   6    9.48    1.35
   6 -18  -6    9.14    0.94
  -6  18   6    8.43    0.94
   6  18  -6   10.58    1.27
  -6 -18   5    3.77    0.87
   6 -18  -5    4.80    0.71
  -6  18   5    5.00    0.77
   6  18  -5    5.92    0.99
  -6  18   4    2.16    0.54
   6 -18  -4    2.47    0.56
   6  18  -4    2.40    0.68
  -6 -18   4    2.42    0.77
   6 -18  -3   74.12    2.73
  -6  18   3   72.38    2.80
   6  18  -3   73.01    3.03
  -6 -18   3   73.01    3.02
  -6  18   2    1.62    0.58
   6 -18  -2    3.17    0.70
  -6 -18   2    1.82    0.57
   6  18  -2    1.89    0.60
   6  18  -1   32.59    1.66
  -6  18   1   32.07    1.90
   6 -18  -1   34.13    1.92
  -6 -18   1   34.19    1.81
  -6  18   1   29.53    1.93
   6 -18  -1   30.08    1.53
   6  18  -1   31.25    1.94
  -6 -18   1   32.90    1.72
   6  18   0    0.85    0.38
  -6  18   0    1.60    0.59
  -6 -18   0    1.32    0.53
   6 -18   0   -0.22    0.58
  -6  18   0    0.45    0.50
   6  18   0    1.05    0.52
   6 -18   1    3.33    0.78
  -6 -18  -1    3.10    0.55
  -6  18  -1    2.22    0.68
   6 -18   2    8.24    1.12
  -6  18  -2    8.69    1.12
   6 -18   3    8.03    1.14
  -6  18  -3    7.94    1.07
   6 -18   4    3.52    0.88
  -6  18  -4    5.61    1.04
   6 -18   5   -0.13    0.57
  -6  18  -5   -0.17    0.54
   6 -18   6    0.04    0.65
  -6  18  -6   -0.53    0.52
  -6 -20   6   20.47    1.96
   6 -20  -5    7.37    0.93
  -6  20   5    7.63    0.96
   6  20  -5    8.44    1.16
  -6 -20   5    7.55    1.23
  -6  20   4    0.60    0.54
   6 -20  -4    1.46    0.54
   6  20  -4    0.93    0.61
  -6 -20   4    1.52    0.70
  -6  20   3    0.44    0.46
   6 -20  -3    1.12    0.49
   6  20  -3    2.09    0.71
  -6 -20   3    0.79    0.58
  -6  20   2   12.38    1.25
   6  20  -2   12.77    1.32
  -6 -20   2   11.62    1.21
   6 -20  -2   11.63    1.20
  -6  20   1    0.40    0.48
   6  20  -1    0.59    0.44
  -6 -20   1    1.01    0.54
   6 -20  -1    0.20    0.53
  -6  20   0    0.21    0.49
   6 -20   0    0.08    0.56
  -6 -20   0    1.39    0.55
  -6  20  -1   10.29    1.28
   6 -20   1    9.93    1.21
   6 -20   2   22.23    1.81
  -6  20  -2   22.66    1.85
  -6  20  -3   15.18    1.54
   6 -20   3   11.89    1.42
  -6  20  -4   11.58    1.42
   6 -20   4   11.69    1.52
  -6 -22   5   -0.26    0.73
  -6 -22   4   14.08    1.59
  -6  22   3    3.81    0.85
  -6 -22   3    2.90    0.92
   6 -22  -3    1.68    0.63
  -6  22   2   60.74    2.84
   6 -22  -2   63.94    2.93
  -6 -22   2   63.31    2.97
   6 -22  -1    1.54    0.71
   6 -22   0    6.68    1.08
  -6  22   0    7.02    1.14
   6 -22   1   -0.05    0.83
   6 -22   2   11.35    1.39
   6 -24  -1   -0.63    0.84
  -7   1  13    0.88    0.82
  -7  -1  13    0.10    0.70
  -7   1  13    0.39    0.60
  -7   1  12    6.19    1.14
  -7  -1  12    7.60    1.25
  -7   1  11    0.58    0.62
  -7  -1  11   -0.44    0.76
  -7   1  10   85.57    3.46
  -7  -1  10   89.30    3.60
  -7  -1   9    3.81    0.89
  -7   1   9    3.32    0.76
  -7   1   8   88.38    3.18
   7  -1  -8   90.62    3.08
  -7  -1   8   87.49    3.20
   7  -1  -7    3.85    0.67
  -7  -1   7    3.26    0.68
   7   1  -7    4.60    0.68
  -7   1   7    2.74    0.61
  -7   1   6   19.64    1.31
   7   1  -6   20.52    1.30
  -7  -1   6   20.10    1.34
   7  -1  -6   21.21    1.32
   7  -1  -5  213.10    4.56
   7   1  -5  216.90    4.59
  -7   1   5  214.86    4.58
  -7  -1   5  212.72    4.61
  -7   1   5  213.70    4.25
   7   1  -4   76.31    2.34
  -7  -1   4   81.40    2.43
   7  -1  -4   82.14    2.43
  -7   1   4   80.73    2.22
   7  -1  -3  230.91    4.51
  -7  -1   3  234.53    4.44
   7   1  -3  235.99    4.48
  -7   1   3  237.74    4.23
   7   1  -2   71.42    2.03
   7  -1  -2   74.37    1.94
  -7  -1   2   75.51    1.87
  -7   1   2   77.90    1.95
   7   1  -1    0.39    0.30
  -7   1   1    0.56    0.16
  -7  -1   1    0.38    0.18
  -7   1   1    0.84    0.31
   7   1  -1    0.82    0.26
   7  -1  -1    0.64    0.27
  -7  -1   1    0.74    0.29
   7  -1   0   56.90    1.28
  -7  -1   0   58.23    0.99
  -7  -1   0   58.83    1.43
  -7   1   0   55.15    1.24
   7   1   0   58.47    1.44
  -7   1   0   56.54    1.56
  -7  -1   0   59.96    1.48
   7  -1   0   56.69    1.59
   7   1   0   58.70    1.44
   7   1   1   11.49    0.65
  -7  -1  -1   11.04    0.63
   7  -1   1   12.58    0.62
  -7  -1  -1   10.68    0.58
   7   1   1   12.23    0.60
   7  -1   1   13.34    0.71
  -7   1  -1   13.40    0.72
   7  -1   2  492.62    6.99
   7   1   2  491.46    6.69
  -7   1  -2  488.88    7.04
  -7  -1  -2  487.98    6.72
   7  -1   2  497.80    7.01
   7   1   2  497.84    7.16
   7  -1   2  480.24    7.00
   7   1   2  473.24    6.71
  -7   1  -3   50.69    1.53
  -7  -1  -3   49.47    1.32
   7  -1   3   49.31    1.48
   7   1   3   47.16    1.29
   7   1   3   46.47    1.56
   7  -1   3   49.34    1.51
   7   1   3   46.14    1.28
   7   1   4   11.50    0.68
   7  -1   4   13.04    0.81
  -7   1  -4   13.27    0.78
  -7  -1  -4   10.48    0.63
   7  -1   4   12.56    0.80
   7   1   4   10.65    0.82
   7   1   4   10.78    0.66
  -7   1  -5    7.36    0.62
   7   1   5    6.92    0.58
   7  -1   5    8.15    0.71
   7  -1   5    7.53    0.67
  -7  -1  -5    6.91    0.54
   7   1   5    7.09    0.73
   7   1   5    7.34    0.60
  -7  -1  -6   18.85    0.94
   7   1   6   19.35    1.00
   7  -1   6   19.17    1.12
  -7   1  -6   17.78    1.01
   7   1   6   20.10    1.24
   7  -1   6   19.51    1.15
   7   1   6   19.02    1.02
  -7   1  -7    0.51    0.34
  -7  -1  -7    1.47    0.36
   7   1   7    2.23    0.44
   7  -1   7    2.33    0.49
   7   1   7    2.13    0.54
   7  -1   7    0.48    0.43
   7   1   7    1.63    0.41
  -7  -1  -8    1.56    0.41
  -7   1  -8    1.80    0.50
   7   1   8    1.58    0.42
   7  -1   8    2.67    0.54
   7   1   8    2.18    0.59
   7  -1   8    2.19    0.58
   7   1   8    2.72    0.58
  -7  -1  -9    0.12    0.35
  -7   1  -9    0.27    0.40
   7   1   9    0.01    0.34
   7  -1   9   -0.25    0.44
   7   1   9    0.50    0.43
   7   1   9    0.68    0.49
   7  -1  10    4.28    0.80
   7   1  10    5.45    0.82
   7   1  10    5.26    0.88
   7  -1  11   -0.30    0.50
   7   1  11    1.53    0.66
  -7   3  14    1.40    0.73
  -7  -3  13    4.60    1.08
  -7   3  13    8.36    1.22
  -7  -3  12    1.44    0.75
  -7   3  12    0.80    0.58
  -7  -3  11    4.68    0.99
  -7   3  11    5.10    0.87
  -7  -3  10    1.05    0.67
  -7   3  10    1.65    0.56
  -7  -3   9   37.64    2.19
  -7   3   9   37.39    1.94
   7  -3  -8    3.25    0.71
  -7  -3   8    3.15    0.74
  -7   3   8    3.52    0.66
   7  -3  -7    2.46    0.56
   7   3  -7    3.20    0.65
  -7  -3   7    2.28    0.60
  -7   3   7    2.69    0.54
   7   3  -6  134.21    3.62
   7  -3  -6  138.53    3.63
  -7  -3   6  132.26    3.67
  -7   3   6  135.94    3.39
  -7  -3   5  259.65    5.35
   7   3  -5  271.45    5.33
   7  -3  -5  265.47    5.34
  -7   3   5  279.37    5.10
   7  -3  -4  894.59   12.90
  -7  -3   4  887.84   12.79
   7   3  -4  871.34   12.66
  -7   3   4  892.45   12.43
  -7  -3   3  898.49   12.52
   7   3  -3  881.07   12.49
   7  -3  -3  894.05   12.35
  -7   3   3  886.43   12.37
   7   3  -2   51.59    1.64
  -7  -3   2   54.79    1.71
   7  -3  -2   48.59    1.10
   7  -3  -2   47.79    1.64
   7   3  -2   50.08    1.17
  -7   3   2   50.54    1.66
  -7  -3   1    0.55    0.31
   7   3  -1    0.98    0.30
   7  -3  -1    0.35    0.11
   7   3  -1    0.59    0.18
  -7  -3   1    0.46    0.23
  -7   3   1    0.35    0.32
   7  -3  -1    0.32    0.13
   7  -3  -1    0.69    0.30
   7   3   0   58.96    1.53
   7  -3   0   61.06    1.21
  -7  -3   0   60.15    1.60
  -7   3   0   59.85    1.23
  -7  -3   0   60.88    1.31
  -7  -3   0   60.07    1.38
  -7   3   0   61.92    1.75
   7  -3   0   61.45    1.77
   7  -3   1   23.53    1.02
   7   3   1   24.96    1.05
  -7  -3  -1   24.52    1.02
   7   3   1   24.19    0.75
  -7  -3  -1   24.64    0.75
  -7   3  -1   21.98    1.03
   7  -3   1   23.41    1.04
  -7  -3  -2   16.60    0.57
  -7   3  -2   15.30    0.89
   7  -3   2   16.44    0.89
   7   3   2   17.23    0.58
  -7  -3  -2   17.24    0.90
   7   3   2   17.98    0.94
   7   3   2   16.39    0.57
   7  -3   2   13.98    0.85
  -7   3  -3    2.10    0.42
  -7   3  -3    2.98    0.44
   7  -3   3    2.92    0.46
   7  -3   3    2.41    0.45
   7   3   3    2.23    0.26
   7   3   3    1.92    0.42
   7   3   3    3.05    0.29
   7  -3   4   19.61    1.07
   7  -3   4   19.69    1.09
  -7   3  -4   20.51    1.06
   7   3   4   19.26    0.72
   7   3   4   19.84    1.12
   7   3   4   19.93    0.72
  -7   3  -5   26.47    1.27
   7  -3   5   25.30    1.30
  -7  -3  -5   27.60    0.90
   7  -3   5   24.35    1.28
   7   3   5   26.65    0.97
   7   3   5   26.44    1.36
   7   3   5   26.41    0.94
   7   3   6   26.79    1.06
   7  -3   6   29.40    1.48
  -7   3  -6   28.20    1.36
  -7  -3  -6   27.97    1.02
   7   3   6   26.27    1.45
   7   3   6   27.02    1.15
   7  -3   6   27.63    1.45
   7  -3   7   13.95    1.09
   7   3   7   14.57    0.85
  -7   3  -7   14.42    1.05
  -7  -3  -7   14.24    0.79
   7   3   7   15.49    1.18
   7  -3   7   14.24    1.15
   7   3   7   14.60    0.91
   7   3   8    4.32    0.54
  -7  -3  -8    5.39    0.56
   7   3   8    5.82    0.82
   7   3   8    5.34    0.64
   7  -3   8    4.91    0.76
   7   3   9    0.59    0.36
  -7  -3  -9    0.54    0.38
   7  -3   9    0.69    0.50
   7   3   9    1.24    0.45
   7   3   9    0.54    0.50
   7  -3  10    0.12    0.47
   7   3  10    0.00    0.37
   7   3  10    0.00    0.49
   7  -3  11    1.45    0.70
   7   3  11    3.56    0.77
   7  -3  12    0.20    0.75
  -7   5  14    1.37    0.64
  -7   5  13    0.56    0.48
  -7   5  13    0.17    0.63
  -7  -5  12    0.94    0.82
  -7   5  12    2.41    0.63
  -7   5  12    2.46    0.71
  -7  -5  11   40.81    2.66
  -7   5  11   41.98    2.26
  -7  -5  10    4.15    0.95
  -7   5  10    3.92    0.77
  -7  -5   9  158.82    4.85
  -7   5   9  154.65    4.20
  -7  -5   8    6.08    0.97
   7  -5  -8    4.93    0.75
  -7   5   8    6.14    0.78
  -7  -5   7    0.47    0.48
   7  -5  -7    2.05    0.57
   7   5  -7    1.42    0.54
  -7   5   7    1.48    0.50
  -7  -5   6    4.25    0.72
   7   5  -6    4.55    0.67
   7  -5  -6    3.83    0.65
  -7   5   6    4.40    0.61
  -7  -5   5   38.77    1.80
   7  -5  -5   39.82    1.82
   7   5  -5   44.13    1.85
  -7   5   5   41.42    1.69
  -7  -5   4   37.85    1.67
   7   5  -4   34.94    1.55
  -7   5   4   38.07    0.87
   7  -5  -4   36.76    1.55
  -7   5   4   39.92    1.60
  -7  -5   3   34.50    1.48
   7   5  -3   29.99    1.34
   7  -5  -3   30.96    1.38
  -7   5   3   31.16    1.37
   7   5  -2    0.94    0.29
  -7  -5   2    0.66    0.33
   7  -5  -2    1.05    0.24
   7  -5  -2    1.97    0.41
  -7   5   2    0.46    0.35
   7   5  -2    0.96    0.26
   7   5  -1  119.17    2.49
  -7  -5   1  125.94    2.61
  -7   5   1  118.13    2.25
   7  -5  -1  114.40    2.19
   7   5  -1  120.52    2.31
   7  -5  -1  119.39    2.83
  -7  -5   1  119.53    2.37
  -7   5   1  114.79    2.77
  -7   5   0    4.48    0.53
   7  -5   0    3.55    0.45
   7   5   0    3.76    0.37
  -7  -5   0    3.35    0.37
  -7  -5   0    3.31    0.41
   7   5   0    3.00    0.34
  -7   5   0    3.91    0.37
   7  -5   0    4.32    0.53
  -7  -5   0    3.43    0.38
  -7   5  -1  462.23    7.16
   7  -5   1  451.13    7.05
   7   5   1  454.28    6.14
  -7  -5  -1  468.46    7.07
  -7  -5  -1  454.96    6.62
   7   5   1  465.03    7.05
  -7  -5  -1  455.50    5.94
   7  -5   1  461.82    7.21
  -7   5  -1  456.78    6.57
   7  -5   2   14.97    0.93
  -7   5  -2   12.66    0.89
   7   5   2   15.03    0.40
   7   5   2   14.10    0.43
   7   5   2   15.35    0.94
  -7  -5  -2   13.61    0.86
   7  -5   2   12.44    0.87
  -7   5  -3   38.19    1.58
   7  -5   3   36.09    1.49
  -7   5  -3   38.29    1.50
   7   5   3   38.37    1.55
  -7  -5  -3   40.85    1.56
   7  -5   3   39.61    1.59
  -7   5  -4    6.85    0.70
   7  -5   4    5.98    0.68
   7  -5   4    6.17    0.68
   7   5   4    6.77    0.72
   7   5   4    6.07    0.26
   7  -5   5    4.47    0.63
  -7   5  -5    5.46    0.66
   7  -5   5    4.23    0.62
   7   5   5    3.98    0.30
   7   5   5    3.82    0.62
   7   5   5    3.87    0.28
  -7   5  -6    1.29    0.39
   7   5   6    1.39    0.23
   7  -5   6    2.66    0.55
   7   5   6    2.29    0.53
   7  -5   6    1.32    0.49
   7   5   6    1.31    0.25
   7   5   7    5.99    0.49
  -7  -5  -7    6.25    0.44
   7   5   7    6.68    0.86
   7  -5   7    6.66    0.89
   7   5   7    5.56    0.50
   7   5   8    1.14    0.30
  -7  -5  -8    0.57    0.24
   7   5   8    0.88    0.31
   7  -5   8    0.28    0.52
   7   5   8    0.43    0.46
   7   5   9    4.84    0.62
   7  -5   9    3.19    0.80
   7   5   9    3.74    0.81
   7  -5  10   -0.61    0.61
   7   5  10    0.00    0.48
   7  -5  11    0.20    0.61
   7   5  11    0.28    0.53
   7  -5  12    0.02    0.77
  -7   7  13    0.14    0.53
  -7   7  13    1.10    0.62
  -7  -7  12   -0.51    0.64
  -7   7  12    0.66    0.49
  -7   7  12    0.28    0.53
  -7  -7  11   16.90    1.79
  -7   7  11   20.29    1.37
  -7   7  11   17.46    1.50
  -7  -7  10    2.51    0.79
  -7   7  10    1.59    0.45
  -7   7  10    1.47    0.61
  -7  -7   9   72.12    3.24
  -7   7   9   66.91    2.20
  -7   7   9   70.59    2.75
   7  -7  -8    0.84    0.40
  -7  -7   8    0.39    0.52
  -7   7   8    1.00    0.31
  -7   7   8    1.05    0.47
   7  -7  -7    9.94    1.04
  -7  -7   7   10.50    1.12
  -7   7   7    7.39    0.60
  -7   7   7    9.38    0.94
   7   7  -6  106.51    3.23
  -7  -7   6   98.72    3.28
   7  -7  -6  101.68    3.17
  -7   7   6  101.79    2.18
  -7   7   6  102.88    3.01
   7  -7  -5   57.68    2.26
  -7  -7   5   59.40    2.32
   7   7  -5   58.71    2.19
  -7   7   5   53.61    1.31
   7  -7  -5   54.78    2.02
  -7   7   5   54.75    2.04
   7   7  -4  326.71    5.93
  -7  -7   4  314.50    6.02
   7  -7  -4  322.43    5.40
  -7   7   4  313.70    5.87
   7  -7  -4  320.79    5.88
   7   7  -3   34.91    1.46
  -7  -7   3   33.35    1.50
   7  -7  -3   32.95    1.24
   7  -7  -3   30.42    1.48
  -7   7   3   33.56    1.51
   7   7  -3   34.26    1.31
   7   7  -2  130.77    2.90
  -7  -7   2  127.06    2.97
   7  -7  -2  122.89    2.62
   7   7  -2  127.79    2.72
  -7   7   2  130.14    3.12
   7  -7  -2  123.69    3.17
  -7  -7   1  140.76    2.98
   7   7  -1  142.18    2.87
   7  -7  -1  144.51    2.83
  -7   7   1  147.46    2.92
   7   7  -1  139.56    2.86
   7  -7  -1  142.75    3.38
  -7   7   1  147.17    3.32
  -7  -7   1  138.94    2.97
   7  -7   0    6.06    0.62
  -7   7   0    6.14    0.67
  -7  -7   0    5.49    0.48
   7   7   0    5.19    0.44
  -7   7   0    5.59    0.53
  -7  -7   0    5.13    0.55
   7   7   0    5.65    0.53
  -7  -7   0    4.74    0.51
   7  -7   0    6.78    0.70
  -7   7  -1  321.26    5.69
   7  -7   1  315.67    5.58
   7   7   1  310.58    4.39
  -7  -7  -1  325.78    5.55
  -7  -7  -1  313.96    5.28
  -7   7  -1  320.77    5.23
  -7  -7  -1  315.24    4.25
   7  -7   1  319.58    5.73
  -7   7  -2   20.45    1.21
   7  -7   2   20.24    1.16
  -7  -7  -2   24.57    1.27
  -7  -7  -2   23.25    1.11
   7   7   2   23.77    1.23
  -7   7  -2   19.70    1.03
   7  -7   2   19.09    1.18
  -7   7  -3   14.10    1.05
   7  -7   3   14.21    1.04
  -7   7  -3   13.77    0.98
   7   7   3   17.03    1.09
  -7  -7  -3   16.89    1.07
   7  -7   3   14.40    1.04
  -7   7  -4    8.02    0.80
   7  -7   4    7.61    0.84
   7   7   4    7.20    0.78
  -7  -7  -4    7.45    0.75
   7  -7   4    8.29    0.85
   7  -7   5    6.13    0.79
  -7   7  -5    5.85    0.73
   7   7   5    5.82    0.74
   7  -7   5    5.41    0.73
   7  -7   6   22.90    1.51
   7   7   6   25.19    1.53
   7  -7   7   21.66    1.54
   7   7   7   22.49    1.52
   7   7   7   18.88    0.61
   7  -7   8    0.57    0.53
   7   7   8    0.85    0.51
   7   7   8    1.36    0.24
   7  -7   9    1.26    0.71
   7   7   9    1.49    0.65
   7  -7  10    0.41    0.67
   7   7  10   -0.24    0.48
   7  -7  11    2.54    0.84
   7   7  11    0.76    0.63
   7  -7  12   -0.41    0.72
  -7   9  12   -0.55    0.75
  -7  -9  11   -0.17    0.70
  -7   9  11    0.87    0.53
  -7   9  11    0.68    0.46
  -7  -9  10   24.00    2.07
  -7   9  10   23.29    1.38
  -7   9  10   23.77    1.66
  -7  -9   9    0.48    0.67
  -7   9   9    0.30    0.34
  -7   9   9   -0.16    0.42
   7  -9  -8    6.04    0.86
  -7  -9   8    6.60    1.06
  -7   9   8    5.92    0.62
  -7   9   8    4.75    0.75
   7  -9  -7   44.06    2.12
  -7  -9   7   45.62    2.39
  -7   9   7   44.42    1.53
  -7   9   7   43.82    2.03
   7  -9  -6   41.54    2.03
  -7  -9   6   41.35    2.15
  -7   9   6   43.23    1.31
  -7   9   6   44.79    1.98
  -7  -9   5  168.40    4.39
   7   9  -5  173.35    4.22
   7  -9  -5  178.57    3.94
   7  -9  -5  169.14    4.10
  -7   9   5  173.32    4.15
  -7  -9   4  180.15    4.32
   7   9  -4  189.00    4.21
   7  -9  -4  181.58    3.86
   7  -9  -4  177.73    4.20
   7   9  -4  181.91    3.93
  -7   9   4  176.83    4.09
  -7  -9   3  167.08    3.91
   7   9  -3  175.02    3.82
   7  -9  -3  172.74    3.62
   7   9  -3  171.02    3.65
  -7   9   3  168.97    3.88
   7  -9  -3  164.97    3.99
  -7  -9   2   11.02    0.87
   7   9  -2   11.34    0.82
   7  -9  -2   10.74    0.47
   7  -9  -2   12.12    0.82
   7   9  -2   11.35    0.82
  -7   9   2   11.67    0.92
   7  -9  -2   11.78    0.99
  -7   9   1    5.19    0.64
   7  -9  -1    3.91    0.53
   7   9  -1    4.27    0.47
  -7  -9   1    4.42    0.56
  -7   9   1    4.74    0.54
   7   9  -1    3.63    0.48
  -7  -9   1    5.28    0.58
   7  -9  -1    4.35    0.50
   7  -9  -1    3.91    0.62
  -7   9   0  111.45    3.00
   7   9   0  109.79    2.27
   7  -9   0  109.17    2.87
  -7  -9   0  112.71    2.46
   7   9   0  110.66    2.70
  -7  -9   0  109.75    2.81
  -7  -9   0  111.71    2.79
  -7   9   0  111.40    2.75
   7  -9   0  113.46    3.10
   7  -9   1    8.83    0.83
  -7  -9  -1    6.98    0.39
  -7   9  -1    9.91    0.89
   7   9   1    7.93    0.43
  -7  -9  -1    8.07    0.51
  -7  -9  -1    8.80    0.79
  -7  -9  -1    7.84    0.71
  -7   9  -1    8.82    0.74
   7  -9   1   11.30    0.93
  -7   9  -2    9.24    0.89
   7  -9   2    9.47    0.90
  -7   9  -2    8.59    0.78
  -7  -9  -2    8.55    0.77
  -7  -9  -2    8.38    0.81
   7  -9   2    8.31    0.84
   7  -9   3    8.25    0.89
  -7   9  -3    9.40    0.93
  -7   9  -3    8.98    0.85
  -7  -9  -3    8.51    0.85
  -7  -9  -3    8.64    0.80
   7   9   3    7.73    0.81
  -7   9  -3    9.41    0.84
   7  -9   3    8.95    0.91
   7  -9   4   27.79    1.62
  -7   9  -4   32.75    1.67
  -7  -9  -4   30.46    1.59
  -7  -9  -4   31.88    1.54
   7   9   4   29.00    1.56
   7  -9   4   30.96    1.70
   7  -9   5   49.43    2.23
   7   9   5   47.11    2.06
   7  -9   6   17.24    1.41
   7   9   6   18.81    1.37
   7  -9   7   11.85    1.24
   7   9   7   12.89    1.23
   7  -9   8    2.10    0.76
   7   9   8    1.81    0.63
   7  -9   9   -0.69    0.67
   7   9   9    0.04    0.71
   7  -9  10    1.78    0.80
   7   9  10    1.90    0.62
   7  -9  11    1.85    0.84
  -7 -11  11    1.89    0.93
  -7  11  11    2.75    0.77
  -7 -11  10   51.86    3.09
  -7  11  10   53.36    2.09
  -7  11  10   52.44    2.52
  -7 -11   9    1.81    0.76
  -7  11   9    2.66    0.49
  -7  11   9    3.05    1.12
   7 -11  -8  103.36    3.51
  -7 -11   8  109.10    4.13
  -7  11   8  103.70    2.64
  -7  11   8  108.86    3.47
  -7 -11   7    0.17    0.59
   7 -11  -7   -0.57    0.47
  -7  11   7    0.58    0.25
  -7  11   7    0.48    0.40
   7 -11  -6    7.96    0.95
  -7 -11   6    7.77    1.02
   7  11  -6    8.43    0.91
   7 -11  -6    7.06    0.82
  -7  11   6    7.96    0.95
  -7 -11   5   24.07    1.63
   7 -11  -5   22.78    1.36
   7 -11  -5   21.96    1.41
   7  11  -5   22.72    1.39
  -7  11   5   23.91    1.42
   7  11  -4  104.13    3.08
  -7 -11   4   98.41    3.15
   7  11  -4   95.47    2.84
   7 -11  -4   97.17    2.83
  -7  11   4   96.59    2.91
   7 -11  -4   95.59    3.05
  -7  11   3    0.55    0.39
   7  11  -3    0.45    0.29
  -7 -11   3    0.53    0.45
   7 -11  -3   -0.04    0.33
   7 -11  -3    0.00    0.15
   7 -11  -3    0.49    0.36
   7  11  -3    0.37    0.33
  -7  11   2    6.81    0.76
   7  11  -2    6.94    0.68
   7 -11  -2    8.22    0.77
  -7 -11   2    7.67    0.76
   7  11  -2    7.27    0.74
   7 -11  -2    8.35    0.76
   7 -11  -2    8.49    0.50
   7 -11  -2    9.21    0.92
  -7  11   1    2.90    0.55
   7 -11  -1    2.44    0.50
  -7 -11   1    2.46    0.40
   7  11  -1    2.93    0.43
  -7 -11   1    3.44    0.51
  -7  11   1    2.44    0.48
   7  11  -1    2.79    0.48
   7 -11  -1    2.89    0.47
  -7 -11   1    2.05    0.41
   7 -11  -1    1.78    0.47
   7 -11   0  153.37    3.74
  -7 -11   0  150.41    2.94
  -7  11   0  161.64    3.88
   7  11   0  154.40    2.98
  -7 -11   0  155.46    3.22
  -7 -11   0  159.69    3.77
  -7 -11   0  147.60    3.54
   7  11   0  153.78    3.60
  -7  11   0  155.91    3.67
   7 -11   0  156.67    3.98
  -7 -11  -1    1.09    0.23
   7  11   1    1.21    0.24
  -7  11  -1    0.73    0.41
   7 -11   1    1.96    0.50
   7 -11   1    1.25    0.46
  -7 -11  -1    0.64    0.29
  -7 -11  -1    1.19    0.38
  -7  11  -1    0.25    0.36
  -7 -11  -1    0.96    0.40
  -7  11  -2  164.66    4.16
   7 -11   2  163.06    4.08
  -7 -11  -2  165.94    2.60
  -7 -11  -2  178.65    4.11
  -7  11  -2  168.21    3.96
  -7 -11  -2  177.13    4.08
  -7 -11  -2  161.35    2.38
   7 -11   2  173.30    4.27
  -7  11  -3    2.47    0.62
   7 -11   3    3.87    0.67
  -7 -11  -3    4.24    0.65
  -7  11  -3    4.46    0.67
   7 -11   4    0.59    0.43
  -7  11  -4    0.53    0.39
   7  11   5    0.39    0.37
   7 -11   5    0.02    0.51
   7 -11   6   13.30    1.33
   7  11   6   14.11    1.25
   7 -11   7   -0.31    0.62
   7  11   7   -0.66    0.56
   7 -11   8    0.07    0.64
   7  11   8    0.21    0.47
   7 -11   9    0.07    0.61
   7  11   9    0.58    0.58
   7 -11  10    1.77    0.92
   7  11  10    2.69    0.75
  -7 -13  10   20.84    2.01
  -7  13  10   17.33    1.45
  -7 -13   9   -0.50    0.86
  -7  13   9    0.52    0.37
  -7  13   9   -0.03    0.45
  -7 -13   8    5.27    1.06
   7  13  -8    8.05    1.09
  -7  13   8    6.70    1.46
   7 -13  -7    9.62    1.09
  -7 -13   7   10.70    1.31
   7  13  -7   12.27    1.21
  -7  13   7   13.22    1.15
  -7 -13   6   38.96    2.25
  -7  13   6   40.40    1.93
   7  13  -6   39.49    2.04
  -7 -13   5  114.11    3.77
   7  13  -5  113.94    3.47
   7 -13  -5  113.72    3.50
  -7  13   5  119.96    3.42
   7 -13  -4   36.55    1.69
  -7 -13   4   37.62    1.99
   7  13  -4   39.30    1.87
  -7  13   4   38.85    1.83
   7 -13  -4   37.62    1.94
  -7 -13   3  143.12    3.63
   7  13  -3  144.46    3.63
   7 -13  -3  137.91    3.52
  -7 -13   3  138.57    3.79
   7  13  -3  136.90    3.66
   7 -13  -3  137.03    2.69
  -7  13   3  137.13    3.69
   7 -13  -3  135.91    3.94
  -7  13   2    5.72    0.77
  -7 -13   2    8.20    0.78
   7 -13  -2    7.12    0.75
   7  13  -2    6.77    0.71
  -7 -13   2    8.18    0.86
   7  13  -2    7.04    0.79
   7 -13  -2    6.83    0.55
   7 -13  -2    6.92    0.75
   7 -13  -2    7.84    0.94
  -7  13   1   27.40    1.56
   7 -13  -1   25.16    1.45
  -7 -13   1   27.95    1.28
   7  13  -1   27.11    1.26
  -7 -13   1   26.97    1.37
  -7  13   1   26.59    1.50
   7  13  -1   26.54    1.46
  -7 -13   1   28.82    1.58
   7 -13  -1   32.30    1.78
   7 -13  -1   27.11    1.45
  -7 -13   0   14.70    0.86
  -7  13   0   15.94    1.21
   7  13   0   14.35    0.83
   7 -13   0   14.81    1.12
  -7 -13   0   14.72    0.94
   7  13   0   14.06    1.07
  -7  13   0   14.91    1.15
  -7  13  -1   14.13    1.19
   7 -13   1   13.92    1.14
   7  13   1   14.72    0.73
  -7 -13  -1   13.56    0.83
  -7  13  -1   12.10    1.07
  -7 -13  -1   12.99    0.72
  -7  13  -2   59.34    2.45
   7 -13   2   61.65    2.47
  -7 -13  -2   60.42    1.49
  -7  13  -2   61.85    2.39
  -7 -13  -2   57.86    1.33
   7 -13   3    4.27    0.77
  -7  13  -3    3.85    0.72
  -7  13  -3    2.57    0.58
   7 -13   4    3.24    0.73
  -7  13  -4    3.34    0.69
   7 -13   5   20.61    1.63
  -7  13  -5   21.27    1.55
   7 -13   6    6.94    1.08
   7  13   6    7.27    0.94
  -7  13  -6    6.89    0.97
   7 -13   7    7.59    1.24
   7  13   7    4.58    0.80
   7 -13   8    2.54    0.85
   7  13   8    2.58    0.75
   7 -13   9    0.16    0.69
   7  13   9    1.97    0.70
  -7 -15   9   14.89    1.78
   7  15  -9   14.29    1.52
  -7  15   9   13.81    1.26
  -7 -15   8    1.50    0.69
  -7  15   8    2.36    0.62
   7  15  -8    1.96    0.66
  -7 -15   7    1.24    0.74
  -7  15   7    1.42    0.55
   7  15  -7    1.10    0.55
  -7 -15   6    4.04    0.91
   7 -15  -6    4.41    0.68
  -7  15   6    3.63    0.68
   7  15  -6    2.60    0.62
   7 -15  -5   49.54    2.07
  -7 -15   5   47.68    2.48
   7  15  -5   47.81    2.32
  -7  15   5   45.71    2.10
   7 -15  -4   50.04    2.09
  -7 -15   4   46.34    2.34
   7  15  -4   47.97    2.26
   7 -15  -4   50.52    1.54
  -7  15   4   50.28    2.21
  -7 -15   3   72.70    2.60
   7 -15  -3   69.12    2.50
  -7  15   3   67.58    2.59
   7 -15  -3   68.77    1.92
   7  15  -3   68.80    2.67
  -7 -15   3   67.70    2.70
   7 -15  -2   29.21    1.62
  -7 -15   2   29.34    1.53
  -7  15   2   26.44    1.59
   7  15  -2   27.93    1.46
   7 -15  -2   29.77    1.25
   7  15  -2   29.74    1.68
  -7 -15   2   31.44    1.69
  -7 -15   1   60.19    2.08
  -7  15   1   56.47    2.37
   7  15  -1   56.91    1.98
   7 -15  -1   58.21    2.34
  -7  15   1   57.70    2.43
   7  15  -1   55.71    2.32
  -7 -15   1   61.89    2.25
  -7 -15   0    7.78    0.77
   7  15   0    8.36    0.75
   7 -15   0    8.15    0.91
  -7  15   0    8.44    0.95
  -7 -15   0    7.74    0.75
  -7  15   0    8.81    0.96
   7  15   0    7.50    0.86
  -7  15  -1   62.40    2.61
   7  15   1   64.45    1.79
   7 -15   1   59.68    2.53
  -7 -15  -1   64.87    1.97
  -7  15  -1   59.77    2.52
  -7 -15  -1   63.83    1.85
  -7  15  -2    2.13    0.58
   7 -15   2    2.41    0.63
  -7 -15  -2    3.41    0.44
  -7  15  -2    2.86    0.70
  -7 -15  -2    3.99    0.40
   7 -15   3    0.26    0.53
  -7  15  -3    0.36    0.43
   7 -15   4   14.77    1.41
  -7  15  -4   14.25    1.32
   7 -15   5    9.99    1.25
  -7  15  -5   11.32    1.27
   7 -15   6   16.66    1.64
  -7  15  -6   17.50    1.55
   7 -15   7    4.73    1.00
  -7  15  -7    5.23    0.98
  -7  15  -8    4.57    0.94
  -7 -17   8    2.73    0.91
  -7  17   8    2.33    0.61
   7  17  -8    0.46    0.47
  -7 -17   7    3.69    0.96
  -7  17   7    4.35    0.75
   7 -17  -7    4.88    0.79
   7  17  -7    3.86    0.86
  -7 -17   6    3.28    0.85
  -7  17   6    2.75    0.63
   7 -17  -6    2.89    0.59
   7  17  -6    2.73    0.75
  -7 -17   5    5.34    1.00
  -7  17   5    5.73    0.80
   7 -17  -5    4.91    0.71
   7  17  -5    6.40    0.95
  -7  17   4    0.22    0.41
   7 -17  -4    0.13    0.38
   7  17  -4    0.99    0.60
  -7 -17   4    0.16    0.58
   7 -17  -3    0.27    0.39
  -7  17   3    0.76    0.47
   7  17  -3    1.18    0.53
  -7 -17   3    0.84    0.52
  -7 -17   2    1.99    0.54
  -7  17   2    3.24    0.69
   7 -17  -2    2.80    0.62
   7 -17  -2    3.74    0.55
   7  17  -2    2.21    0.63
  -7 -17   2    2.71    0.67
  -7  17   1   82.82    3.06
   7  17  -1   83.00    2.58
   7 -17  -1   81.76    2.97
  -7 -17   1   80.53    2.63
   7  17  -1   75.86    2.95
  -7  17   1   81.68    3.11
   7 -17  -1   80.35    2.41
  -7 -17   1   81.48    2.78
  -7 -17   0    1.83    0.49
   7 -17   0    0.38    0.46
   7  17   0    0.92    0.39
  -7  17   0    1.55    0.57
  -7  17   0    0.38    0.49
   7  17   0    2.09    0.65
  -7 -17   0    1.59    0.49
  -7  17  -1  122.58    3.95
   7 -17   1  124.03    3.96
  -7 -17  -1  125.79    3.10
  -7  17  -1  121.93    3.96
   7 -17   2    2.02    0.71
  -7 -17  -2    2.30    0.43
  -7  17  -2    2.98    0.78
   7 -17   3   13.57    1.40
  -7  17  -3   16.38    1.46
   7 -17   4    0.20    0.56
  -7  17  -4    0.24    0.56
   7 -17   5    3.20    0.91
  -7  17  -5    3.31    0.82
   7 -17   6    1.50    0.65
  -7  17  -6    1.39    0.66
  -7  17  -7    7.46    1.21
  -7 -19   7    3.04    0.98
  -7 -19   6    6.34    1.12
   7 -19  -6    7.01    0.89
  -7  19   6    7.29    0.98
   7  19  -6    9.32    1.25
   7 -19  -5   32.50    1.85
  -7  19   5   32.24    1.89
   7  19  -5   30.33    2.11
  -7 -19   5   30.89    2.22
  -7  19   4   39.27    2.11
   7 -19  -4   41.90    2.11
   7  19  -4   41.18    2.36
  -7 -19   4   41.77    2.45
   7 -19  -3    6.43    0.92
  -7  19   3    7.65    0.99
   7  19  -3    7.16    1.05
  -7 -19   3    5.74    0.93
   7 -19  -2    7.42    0.98
  -7  19   2    5.67    0.89
   7  19  -2    8.21    1.08
  -7 -19   2    7.03    0.94
   7 -19  -1    2.51    0.69
  -7  19   1    2.34    0.70
  -7  19   1    2.97    0.77
   7  19  -1    2.73    0.69
  -7 -19   1    2.60    0.67
  -7  19   0    4.96    0.87
  -7  19   0    5.68    0.96
  -7 -19   0    6.70    0.83
   7 -19   0    4.80    0.89
   7 -19   1   15.91    1.50
  -7  19  -1   16.39    1.53
   7 -19   2    0.71    0.66
  -7  19  -2    1.63    0.76
   7 -19   3   -0.58    0.59
  -7  19  -3    1.76    0.73
   7 -19   4    7.21    1.16
  -7  19  -4    6.73    1.09
  -7  19  -5    7.49    1.14
  -7  21   5   12.19    1.29
  -7 -21   5   12.76    1.57
   7 -21  -4   16.68    1.43
  -7  21   4   17.23    1.48
  -7 -21   4   15.83    1.64
   7 -21  -3    8.83    1.09
  -7  21   3   10.79    1.23
   7  21  -3   11.76    1.34
  -7 -21   3   10.89    1.33
  -7  21   2    0.35    0.53
   7  21  -2    1.79    0.61
  -7 -21   2    1.90    0.72
   7 -21  -2    1.03    0.65
  -7  21   1    2.21    0.71
   7  21  -1    2.21    0.65
   7 -21  -1    1.26    0.61
   7 -21   0   18.62    1.68
  -7  21   0   17.25    1.62
  -7  21  -1    2.75    0.77
   7 -21   1    2.83    0.77
   7 -21   2   20.30    1.80
  -7  21  -2   19.74    1.77
  -7  21  -3    4.05    0.99
  -7 -23   4    6.83    1.34
   7 -23  -3    2.27    0.78
  -7  23   3    4.22    0.91
   7 -23  -2    1.63    0.67
  -7  23   2    1.17    0.58
   7 -23  -1    0.89    0.57
   7 -23   0   38.39    2.47
  -8   0  13   -0.21    0.81
  -8   0  12   16.71    1.75
  -8   0  11    0.38    0.66
  -8   0  10    7.52    1.17
  -8   0   9    0.10    0.58
  -8   0   8   93.36    3.35
   8   0  -7    0.36    0.35
  -8   0   7    0.65    0.50
  -8   0   6  343.83    6.69
   8   0  -6  349.25    6.65
   8   0  -5    0.57    0.36
  -8   0   5    0.46    0.41
   8   0  -4   37.74    1.79
  -8   0   4   37.63    1.49
   8   0  -3    0.15    0.33
  -8   0   3    0.44    0.35
   8   0  -2   78.64    2.28
  -8   0   2   84.23    2.09
  -8   0   1    0.38    0.18
  -8   0   1    1.16    0.33
   8   0  -1    1.11    0.31
   8   0   0    6.79    0.48
  -8   0   0    7.11    0.47
  -8   0   0    7.49    0.59
   8   0   0    6.15    0.52
  -8   0  -1    4.01    0.45
   8   0   1    3.46    0.40
   8   0   1    3.38    0.40
   8   0   2  245.41    4.00
  -8   0  -2  239.43    4.03
   8   0   2  241.65    4.16
   8   0   2  244.46    4.05
   8   0   3    4.22    0.47
  -8   0  -3    6.05    0.56
   8   0   3    6.65    0.66
   8   0   3    5.02    0.50
   8   0   4 1324.88   17.30
   8   0   4 1356.73   17.81
   8   0   4 1329.40   17.33
   8   0   5    6.22    0.61
  -8   0  -5    5.56    0.55
   8   0   5    5.79    0.70
   8   0   5    6.09    0.59
  -8   0  -6   19.93    1.04
   8   0   6   22.69    1.16
   8   0   6   21.29    1.29
   8   0   6   21.16    1.14
   8   0   7    1.02    0.37
  -8   0  -7    1.12    0.39
   8   0   7    1.27    0.49
   8   0   7    0.14    0.38
   8   0   8    4.66    0.65
  -8   0  -8    5.23    0.65
   8   0   8    4.98    0.81
   8   0   8    5.70    0.75
   8   0   9   -0.51    0.45
  -8   0  -9   -0.04    0.33
   8   0   9    0.00    0.45
   8   0   9   -0.05    0.45
   8   0  10    1.93    0.54
   8   0  10    3.01    0.72
   8   0  11    0.97    0.65
  -8  -2  13    4.20    1.03
  -8   2  13    5.79    1.07
  -8  -2  12   12.58    1.59
  -8   2  12   10.72    1.28
  -8  -2  11   21.02    1.88
  -8   2  11   23.04    1.71
  -8   2  10    0.81    0.65
  -8  -2  10    1.92    0.71
  -8   2  10    2.00    0.66
  -8   2   9   68.94    2.94
  -8  -2   9   70.27    3.06
  -8   2   9   71.84    2.75
  -8  -2   8    1.66    0.56
   8  -2  -8    2.13    0.53
  -8   2   8    1.81    0.51
   8   2  -7    2.42    0.54
  -8  -2   7    2.81    0.62
   8  -2  -7    2.46    0.63
  -8   2   7    2.50    0.54
   8  -2  -6   81.27    2.77
   8   2  -6   82.32    2.74
  -8  -2   6   78.09    2.76
  -8   2   6   81.93    2.55
   8  -2  -5    0.92    0.44
   8   2  -5    0.60    0.36
  -8  -2   5    0.77    0.44
  -8   2   5    0.66    0.32
  -8  -2   4   21.36    1.26
   8   2  -4   21.00    1.22
   8  -2  -4   19.83    1.27
  -8   2   4   21.07    1.15
   8   2  -3  309.40    5.54
  -8  -2   3  312.46    5.56
   8  -2  -3  314.40    5.74
   8  -2  -3  309.12    5.39
  -8   2   3  312.44    5.36
   8   2  -2   70.27    2.04
  -8   2   2   67.24    1.20
   8  -2  -2   68.48    1.98
  -8   2   2   72.07    2.01
  -8  -2   2   70.54    1.83
   8   2  -1   43.45    1.48
  -8  -2   1   41.71    1.21
   8   2  -1   41.15    0.83
  -8   2   1   37.99    0.88
  -8  -2   1   41.60    1.28
   8  -2  -1   38.62    1.41
  -8   2   1   43.20    1.52
   8  -2   0   56.34    1.27
   8   2   0   56.39    1.53
  -8  -2   0   53.90    1.49
  -8  -2   0   51.42    1.07
  -8   2   0   53.10    0.99
   8   2   0   52.74    1.38
  -8  -2   0   52.68    1.41
  -8   2   0   51.16    1.62
   8  -2   0   53.31    1.66
   8  -2   1    2.09    0.38
  -8   2  -1    2.38    0.44
   8   2   1    2.34    0.42
   8  -2   1    2.05    0.30
  -8  -2  -1    1.75    0.33
   8   2   1    2.31    0.30
  -8  -2  -1    1.81    0.29
   8  -2   1    1.76    0.39
   8  -2   2   53.47    1.63
   8   2   2   56.34    1.34
  -8  -2  -2   56.23    1.35
  -8   2  -2   56.46    1.70
  -8  -2  -2   55.87    1.68
   8   2   2   53.87    1.69
   8  -2   2   53.24    1.64
   8   2   2   54.07    1.35
   8  -2   3    2.83    0.42
   8  -2   3    2.80    0.44
   8   2   3    2.15    0.30
  -8   2  -3    2.76    0.46
  -8  -2  -3    2.50    0.31
   8   2   3    1.84    0.39
   8   2   3    1.90    0.29
   8   2   4    3.74    0.39
   8  -2   4    4.19    0.55
  -8   2  -4    3.27    0.46
   8   2   4    3.63    0.55
   8   2   4    3.51    0.39
   8  -2   4    4.31    0.55
   8  -2   5    0.62    0.31
   8   2   5    0.94    0.25
  -8   2  -5    0.78    0.35
   8   2   5    1.16    0.44
   8  -2   5    0.64    0.33
   8   2   5    0.81    0.29
   8   2   6    5.33    0.51
   8  -2   6    6.68    0.72
  -8   2  -6    5.57    0.65
  -8  -2  -6    5.53    0.51
   8   2   6    6.44    0.80
   8  -2   6    7.04    0.76
   8   2   6    5.20    0.54
   8   2   7    1.38    0.36
   8  -2   7    0.95    0.43
  -8  -2  -7    1.26    0.36
  -8   2  -7    1.27    0.45
   8   2   7    1.41    0.52
   8  -2   7    0.51    0.37
   8   2   7    1.39    0.40
   8   2   8    5.48    0.64
   8  -2   8    7.24    0.85
  -8   2  -8    5.98    0.72
  -8  -2  -8    7.50    0.69
   8   2   8    6.96    0.91
   8   2   8    6.76    0.73
   8  -2   8    6.82    0.84
   8   2   9    2.07    0.48
   8   2   9    2.52    0.52
   8  -2   9    2.22    0.64
   8   2   9    2.64    0.71
   8  -2  10    1.77    0.67
   8   2  10    0.25    0.36
   8   2  10    1.12    0.59
   8  -2  11   -0.46    0.55
   8   2  11   -0.09    0.45
  -8   4  14    0.66    0.56
  -8  -4  13    1.51    0.85
  -8   4  13    1.70    0.66
  -8  -4  12    9.68    1.48
  -8   4  12    5.85    1.06
  -8  -4  11   45.58    2.80
  -8   4  11   48.76    2.51
  -8  -4  10   31.97    2.20
  -8   4  10   31.79    1.93
  -8  -4   9   16.40    1.52
  -8   4   9   19.39    1.44
   8  -4  -8    6.06    0.86
  -8  -4   8    5.07    0.93
  -8   4   8    5.76    0.78
   8  -4  -7  112.85    3.44
   8   4  -7  110.49    3.45
  -8  -4   7  105.86    3.52
  -8   4   7  111.59    3.21
   8  -4  -6    3.82    0.62
   8   4  -6    4.47    0.67
  -8  -4   6    4.00    0.70
  -8   4   6    4.55    0.66
  -8  -4   5   80.50    2.67
   8   4  -5   77.66    2.56
   8  -4  -5   77.29    2.65
  -8   4   5   74.38    2.39
  -8  -4   4   49.74    1.94
   8   4  -4   50.02    1.89
   8  -4  -4   45.14    1.92
   8  -4  -4   47.03    1.79
  -8   4   4   44.31    1.72
  -8  -4   3   23.99    1.25
   8   4  -3   23.34    1.18
   8  -4  -3   22.33    1.18
  -8   4   3   21.80    1.17
   8   4  -2  475.52    7.27
  -8  -4   2  478.18    7.35
   8   4  -2  468.78    6.45
   8  -4  -2  464.56    6.33
  -8   4   2  464.45    7.45
   8  -4  -2  451.52    7.44
  -8  -4   1  197.26    3.63
   8   4  -1  194.45    3.60
   8  -4  -1  189.20    2.64
  -8   4   1  191.44    2.96
  -8  -4   1  194.44    3.47
   8   4  -1  195.93    3.07
   8  -4  -1  183.90    2.91
  -8   4   1  195.77    3.87
  -8  -4   1  197.34    3.35
   8  -4  -1  194.61    3.88
  -8  -4   1  192.19    3.13
   8   4   0  152.59    2.92
  -8  -4   0  155.08    2.72
  -8  -4   0  156.54    3.11
  -8   4   0  158.28    2.62
   8  -4   0  161.77    3.39
  -8  -4   0  157.25    2.71
  -8   4   0  151.16    3.33
   8  -4   1   10.51    0.75
   8   4   1    9.36    0.56
  -8  -4  -1   11.98    0.63
  -8  -4  -1   12.09    0.78
   8   4   1   11.67    0.79
  -8  -4  -1   10.97    0.52
  -8   4  -1    8.64    0.73
   8  -4   1    9.63    0.76
  -8   4  -2   33.87    1.41
   8  -4   2   36.85    1.44
   8   4   2   37.50    0.90
  -8  -4  -2   36.96    0.86
   8   4   2   37.27    1.46
  -8  -4  -2   40.20    1.48
   8   4   2   35.62    0.86
   8  -4   2   34.69    1.43
  -8   4  -3  100.14    2.62
   8  -4   3  100.07    2.58
   8   4   3   97.23    1.68
   8   4   3   97.70    2.60
  -8  -4  -3  100.86    2.61
   8   4   3   95.73    1.67
   8  -4   3   99.63    2.64
   8  -4   4    5.90    0.67
  -8   4  -4    6.14    0.66
   8  -4   4    6.27    0.67
   8   4   4    7.31    0.40
   8   4   4    7.53    0.77
   8   4   4    6.98    0.39
   8  -4   5   15.65    1.08
   8  -4   5   18.15    1.16
  -8   4  -5   15.08    1.02
   8   4   5   15.47    0.67
   8   4   5   17.06    1.15
   8   4   5   15.73    0.66
   8   4   6    4.28    0.40
   8  -4   6    5.20    0.69
  -8   4  -6    5.37    0.70
   8   4   6    5.20    0.75
   8  -4   6    4.83    0.70
   8   4   6    5.22    0.48
   8   4   7    4.69    0.48
   8  -4   7    5.47    0.77
  -8   4  -7    3.87    0.65
   8   4   7    5.35    0.81
   8  -4   7    5.83    0.82
   8   4   7    4.80    0.54
  -8  -4  -8    5.34    0.51
   8   4   8    6.70    0.60
   8  -4   8    5.86    0.89
   8   4   8    6.20    0.63
   8   4   8    5.64    0.84
   8   4   9    5.12    0.65
   8  -4   9    5.39    0.88
   8   4   9    5.40    0.89
   8  -4  10    4.79    0.90
   8   4  10    4.26    0.85
   8  -4  11    0.43    0.72
   8   4  11    0.29    0.54
   8  -4  12    1.11    0.84
  -8   6  13    2.09    0.66
  -8   6  13    0.56    0.59
  -8  -6  12   -0.86    0.76
  -8   6  12    0.47    0.46
  -8   6  12    1.19    0.65
  -8  -6  11    1.57    0.79
  -8   6  11    2.42    0.55
  -8   6  11    1.61    0.59
  -8  -6  10    1.27    0.72
  -8   6  10    1.73    0.48
  -8   6  10    0.84    0.52
  -8  -6   9   22.88    1.83
  -8   6   9   25.56    1.28
  -8   6   9   24.79    1.61
   8  -6  -8    3.86    0.72
  -8  -6   8    3.81    0.86
  -8   6   8    3.50    0.47
  -8   6   8    3.15    0.61
  -8  -6   7  196.92    5.11
   8  -6  -7  193.48    4.83
  -8   6   7  192.43    3.54
  -8   6   7  197.00    4.59
  -8  -6   6    1.62    0.54
   8  -6  -6    2.19    0.59
   8   6  -6    1.29    0.43
  -8   6   6    1.93    0.28
  -8   6   6    1.86    0.47
   8   6  -5  207.90    4.66
  -8  -6   5  210.11    4.83
   8  -6  -5  213.23    4.91
  -8   6   5  205.89    3.16
  -8   6   5  210.39    4.53
  -8  -6   4    7.50    0.80
   8   6  -4    7.18    0.73
  -8   6   4    7.86    0.29
   8  -6  -4    8.50    0.79
  -8   6   4    7.91    0.81
  -8  -6   3    8.84    0.81
   8   6  -3    8.60    0.74
   8  -6  -3    7.95    0.57
  -8   6   3    8.08    0.79
   8  -6  -3    8.10    0.77
   8   6  -3    8.20    0.60
   8   6  -2  235.40    4.36
  -8  -6   2  234.66    4.47
   8   6  -2  234.90    3.97
   8  -6  -2  231.93    3.86
   8  -6  -2  232.04    4.68
  -8   6   2  231.51    4.59
   8   6  -1  157.02    3.14
  -8  -6   1  160.21    3.26
  -8   6   1  166.09    2.98
   8  -6  -1  154.87    2.84
   8   6  -1  163.09    2.99
   8  -6  -1  158.02    3.66
  -8   6   1  161.97    3.56
  -8  -6   1  160.51    3.08
   8  -6   0   31.74    1.37
   8   6   0   33.62    1.11
  -8  -6   0   35.48    1.17
  -8   6   0   30.25    1.10
  -8  -6   0   33.84    1.21
  -8  -6   0   34.00    1.34
  -8   6   0   32.59    1.44
   8  -6   0   31.26    1.45
   8  -6   1   34.01    1.46
  -8   6  -1   35.58    1.53
   8   6   1   37.38    1.01
  -8  -6  -1   36.50    1.48
  -8   6  -1   34.48    1.23
  -8  -6  -1   35.07    1.27
  -8  -6  -1   37.26    0.89
   8  -6   1   37.67    1.58
   8  -6   2    1.10    0.36
   8  -6   2    1.13    0.36
  -8   6  -2    1.60    0.43
   8   6   2    1.24    0.15
   8   6   2    1.82    0.42
  -8  -6  -2    1.35    0.33
  -8  -6  -2    1.14    0.43
  -8   6  -3  154.95    3.72
   8  -6   3  157.45    3.65
  -8   6  -3  166.85    3.67
   8   6   3  157.76    3.66
  -8  -6  -3  167.81    3.73
   8  -6   3  163.87    3.81
   8  -6   4    2.30    0.51
  -8   6  -4    2.15    0.47
  -8   6  -4    2.24    0.54
   8  -6   4    2.31    0.51
   8   6   4    2.43    0.55
  -8   6  -5   36.83    1.69
   8  -6   5   33.12    1.70
   8   6   5   38.03    1.78
   8  -6   5   36.88    1.78
   8  -6   6    1.89    0.57
   8   6   6    2.15    0.58
   8   6   6    2.02    0.20
   8   6   7    0.08    0.16
   8  -6   7   -0.01    0.44
   8   6   7    0.51    0.20
   8   6   7    0.29    0.47
   8   6   8    0.68    0.23
   8  -6   8    0.70    0.55
   8   6   8    0.51    0.49
   8  -6   9    9.52    1.20
   8   6   9    7.31    1.05
   8  -6  10    2.05    0.83
   8   6  10    1.27    0.54
   8  -6  11   -0.25    0.67
   8  -6  12    0.33    0.99
  -8   8  13    2.19    1.17
  -8  -8  12    5.36    1.21
  -8   8  12    6.44    1.03
  -8  -8  11   31.49    2.44
  -8   8  11   29.09    1.60
  -8   8  11   28.01    1.96
  -8  -8  10   22.46    2.01
  -8   8  10   21.06    1.25
  -8   8  10   23.17    1.69
  -8  -8   9   -1.29    0.89
  -8   8   9   -0.16    0.29
  -8   8   9   -0.01    0.44
  -8  -8   8    3.24    0.76
  -8   8   8    2.89    0.43
  -8   8   8    3.42    0.70
   8  -8  -7    9.74    1.07
  -8  -8   7    9.22    1.13
  -8   8   7    8.51    0.61
  -8   8   7    9.61    0.98
   8  -8  -6    0.59    0.39
  -8  -8   6    1.89    0.63
  -8   8   6    1.10    0.22
  -8   8   6    1.11    0.45
   8   8  -5   27.07    1.53
  -8  -8   5   24.39    1.55
   8  -8  -5   26.95    1.31
  -8   8   5   24.63    0.75
   8  -8  -5   26.13    1.45
  -8   8   5   27.57    1.52
   8   8  -4  130.86    3.38
  -8  -8   4  127.07    3.48
   8  -8  -4  134.70    3.03
  -8   8   4  123.29    3.35
   8  -8  -4  126.38    3.39
   8   8  -4  128.06    3.04
   8   8  -3  126.79    3.15
  -8  -8   3  127.76    3.28
   8  -8  -3  128.60    2.86
   8   8  -3  124.44    2.88
   8  -8  -3  129.35    3.43
  -8   8   3  127.08    3.28
  -8  -8   2  180.11    3.81
   8   8  -2  176.06    3.64
   8   8  -2  178.78    3.51
   8  -8  -2  168.09    3.38
  -8   8   2  170.38    3.90
   8  -8  -2  183.07    4.15
   8  -8  -1  115.46    2.94
   8   8  -1  112.92    2.58
  -8  -8   1  120.64    2.79
   8  -8  -1  115.79    2.58
  -8   8   1  114.95    2.66
   8   8  -1  116.78    2.66
  -8   8   1  118.75    3.10
   8  -8  -1  122.42    3.24
  -8  -8   1  120.10    2.79
   8  -8   0   81.17    2.41
   8   8   0   80.96    1.87
  -8  -8   0   81.89    2.02
  -8  -8   0   85.79    2.28
  -8   8   0   81.50    2.18
  -8  -8   0   83.55    2.36
   8   8   0   82.92    2.14
   8  -8   0   80.12    2.57
  -8   8   0   81.00    2.50
  -8   8  -1   18.17    1.19
   8  -8   1   20.25    1.19
   8   8   1   20.42    0.70
  -8  -8  -1   24.23    1.24
  -8   8  -1   20.79    1.06
  -8  -8  -1   22.97    1.14
  -8  -8  -1   20.96    0.64
   8  -8   1   20.07    1.23
  -8   8  -2   11.90    0.99
   8  -8   2   11.66    0.95
  -8  -8  -2   12.95    0.89
  -8  -8  -2   12.56    0.96
   8  -8   2   11.29    0.95
  -8   8  -2   11.86    0.84
  -8   8  -3   78.90    2.62
   8  -8   3   75.24    2.52
  -8   8  -3   81.20    2.57
  -8  -8  -3   77.32    2.33
  -8  -8  -3   77.90    2.50
   8   8   3   72.74    2.42
   8  -8   3   76.79    2.58
   8  -8   4   26.84    1.54
  -8   8  -4   29.23    1.54
  -8  -8  -4   29.15    1.54
   8   8   4   28.21    1.52
   8  -8   4   27.89    1.58
   8  -8   5   17.85    1.34
   8   8   5   19.46    1.33
   8  -8   6    6.49    0.93
   8   8   6    5.30    0.81
   8  -8   7    2.85    0.73
   8   8   7    3.83    0.80
   8  -8   8   12.07    1.33
   8   8   8   10.41    1.18
   8  -8   9    2.07    0.71
   8   8   9    2.62    0.75
   8  -8  10    1.58    0.71
   8   8  10    0.60    0.61
   8  -8  11    0.84    0.77
  -8  10  12    8.21    1.18
  -8 -10  11    4.34    1.06
  -8  10  11    4.40    0.88
  -8 -10  10    5.91    1.19
  -8  10  10    5.69    0.71
  -8  10  10    5.55    0.87
  -8 -10   9    2.60    0.89
  -8  10   9    2.02    0.41
  -8  10   9    3.09    0.73
  -8 -10   8   25.06    1.96
  -8  10   8   30.60    1.28
  -8  10   8   26.73    1.70
   8 -10  -7    0.77    0.46
  -8 -10   7    0.63    0.53
  -8  10   7    0.98    0.26
  -8  10   7    2.04    0.61
   8 -10  -6  198.05    5.04
  -8 -10   6  194.77    5.17
  -8  10   6  198.36    4.75
  -8 -10   5   46.16    2.22
   8  10  -5   44.03    2.02
   8 -10  -5   46.02    1.87
   8 -10  -5   41.58    1.95
  -8  10   5   45.92    2.03
   8  10  -5   46.47    1.92
   8  10  -4    2.05    0.49
  -8 -10   4    1.41    0.45
   8 -10  -4    2.05    0.44
  -8  10   4    1.68    0.47
   8  10  -4    2.41    0.48
   8 -10  -4    2.18    0.53
  -8 -10   3   94.13    2.88
   8  10  -3   98.60    2.79
   8 -10  -3   96.56    2.62
   8  10  -3   94.37    2.64
  -8  10   3   95.66    2.90
   8 -10  -3   96.38    3.04
   8  10  -2   59.84    1.96
   8 -10  -2   60.72    2.10
  -8 -10   2   57.67    2.04
   8 -10  -2   58.55    1.24
   8  10  -2   59.28    1.97
   8 -10  -2   56.60    1.89
  -8  10   2   56.82    2.15
   8 -10  -2   61.48    2.35
   8  10  -1   19.77    0.99
   8 -10  -1   20.26    1.20
  -8 -10   1   19.36    1.08
  -8  10   1   18.96    1.11
   8  10  -1   19.38    1.09
   8 -10  -1   19.34    1.06
   8 -10  -1   20.46    1.34
  -8  10   1   20.10    1.26
  -8 -10   1   20.05    1.16
  -8  10   0    4.08    0.64
  -8 -10   0    5.68    0.47
   8  10   0    5.14    0.46
   8 -10   0    5.28    0.69
  -8 -10   0    4.60    0.51
  -8  10   0    5.64    0.64
   8  10   0    5.98    0.63
  -8 -10   0    6.81    0.71
  -8 -10   0    6.03    0.67
   8 -10   0    5.21    0.76
  -8 -10  -1   35.63    0.97
  -8  10  -1   33.76    1.68
   8 -10   1   33.57    1.64
   8  10   1   35.87    1.01
  -8 -10  -1   34.60    1.14
  -8 -10  -1   38.63    1.69
  -8  10  -1   35.46    1.54
  -8 -10  -1   37.05    1.61
   8 -10   1   38.86    1.82
  -8  10  -2   99.45    3.06
   8 -10   2   96.05    2.99
  -8 -10  -2  100.35    2.95
  -8 -10  -2  101.40    2.85
  -8  10  -2   99.56    2.80
   8 -10   2  106.97    3.19
  -8  10  -3    3.03    0.71
   8 -10   3    2.98    0.62
  -8 -10  -3    3.48    0.55
  -8  10  -3    2.18    0.51
   8 -10   4   35.02    1.92
   8  10   4   37.03    1.81
  -8  10  -4   34.86    1.71
   8 -10   5    0.70    0.54
   8  10   5    0.58    0.43
   8 -10   6    5.99    0.94
   8  10   6    5.52    0.84
   8 -10   7    2.21    0.76
   8  10   7    2.41    0.68
   8 -10   8    2.06    0.76
   8  10   8    1.72    0.58
   8 -10   9   -0.30    0.69
   8  10   9   -0.09    0.48
   8 -10  10    2.08    0.81
   8  10  10    0.77    0.62
  -8  12  11    1.51    0.64
  -8 -12  10    1.98    0.85
  -8  12  10    0.79    0.54
  -8 -12   9    0.67    0.70
  -8  12   9    1.50    0.36
  -8  12   9    2.17    0.64
  -8 -12   8   46.76    2.76
  -8  12   8   49.25    2.36
  -8 -12   7    6.47    1.02
  -8  12   7    6.68    0.88
   8  12  -7    5.33    0.83
  -8 -12   6  149.54    4.56
  -8  12   6  141.39    3.94
   8  12  -6  142.85    3.97
  -8 -12   5   42.35    2.21
   8  12  -5   43.21    1.97
  -8  12   5   42.90    1.99
   8 -12  -5   39.87    2.02
   8  12  -4   64.52    2.42
  -8 -12   4   61.21    2.53
   8  12  -4   57.86    2.23
   8 -12  -4   64.25    2.32
   8 -12  -4   58.95    2.48
  -8  12   4   60.80    2.36
  -8  12   3    0.42    0.38
   8 -12  -3    1.14    0.42
   8  12  -3    0.90    0.36
  -8 -12   3    1.23    0.51
   8 -12  -3    1.14    0.20
   8 -12  -3    1.24    0.50
   8  12  -3    1.29    0.40
   8 -12  -3    1.47    0.43
   8 -12  -2   47.13    1.94
   8  12  -2   47.64    1.80
  -8 -12   2   46.94    1.94
   8 -12  -2   50.03    1.92
   8  12  -2   47.52    1.91
   8 -12  -2   49.10    1.31
  -8  12   2   47.72    2.07
   8 -12  -2   51.08    2.25
   8 -12  -1   13.41    1.06
   8  12  -1   15.15    0.91
  -8 -12   1   14.71    0.89
  -8  12   1   12.62    1.07
  -8 -12   1   15.17    1.01
  -8  12   1   12.90    1.01
   8  12  -1   13.72    1.01
  -8 -12   1   15.45    1.11
   8 -12  -1   14.08    1.19
   8 -12  -1   13.69    0.97
   8  12   0    2.30    0.35
   8 -12   0    1.77    0.52
  -8  12   0    3.23    0.59
  -8 -12   0    1.67    0.32
  -8 -12   0    1.99    0.40
   8  12   0    2.02    0.46
  -8  12   0    2.95    0.56
   8 -12   0    1.95    0.53
  -8 -12   0    1.70    0.44
   8  12   1    2.06    0.28
  -8  12  -1    1.38    0.45
  -8 -12  -1    1.58    0.26
   8 -12   1    2.12    0.58
  -8 -12  -1    2.18    0.37
  -8  12  -1    2.74    0.55
  -8 -12  -1    1.89    0.47
  -8  12  -2   22.85    1.53
   8 -12   2   22.21    1.48
  -8 -12  -2   23.61    1.42
  -8  12  -2   22.63    1.39
   8 -12   3    2.22    0.62
  -8  12  -3    3.09    0.69
  -8  12  -3    3.17    0.61
   8 -12   4   62.48    2.67
  -8  12  -4   64.32    2.51
   8 -12   5    2.34    0.68
   8  12   5    2.20    0.61
  -8  12  -5    1.41    0.52
   8 -12   6    0.31    0.51
   8  12   6    1.45    0.61
   8 -12   7    3.38    0.89
   8  12   7    2.91    0.78
   8 -12   8    1.27    0.70
   8  12   8    0.45    0.50
   8 -12   9    0.54    0.71
   8  12   9   -0.40    0.60
   8  14 -10    6.57    1.05
  -8  14  10    4.13    0.83
  -8 -14   9    2.89    0.89
  -8  14   9    3.51    0.77
   8  14  -9    4.65    0.89
  -8 -14   8    0.64    0.75
  -8  14   8    2.52    0.61
   8  14  -8    2.30    0.69
  -8 -14   7   14.08    1.55
   8  14  -7   16.00    1.42
  -8  14   7   16.82    1.35
  -8 -14   6    9.13    1.21
   8  14  -6   10.25    1.12
  -8  14   6   10.38    1.03
  -8 -14   5    2.50    0.67
  -8  14   5    2.05    0.55
   8 -14  -5    1.43    0.42
   8  14  -5    2.38    0.59
  -8 -14   4    6.77    0.94
  -8  14   4    7.37    0.87
   8 -14  -4    7.38    0.82
   8  14  -4    4.47    0.72
   8 -14  -3   86.58    2.84
   8  14  -3   89.56    2.86
  -8 -14   3   91.41    2.88
  -8 -14   3   88.08    3.03
   8  14  -3   83.94    2.87
   8 -14  -3   93.13    2.03
  -8  14   3   88.82    3.01
   8  14  -2   29.37    1.47
  -8 -14   2   28.17    1.45
   8 -14  -2   30.22    1.64
  -8  14   2   30.23    1.70
   8  14  -2   26.83    1.55
   8 -14  -2   29.85    1.14
  -8 -14   2   28.25    1.56
  -8  14   1  157.37    4.23
   8 -14  -1  157.81    4.11
  -8 -14   1  167.38    3.64
   8  14  -1  167.92    3.61
  -8  14   1  160.09    4.16
   8  14  -1  160.32    4.07
  -8 -14   1  160.75    3.85
   8 -14   0   99.28    3.20
  -8  14   0   96.16    3.24
   8  14   0   98.52    2.43
  -8 -14   0   98.69    2.49
  -8 -14   0  103.29    2.74
   8  14   0   99.32    3.05
  -8  14   0  100.83    3.18
  -8  14  -1    2.81    0.66
   8 -14   1    3.71    0.70
   8  14   1    5.40    0.48
  -8 -14  -1    4.38    0.53
  -8  14  -1    3.99    0.70
  -8 -14  -1    5.43    0.48
   8 -14   2    0.90    0.55
  -8  14  -2    0.45    0.52
  -8 -14  -2    1.11    0.27
  -8  14  -2    0.48    0.42
  -8 -14  -2    1.24    0.20
   8 -14   3   17.61    1.46
  -8  14  -3   17.25    1.43
  -8  14  -3   17.93    1.37
   8 -14   4    4.36    0.82
  -8  14  -4    6.05    0.85
   8 -14   5    7.57    1.13
  -8  14  -5    7.59    1.01
   8 -14   6    0.40    0.58
  -8  14  -6    0.14    0.49
   8 -14   7    0.30    0.67
  -8  14  -7   -0.54    0.57
   8 -14   8   11.95    1.47
   8  14   8   12.03    1.35
  -8  14  -8   12.76    1.44
  -8  16   9    4.39    0.81
   8  16  -9    3.49    0.85
  -8 -16   8    0.55    0.69
   8 -16  -8    0.81    0.48
  -8  16   8    0.43    0.53
   8  16  -8    1.24    0.66
   8 -16  -7   62.32    2.49
  -8 -16   7   62.78    3.25
   8  16  -7   60.31    2.87
  -8  16   7   55.54    2.52
  -8 -16   6    0.62    0.61
  -8  16   6    1.11    0.48
   8 -16  -6    0.53    0.45
   8  16  -6    1.13    0.53
   8 -16  -5   47.85    2.15
  -8 -16   5   49.09    2.61
   8  16  -5   46.29    2.35
  -8  16   5   45.90    2.21
  -8  16   4    3.61    0.69
   8 -16  -4    3.77    0.70
   8  16  -4    2.49    0.60
  -8 -16   4    3.15    0.73
  -8  16   3    2.98    0.65
   8 -16  -3    3.57    0.68
   8  16  -3    3.30    0.65
   8 -16  -3    3.78    0.45
  -8 -16   3    2.36    0.63
  -8  16   2   27.67    1.72
  -8 -16   2   26.36    1.49
   8 -16  -2   26.96    1.65
   8  16  -2   27.54    1.49
   8 -16  -2   28.03    1.22
   8  16  -2   24.16    1.59
  -8 -16   2   26.41    1.64
  -8  16   1   21.50    1.57
  -8 -16   1   22.90    1.32
   8 -16  -1   25.06    1.62
   8  16  -1   24.07    1.31
  -8  16   1   24.09    1.62
   8  16  -1   23.61    1.55
  -8 -16   1   24.87    1.46
  -8 -16   0    3.60    0.53
  -8  16   0    3.35    0.69
   8 -16   0    3.42    0.73
   8  16   0    3.78    0.53
  -8  16   0    3.72    0.74
   8  16   0    3.30    0.64
  -8 -16   0    3.39    0.58
   8  16   1    4.32    0.47
   8 -16   1    5.82    0.90
  -8  16  -1    4.53    0.82
  -8 -16  -1    4.41    0.49
  -8  16  -1    3.76    0.75
  -8 -16  -1    6.87    0.69
  -8  16  -2    2.97    0.74
  -8  16  -2    3.35    0.73
   8 -16   2    5.30    0.94
  -8 -16  -2    3.66    0.43
   8 -16   3   17.42    1.55
  -8  16  -3   17.29    1.48
   8 -16   4    3.76    0.85
  -8  16  -4    3.51    0.80
   8 -16   5    2.69    0.81
  -8  16  -5    4.90    0.87
   8 -16   6    1.18    0.66
  -8  16  -6    1.10    0.64
  -8  16  -7    1.11    0.61
   8 -18  -7   56.32    2.46
  -8 -18   7   57.34    3.25
   8  18  -7   57.16    2.94
  -8  18   7   53.10    2.52
  -8 -18   6    1.36    0.78
  -8  18   6    0.61    0.50
   8 -18  -6    0.52    0.47
   8  18  -6    0.75    0.53
   8 -18  -5   23.37    1.58
  -8  18   5   24.54    1.70
   8  18  -5   25.61    1.85
  -8 -18   5   25.11    1.99
   8 -18  -4    2.27    0.64
  -8  18   4    3.07    0.66
   8  18  -4    2.81    0.72
  -8 -18   4    2.58    0.73
  -8  18   3    1.78    0.55
   8 -18  -3    2.42    0.61
   8  18  -3    1.78    0.61
  -8 -18   3    1.96    0.64
  -8  18   2   17.37    1.43
   8 -18  -2   15.74    1.40
   8  18  -2   18.26    1.46
  -8 -18   2   18.58    1.43
  -8  18   1   28.20    1.85
   8 -18  -1   24.79    1.71
  -8  18   1   25.83    1.76
   8  18  -1   24.46    1.69
  -8 -18   1   22.72    1.50
   8 -18   0    4.84    0.85
  -8  18   0    4.46    0.85
  -8  18   0    4.05    0.86
  -8 -18   0    5.07    0.71
  -8  18  -1    0.73    0.61
  -8  18  -1   -0.01    0.50
   8 -18   1   -0.09    0.55
  -8  18  -2    2.10    0.69
   8 -18   2    0.98    0.61
   8 -18   3   33.10    2.19
  -8  18  -3   32.50    2.09
   8 -18   4    1.80    0.80
  -8  18  -4    2.63    0.80
   8 -18   5    7.89    1.21
  -8  18  -5    9.18    1.24
  -8  18  -6    3.34    0.91
  -8  20   6   10.30    1.21
  -8 -20   6   15.17    1.71
  -8  20   5    0.50    0.55
   8 -20  -5    1.13    0.58
   8  20  -5    1.44    0.61
  -8 -20   5    2.39    0.91
   8 -20  -4    0.18    0.54
  -8  20   4   -0.14    0.56
   8  20  -4   -0.10    0.47
  -8 -20   4    0.52    0.66
  -8  20   3   17.16    1.52
   8 -20  -3   16.75    1.46
   8  20  -3   19.24    1.62
  -8 -20   3   18.81    1.63
  -8  20   2   23.08    1.75
   8 -20  -2   23.72    1.72
   8  20  -2   25.71    1.88
  -8 -20   2   24.21    1.73
  -8  20   1   24.51    1.84
   8 -20  -1   23.97    1.80
   8  20  -1   23.31    1.76
  -8 -20   1   23.19    1.58
  -8  20   0   10.27    1.26
  -8  20   0    9.29    1.19
   8 -20   0   10.45    1.25
  -8  20  -1    4.34    0.87
   8 -20   1    3.89    0.83
  -8  20  -2    0.24    0.57
   8 -20   2    0.28    0.59
  -8  20  -3    0.05    0.58
   8 -20   3    1.93    0.74
  -8  20  -4    4.77    0.95
  -8 -22   5    3.40    1.01
  -8 -22   4    4.83    1.11
   8 -22  -4    3.55    0.90
  -8  22   4    3.81    0.88
  -8 -22   3    2.06    0.80
  -8  22   3    1.11    0.65
   8 -22  -3    1.63    0.71
   8 -22  -2    7.32    1.07
  -8  22   2    8.58    1.15
   8 -22  -1   -0.20    0.59
  -8  22   1    0.37    0.54
   8 -22   0    5.26    1.17
  -9  -1  13   -0.37    0.72
  -9   1  13   -0.52    0.57
  -9  -1  12    3.85    1.01
  -9   1  12    5.00    1.09
  -9   1  12    3.22    0.85
  -9   1  11    7.23    1.19
  -9  -1  11    6.98    1.21
  -9   1  11    7.00    1.03
  -9  -1  10   12.80    1.42
  -9   1  10   13.55    1.42
  -9   1  10   13.37    1.29
  -9  -1   9   16.20    1.48
  -9   1   9   16.30    1.50
  -9   1   9   18.48    1.42
  -9  -1   8    7.39    0.98
  -9   1   8    8.17    1.01
  -9   1   8    9.91    1.00
  -9  -1   7   60.76    2.58
   9   1  -7   68.66    2.65
  -9   1   7   59.48    2.53
   9  -1  -7   65.25    2.59
  -9   1   7   62.29    2.35
   9  -1  -6   28.31    1.63
  -9  -1   6   25.69    1.61
   9   1  -6   29.80    1.65
  -9   1   6   29.94    1.51
   9  -1  -5   15.83    1.19
  -9  -1   5   14.76    1.15
   9   1  -5   14.92    1.13
  -9   1   5   15.37    1.04
   9   1  -4  873.75   12.88
  -9  -1   4  878.12   12.87
   9  -1  -4  878.65   13.03
  -9  -1   4  860.35   12.36
  -9   1   4  890.86   12.48
   9  -1  -3  123.16    3.21
   9   1  -3  119.92    3.09
  -9   1   3  122.52    2.88
  -9  -1   3  121.58    2.82
   9   1  -2  220.19    4.38
  -9   1   2  215.68    3.28
  -9  -1   2  226.07    4.06
   9  -1  -2  217.95    4.17
  -9   1   2  225.93    4.17
  -9  -1   1   15.57    0.73
  -9   1   1   16.28    0.64
   9   1  -1   15.73    0.84
  -9   1   1   16.93    0.95
   9  -1  -1   16.47    0.92
  -9  -1   1   15.41    0.86
   9   1   0    3.51    0.41
   9  -1   0    4.00    0.40
  -9  -1   0    3.30    0.21
  -9   1   0    4.23    0.38
  -9  -1   0    3.74    0.40
   9  -1   0    4.63    0.52
  -9   1   0    4.43    0.52
  -9  -1   0    4.08    0.47
   9   1   0    4.00    0.44
   9   1   1   48.86    1.49
   9  -1   1   42.58    1.31
  -9  -1  -1   46.06    1.42
   9  -1   1   40.58    1.43
  -9  -1  -1   44.56    1.36
   9   1   1   45.56    1.36
  -9   1  -1   40.36    1.42
  -9   1  -2  142.11    2.94
   9   1   2  131.87    2.62
  -9  -1  -2  133.43    2.66
   9  -1   2  140.07    2.87
   9   1   2  137.58    2.95
   9  -1   2  143.76    2.88
   9  -1   2  143.18    2.95
   9   1   2  133.85    2.68
  -9   1  -3   41.73    1.46
  -9  -1  -3   35.90    1.22
   9   1   3   34.00    1.17
   9  -1   3   38.58    1.38
   9   1   3   34.60    1.42
   9  -1   3   38.69    1.43
   9  -1   3   38.98    1.40
   9   1   3   34.88    1.20
   9   1   4    7.95    0.62
   9  -1   4    6.71    0.67
   9   1   4    8.63    0.80
   9  -1   4    8.06    0.76
   9  -1   4    6.87    0.67
   9   1   4    7.61    0.61
   9  -1   5    1.09    0.36
  -9   1  -5    1.43    0.36
   9   1   5    1.33    0.34
   9  -1   5    1.67    0.41
   9   1   5    1.69    0.36
   9  -1   5    1.45    0.45
   9   1   5    1.25    0.45
  -9   1  -6   75.27    2.23
   9   1   6   71.59    2.12
   9  -1   6   74.00    2.34
   9   1   6   70.81    2.48
   9   1   6   71.56    2.08
   9  -1   6   76.72    2.35
   9   1   7    0.54    0.31
  -9  -1  -7    1.04    0.36
   9  -1   7    1.05    0.40
  -9   1  -7    1.08    0.40
   9   1   7    1.23    0.53
   9  -1   7    0.33    0.36
   9   1   7    0.38    0.37
   9   1   8    8.12    0.78
   9  -1   8    7.38    0.83
  -9   1  -8    8.43    0.83
  -9  -1  -8    8.55    0.76
   9  -1   8    7.52    0.86
   9   1   8    6.90    0.78
   9   1   8    8.77    0.98
   9   1   9    0.14    0.41
   9  -1   9    0.82    0.50
   9  -1   9    0.14    0.49
   9   1   9    0.32    0.47
   9  -1  10   -0.58    0.51
   9   1  10   -0.15    0.40
   9  -1  10    0.08    0.52
   9   1  10    0.41    0.53
  -9  -3  13    1.71    0.73
  -9   3  13    2.66    0.82
  -9  -3  12    0.16    0.75
  -9   3  12    0.98    0.65
  -9  -3  11    6.48    1.22
  -9   3  11   10.54    1.26
  -9  -3  10   37.24    2.41
  -9   3  10   39.25    2.16
  -9  -3   9  181.28    5.31
  -9   3   9  191.82    4.88
  -9  -3   8  138.40    4.34
  -9   3   8  139.93    3.91
   9  -3  -7   58.81    2.50
   9   3  -7   61.77    2.53
  -9  -3   7   59.49    2.61
  -9   3   7   59.82    2.32
   9  -3  -6    9.17    0.96
  -9  -3   6    9.50    1.03
   9   3  -6    8.96    0.95
  -9   3   6    8.32    0.85
   9   3  -5   11.82    1.02
   9  -3  -5   14.32    1.12
  -9  -3   5   12.43    1.08
  -9   3   5   14.62    1.05
   9  -3  -4   53.78    2.19
  -9  -3   4   53.52    2.07
   9   3  -4   53.22    2.05
  -9   3   4   55.44    1.95
   9   3  -3  173.82    3.84
  -9  -3   3  175.09    3.86
   9  -3  -3  174.07    3.84
  -9   3   3  170.11    3.73
   9   3  -2    1.96    0.48
   9  -3  -2    1.86    0.21
  -9   3   2    1.59    0.15
   9   3  -2    1.67    0.22
  -9  -3   2    2.25    0.40
  -9   3   2    1.01    0.38
   9  -3  -2    1.53    0.41
   9   3  -1   13.88    0.87
   9   3  -1   13.40    0.51
   9  -3  -1   13.07    0.50
  -9  -3   1   12.87    0.73
  -9  -3   1   14.14    0.76
  -9   3   1   13.26    0.91
   9  -3  -1   13.03    0.88
   9   3   0   95.44    2.31
  -9  -3   0   98.31    2.31
   9  -3   0  101.17    1.89
  -9   3   0   99.79    1.72
  -9  -3   0   95.11    1.82
   9  -3   0   98.38    2.55
  -9  -3   0   95.76    2.09
  -9   3   0  102.34    2.55
   9  -3   1  198.55    3.87
  -9  -3  -1  203.85    3.28
  -9  -3  -1  213.94    3.90
   9  -3   1  202.50    3.41
   9   3   1  210.64    3.90
   9  -3   1  201.28    3.99
   9   3   1  208.18    3.37
  -9  -3  -1  206.84    3.39
  -9   3  -1  198.39    3.95
   9  -3   2  277.29    4.89
  -9   3  -2  284.38    5.01
   9   3   2  273.14    4.14
   9   3   2  280.21    4.96
  -9  -3  -2  285.47    4.93
   9   3   2  267.46    4.13
  -9  -3  -2  274.56    4.15
   9  -3   2  283.20    4.98
  -9   3  -3   58.88    1.95
  -9  -3  -3   60.53    1.40
   9  -3   3   59.03    1.91
   9   3   3   61.64    1.42
   9   3   3   61.72    2.01
   9   3   3   59.73    1.42
   9  -3   3   62.15    1.98
   9  -3   4   10.08    0.82
  -9   3  -4   10.46    0.86
   9   3   4   10.66    0.57
   9   3   4   10.36    0.88
   9  -3   4   10.33    0.85
   9   3   4    9.73    0.55
   9  -3   5    6.01    0.69
  -9   3  -5    5.71    0.65
   9  -3   5    6.15    0.70
   9   3   5    6.11    0.50
   9   3   5    6.40    0.74
   9   3   5    6.58    0.50
   9   3   6    2.49    0.37
   9  -3   6    3.39    0.60
  -9   3  -6    3.73    0.58
   9  -3   6    3.54    0.59
   9   3   6    2.32    0.39
   9   3   6    2.29    0.57
   9  -3   7    5.38    0.71
  -9   3  -7    6.47    0.76
   9  -3   7    5.64    0.78
   9   3   7    7.45    0.67
   9   3   7    6.17    0.81
   9   3   7    6.65    0.59
   9   3   8    1.85    0.39
   9   3   8    1.74    0.43
   9  -3   8    2.15    0.59
   9   3   8    1.32    0.58
   9   3   9    1.47    0.44
   9  -3   9    1.85    0.58
   9   3   9    0.74    0.50
   9  -3  10    0.41    0.52
   9   3  10   -0.45    0.53
   9  -3  11    0.28    0.62
  -9   5  13   10.44    1.13
  -9   5  13   10.94    1.37
  -9  -5  12    0.98    0.73
  -9   5  12    1.70    0.77
  -9  -5  11    3.28    0.97
  -9   5  11    1.16    0.60
  -9  -5  10    8.92    1.30
  -9   5  10    8.97    1.10
  -9  -5   9   20.83    1.77
  -9   5   9   20.94    1.53
  -9  -5   8    8.83    1.13
  -9   5   8    9.75    1.04
   9  -5  -7    6.12    0.88
  -9  -5   7    6.22    0.90
  -9   5   7    5.56    0.76
   9  -5  -6   10.62    1.05
   9   5  -6    8.60    0.91
  -9  -5   6    9.03    0.99
  -9   5   6    8.54    0.89
   9  -5  -5  198.66    4.79
   9   5  -5  205.60    4.63
  -9  -5   5  191.78    4.62
  -9   5   5  198.41    4.44
   9   5  -4   18.17    1.16
  -9  -5   4   15.39    1.12
  -9   5   4   14.73    0.37
   9  -5  -4   14.89    1.04
  -9   5   4   15.29    1.08
   9   5  -3  419.18    7.08
  -9  -5   3  430.19    7.24
   9  -5  -3  420.12    6.14
  -9   5   3  436.27    7.25
   9  -5  -3  424.14    7.20
   9   5  -3  425.66    6.24
  -9  -5   2   55.24    1.87
   9   5  -2   52.87    1.78
   9  -5  -2   50.81    1.31
   9   5  -2   55.65    1.43
  -9   5   2   51.04    1.91
   9  -5  -2   51.96    1.93
   9   5  -1  172.06    3.43
  -9  -5   1  174.93    3.49
   9  -5  -1  171.72    2.45
  -9   5   1  171.67    2.89
  -9  -5   1  174.01    3.40
   9   5  -1  181.66    3.01
  -9  -5   1  173.01    3.07
  -9  -5   1  178.00    3.20
   9  -5  -1  165.82    2.82
   9  -5  -1  173.07    3.84
  -9   5   1  171.24    3.76
   9   5   0   16.56    0.83
  -9  -5   0   17.03    0.95
  -9   5   0   16.70    0.72
  -9  -5   0   16.68    0.79
  -9  -5   0   16.83    0.74
   9  -5   0   18.43    1.11
  -9   5   0   17.06    1.05
   9  -5   1   66.17    2.07
   9   5   1   66.90    1.63
  -9  -5  -1   69.89    2.08
  -9  -5  -1   64.90    1.71
   9   5   1   68.51    2.06
  -9   5  -1   68.88    2.16
   9  -5   1   67.09    2.15
  -9  -5  -1   68.73    1.47
  -9   5  -1   68.43    1.68
  -9   5  -2   12.17    0.94
   9  -5   2   12.68    0.91
   9   5   2   10.60    0.53
  -9  -5  -2    9.95    0.66
  -9  -5  -2   11.26    0.96
   9   5   2   11.90    0.90
   9  -5   2   14.26    0.98
  -9  -5  -2   11.17    0.44
   9  -5   3    5.43    0.67
   9  -5   3    5.70    0.67
  -9   5  -3    6.18    0.71
   9   5   3    5.12    0.29
   9   5   3    4.83    0.33
   9   5   3    6.37    0.72
  -9  -5  -3    6.80    0.71
  -9   5  -4    0.72    0.33
   9  -5   4    0.46    0.31
  -9   5  -4    0.60    0.35
   9  -5   4    0.29    0.34
   9   5   4    0.64    0.15
   9   5   4    0.95    0.37
   9   5   4    0.65    0.13
   9  -5   5   15.20    1.14
  -9   5  -5   16.38    1.11
   9   5   5   14.01    0.55
   9   5   5   13.85    1.10
   9   5   5   13.18    0.54
   9  -5   5   15.46    1.15
   9  -5   6    1.63    0.53
  -9   5  -6    2.08    0.53
   9  -5   6    1.78    0.53
   9   5   6    1.20    0.26
   9   5   6    1.37    0.50
   9   5   6    0.85    0.21
   9  -5   7   31.93    1.82
   9   5   7   33.60    1.15
   9   5   7   35.27    1.91
   9   5   7   33.17    1.08
   9  -5   8    0.66    0.51
   9   5   8    1.17    0.34
   9   5   8    0.68    0.52
   9  -5   9    0.07    0.54
   9   5   9    0.40    0.47
   9  -5  10   -0.05    0.63
   9   5  10   -0.02    0.50
   9  -5  11    3.04    1.15
   9  -5  12    0.00    0.82
  -9   7  13    5.94    1.19
  -9  -7  12    1.66    0.83
  -9   7  12    2.06    0.51
  -9   7  12    2.01    0.74
  -9  -7  11    0.44    0.65
  -9   7  11    0.69    0.45
  -9   7  11    1.50    0.64
  -9  -7  10   24.81    2.06
  -9   7  10   27.20    1.38
  -9   7  10   24.40    1.72
  -9  -7   9   39.34    2.47
  -9   7   9   38.30    1.54
  -9   7   9   37.22    2.09
  -9  -7   8   28.25    1.99
  -9   7   8   28.98    1.20
  -9   7   8   31.78    1.83
   9  -7  -7    0.19    0.39
  -9  -7   7   -0.06    0.57
  -9   7   7    0.15    0.26
  -9   7   7    1.03    0.51
   9  -7  -6    2.84    0.64
  -9  -7   6    2.19    0.61
  -9   7   6    1.47    0.23
  -9   7   6    1.81    0.53
  -9  -7   5   94.99    3.16
   9   7  -5  100.71    3.10
  -9   7   5   99.80    1.66
   9  -7  -5   99.63    3.03
  -9   7   5  105.90    3.09
   9   7  -4    8.61    0.83
  -9  -7   4    8.42    0.90
   9  -7  -4    8.27    0.65
  -9   7   4    8.29    0.84
   9  -7  -4    9.50    0.90
   9   7  -4    7.87    0.66
  -9  -7   3  279.57    5.46
   9   7  -3  283.62    5.32
   9   7  -3  277.23    4.77
   9  -7  -3  277.20    4.69
   9  -7  -3  283.06    5.63
  -9   7   3  290.34    5.61
   9   7  -2   27.13    1.26
  -9  -7   2   27.44    1.34
   9   7  -2   26.57    1.09
   9  -7  -2   27.07    1.05
  -9   7   2   26.37    1.39
   9  -7  -2   26.50    1.44
  -9   7   1    4.46    0.63
  -9  -7   1    3.39    0.49
   9   7  -1    4.01    0.47
  -9  -7   1    5.16    0.55
   9   7  -1    4.05    0.44
  -9   7   1    4.39    0.45
  -9  -7   1    4.82    0.52
   9  -7  -1    4.11    0.42
   9  -7  -1    3.83    0.61
   9  -7   0  109.64    2.95
   9   7   0  119.61    2.46
  -9  -7   0  123.01    2.98
  -9  -7   0  120.00    2.69
  -9   7   0  118.15    2.58
  -9  -7   0  120.26    2.29
   9  -7   0  117.12    3.18
  -9   7   0  116.10    3.08
  -9   7  -1  196.16    4.26
   9  -7   1  195.57    4.17
   9   7   1  187.25    3.12
  -9  -7  -1  205.23    4.16
  -9   7  -1  196.17    3.68
  -9  -7  -1  194.19    3.77
  -9  -7  -1  192.35    2.95
   9  -7   1  202.91    4.36
  -9   7  -2  107.72    3.02
   9  -7   2  107.05    2.96
   9   7   2  108.09    1.70
  -9  -7  -2  120.66    3.06
  -9  -7  -2  110.38    2.66
   9   7   2  108.88    2.95
   9  -7   2  108.71    3.06
  -9   7  -2  108.32    2.61
   9  -7   3    3.87    0.65
   9  -7   3    4.44    0.70
  -9   7  -3    4.31    0.68
   9   7   3    4.54    0.65
  -9  -7  -3    5.07    0.64
  -9  -7  -3    3.90    0.53
   9  -7   4   15.11    1.15
  -9   7  -4   15.00    1.16
  -9   7  -4   16.25    1.15
   9   7   4   15.55    1.15
   9  -7   4   15.98    1.17
   9  -7   5   10.03    1.03
   9   7   5    9.19    0.96
   9  -7   6    2.56    0.64
   9   7   6    2.44    0.62
   9  -7   7   18.72    1.47
   9   7   7   20.84    1.54
   9  -7   8    0.47    0.50
   9   7   8    0.30    0.53
   9  -7   9    0.43    0.67
   9   7   9    2.74    0.75
   9  -7  10   -0.40    0.60
   9   7  10   -0.09    0.55
   9  -7  11    1.22    0.80
  -9   9  13    0.08    0.71
  -9   9  12    0.69    0.63
  -9  -9  11    6.17    1.24
  -9   9  11    6.54    1.03
  -9  -9  10   15.70    1.77
  -9   9  10   16.82    1.10
  -9   9  10   14.66    1.39
  -9  -9   9   39.21    2.54
  -9   9   9   42.03    1.60
  -9   9   9   40.14    2.19
  -9  -9   8   68.32    3.16
  -9   9   8   63.94    1.85
  -9   9   8   63.66    2.69
  -9  -9   7   25.29    1.83
  -9   9   7   23.71    0.96
  -9   9   7   27.32    1.68
  -9  -9   6    2.24    0.61
   9  -9  -6    2.90    0.71
  -9   9   6    1.92    0.24
   9  -9  -6    2.34    0.48
  -9   9   6    1.61    0.54
  -9  -9   5    5.00    0.82
   9   9  -5    4.51    0.66
   9  -9  -5    3.06    0.51
   9   9  -5    4.72    0.62
   9  -9  -5    4.61    0.69
  -9   9   5    4.13    0.68
  -9  -9   4   59.31    2.37
   9   9  -4   61.77    2.28
   9   9  -4   61.23    2.03
   9  -9  -4   61.73    2.02
   9  -9  -4   62.18    2.39
  -9   9   4   59.20    2.31
  -9  -9   3    0.59    0.41
   9   9  -3    0.61    0.32
   9  -9  -3    1.05    0.31
   9  -9  -3    1.30    0.45
   9   9  -3    0.21    0.27
  -9   9   3    0.47    0.39
   9   9  -2    8.95    0.76
  -9  -9   2    7.82    0.78
   9  -9  -2    8.10    0.67
   9   9  -2    9.95    0.77
  -9   9   2    9.85    0.93
   9  -9  -2   10.34    0.96
   9  -9  -1   13.84    0.99
   9   9  -1   14.79    0.86
  -9  -9   1   15.29    0.96
  -9   9   1   16.43    0.95
   9   9  -1   14.09    0.88
  -9  -9   1   12.35    0.91
  -9  -9   1   14.27    0.94
   9  -9  -1   16.41    1.19
  -9   9   1   13.37    1.07
   9  -9  -1   14.77    0.86
   9  -9   0   34.44    1.62
  -9   9   0   34.54    1.71
  -9  -9   0   36.94    1.36
   9   9   0   35.37    1.20
  -9  -9   0   37.58    1.53
  -9   9   0   35.40    1.44
  -9  -9   0   35.73    1.56
   9  -9   0   36.49    1.79
  -9   9  -1  160.45    3.95
   9   9   1  159.84    2.66
   9  -9   1  153.87    3.82
  -9  -9  -1  148.93    2.48
  -9  -9  -1  163.38    3.79
  -9  -9  -1  163.45    3.60
  -9   9  -1  163.71    3.52
  -9  -9  -1  159.01    2.52
   9  -9   1  165.13    4.04
  -9   9  -2   70.89    2.58
   9  -9   2   73.88    2.55
  -9  -9  -2   77.71    2.53
  -9  -9  -2   78.45    2.37
  -9   9  -2   74.42    2.29
   9  -9   2   76.86    2.69
  -9   9  -3   86.42    2.93
   9  -9   3   85.57    2.84
  -9  -9  -3   92.34    2.68
   9   9   3   87.51    2.79
  -9   9  -3   90.26    2.63
  -9   9  -4    1.00    0.46
   9  -9   4    1.36    0.53
   9   9   4    1.58    0.47
  -9  -9  -4    1.70    0.45
   9  -9   5    1.88    0.64
   9   9   5    1.86    0.56
   9  -9   6    5.12    0.89
   9   9   6    6.01    0.92
   9  -9   7    4.13    0.86
   9   9   7    4.22    0.82
   9  -9   8    2.92    0.81
   9   9   8    2.60    0.78
   9  -9   9    1.17    0.71
   9   9   9   -0.72    0.57
   9  -9  10   -0.31    0.65
  -9  11  12    6.53    1.08
  -9  11  11    2.18    0.83
  -9 -11  10    2.77    0.82
  -9  11  10    1.36    0.65
  -9 -11   9    0.23    0.67
  -9  11   9    0.74    0.27
  -9  11   9    0.66    0.56
  -9 -11   8   25.15    2.03
  -9  11   8   22.67    1.02
  -9  11   8   23.17    1.65
  -9 -11   7    3.65    0.90
   9  11  -7    2.73    0.60
  -9  11   7    2.74    0.67
  -9 -11   6   19.71    1.60
  -9  11   6   20.29    1.42
   9  11  -6   19.97    1.37
  -9 -11   5   30.15    1.83
   9  11  -5   30.21    1.58
   9 -11  -5   30.04    1.55
  -9  11   5   30.86    1.71
   9  11  -4  454.08    7.90
  -9 -11   4  428.40    8.05
   9  11  -4  427.80    7.48
   9 -11  -4  448.72    7.52
   9 -11  -4  433.86    8.14
  -9  11   4  425.01    7.86
   9  11  -3   12.93    1.00
  -9 -11   3   12.14    1.06
   9  11  -3   12.71    0.96
   9 -11  -3   11.33    0.89
   9 -11  -3   12.71    1.13
  -9  11   3    9.65    0.96
   9 -11  -2  112.25    3.15
   9  11  -2  112.80    2.92
  -9 -11   2  110.82    3.08
   9  11  -2  113.64    2.98
   9 -11  -2  112.93    2.92
   9 -11  -2  112.51    1.96
   9 -11  -2  115.73    3.53
  -9  11   2  108.39    3.24
   9 -11  -1   18.78    1.24
   9  11  -1   18.85    1.02
  -9 -11   1   18.13    1.11
  -9  11   1   19.27    1.16
   9  11  -1   19.83    1.15
  -9 -11   1   17.71    1.13
  -9 -11   1   19.61    1.21
   9 -11  -1   20.81    1.42
  -9  11   1   16.87    1.26
   9 -11  -1   19.51    1.12
  -9 -11   0    5.40    0.47
  -9  11   0    6.00    0.78
   9  11   0    5.54    0.49
   9 -11   0    6.45    0.79
  -9 -11   0    6.01    0.61
   9  11   0    5.51    0.64
  -9  11   0    7.09    0.74
  -9 -11   0    5.27    0.67
   9 -11   0    6.19    0.80
   9 -11   1    4.87    0.76
  -9  11  -1    4.41    0.70
   9  11   1    4.19    0.37
  -9 -11  -1    4.56    0.35
  -9 -11  -1    5.04    0.50
  -9  11  -1    5.23    0.67
  -9 -11  -1    4.79    0.65
  -9  11  -2   25.64    1.58
   9 -11   2   26.88    1.60
  -9  11  -2   28.42    1.48
  -9 -11  -2   28.94    1.52
   9 -11   3    6.61    0.87
  -9  11  -3    6.19    0.85
  -9  11  -3    5.75    0.74
   9 -11   4    4.87    0.82
  -9  11  -4    2.95    0.63
   9 -11   5    0.85    0.50
   9  11   5    1.13    0.52
  -9  11  -5    0.64    0.47
   9 -11   6   30.91    2.02
   9  11   6   26.18    1.74
   9 -11   7    1.16    0.64
   9  11   7    1.07    0.62
   9 -11   8    4.60    0.99
   9  11   8    5.86    0.98
   9 -11   9    0.55    0.60
   9  11   9    1.19    0.62
  -9  13  11    7.56    1.13
  -9 -13  10    7.54    1.38
  -9  13  10    5.92    0.98
  -9 -13   9   22.56    2.07
   9  13  -9   23.33    1.79
  -9  13   9   21.09    1.64
  -9 -13   8   11.19    1.49
   9  13  -8   11.02    1.22
  -9  13   8   11.00    1.17
  -9 -13   7   21.00    1.79
   9  13  -7   19.00    1.48
  -9  13   7   18.38    1.45
  -9 -13   6    0.47    0.56
  -9  13   6    0.03    0.45
   9  13  -6    1.04    0.52
  -9 -13   5    4.44    0.84
  -9  13   5    4.41    0.73
   9  13  -5    4.21    0.69
   9 -13  -4   63.37    2.40
  -9 -13   4   59.82    2.59
   9  13  -4   65.73    2.44
  -9  13   4   59.71    2.45
   9 -13  -3    2.05    0.49
  -9  13   3    1.62    0.51
   9  13  -3    2.08    0.49
  -9 -13   3    2.94    0.66
   9  13  -3    2.39    0.54
   9 -13  -3    2.02    0.23
   9 -13  -3    1.88    0.46
   9  13  -2   16.24    1.09
  -9 -13   2   15.29    1.05
   9 -13  -2   12.60    1.09
  -9 -13   2   12.96    1.08
   9 -13  -2   14.28    0.68
   9  13  -2   15.19    1.12
   9 -13  -2   14.95    1.09
  -9  13   2   15.19    1.25
   9 -13  -1    2.51    0.56
  -9  13   1    2.36    0.57
  -9 -13   1    2.46    0.45
   9  13  -1    2.54    0.41
  -9 -13   1    2.75    0.52
   9  13  -1    2.17    0.47
  -9  13   1    2.64    0.54
   9 -13  -1    2.81    0.50
  -9 -13   0    9.76    0.68
   9 -13   0   10.50    1.04
  -9  13   0    9.89    1.02
   9  13   0    9.35    0.67
  -9 -13   0   10.27    0.82
   9  13   0    9.70    0.90
  -9  13   0   11.51    1.01
   9  13   1   54.70    1.45
  -9  13  -1   49.62    2.33
   9 -13   1   52.89    2.33
  -9 -13  -1   57.94    1.70
  -9  13  -1   56.45    2.25
  -9 -13  -1   54.92    1.44
  -9  13  -2   32.43    1.88
   9 -13   2   31.14    1.81
  -9  13  -2   32.55    1.74
   9 -13   3   26.05    1.75
  -9  13  -3   23.74    1.67
  -9  13  -3   26.43    1.60
   9 -13   4    0.72    0.54
  -9  13  -4    1.05    0.58
   9 -13   5   -0.08    0.60
  -9  13  -5   -0.07    0.42
   9 -13   6   18.82    1.74
   9  13   6   17.05    1.48
  -9  13  -6   16.13    1.44
   9 -13   7    2.61    0.83
   9  13   7    4.86    0.91
  -9  13  -7    2.75    0.74
   9 -13   8    0.96    0.56
   9  13   8    1.31    0.69
  -9  15  10   13.41    1.39
  -9 -15   9   23.05    2.15
  -9  15   9   25.25    1.80
   9  15  -9   27.97    2.06
  -9 -15   8   20.49    1.95
   9  15  -8   22.02    1.74
  -9  15   8   19.65    1.55
  -9 -15   7    1.64    0.83
  -9  15   7    1.49    0.56
   9  15  -7    2.39    0.68
  -9 -15   6    2.97    0.86
  -9  15   6    3.69    0.73
   9 -15  -6    4.78    0.76
   9  15  -6    4.31    0.79
   9 -15  -5   25.15    1.57
  -9 -15   5   24.40    1.82
   9  15  -5   27.14    1.73
  -9  15   5   24.43    1.64
  -9  15   4    1.85    0.67
   9 -15  -4    2.43    0.59
   9  15  -4    1.78    0.56
  -9 -15   4    3.66    0.75
   9 -15  -3   51.09    2.26
  -9 -15   3   57.87    2.33
  -9  15   3   53.14    2.40
   9 -15  -3   55.21    1.45
   9  15  -3   57.03    2.39
  -9 -15   3   56.78    2.47
   9 -15  -2    1.97    0.57
   9  15  -2    0.91    0.39
  -9  15   2    1.24    0.53
  -9 -15   2    1.53    0.45
   9 -15  -2    0.78    0.24
   9  15  -2    1.85    0.56
  -9 -15   2    1.27    0.53
  -9 -15   1    8.18    0.76
   9 -15  -1   10.15    1.07
  -9  15   1    9.55    1.07
   9  15  -1    8.53    0.77
  -9  15   1    8.99    0.97
   9  15  -1    8.49    0.94
  -9 -15   1    9.65    0.93
   9  15   0   63.20    1.93
  -9  15   0   67.02    2.83
   9 -15   0   61.34    2.58
  -9 -15   0   63.32    1.95
  -9 -15   0   67.32    2.23
  -9  15   0   64.33    2.57
  -9  15  -1   43.16    2.26
   9 -15   1   44.29    2.24
   9  15   1   46.05    1.41
  -9 -15  -1   47.88    1.65
  -9  15  -1   42.48    2.11
  -9 -15  -1   43.99    1.38
  -9  15  -2   64.33    2.80
   9 -15   2   63.51    2.76
  -9  15  -2   63.40    2.61
  -9  15  -3   15.17    1.43
   9 -15   3   12.49    1.29
  -9  15  -3   13.32    1.24
   9 -15   4    7.13    1.10
  -9  15  -4    6.66    0.97
   9 -15   5    3.47    0.90
  -9  15  -5    3.14    0.84
   9 -15   6    0.02    0.61
  -9  15  -6    0.49    0.49
   9 -15   7    1.96    0.78
  -9  15  -7    2.25    0.69
  -9  15  -8    2.13    0.76
  -9 -17   8    2.33    0.81
   9 -17  -8    2.45    0.66
  -9  17   8    2.06    0.67
   9  17  -8    3.35    0.84
  -9 -17   7    0.28    0.67
   9 -17  -7    0.32    0.44
  -9  17   7    0.89    0.56
   9  17  -7   -0.10    0.53
  -9 -17   6    0.87    0.76
  -9  17   6    0.25    0.49
   9 -17  -6    0.21    0.44
   9  17  -6    0.58    0.53
   9 -17  -5   44.49    2.19
  -9 -17   5   48.65    2.67
   9  17  -5   44.97    2.37
  -9  17   5   44.28    2.29
   9 -17  -4    0.32    0.45
  -9  17   4    1.23    0.51
   9  17  -4    0.43    0.45
  -9 -17   4    1.39    0.63
  -9  17   3   94.15    3.39
   9 -17  -3   94.22    3.27
   9  17  -3   92.68    3.32
  -9 -17   3   96.57    3.44
  -9  17   2    0.80    0.57
   9 -17  -2    1.16    0.54
  -9 -17   2    1.60    0.55
   9  17  -2    2.28    0.63
  -9 -17   2    1.71    0.61
   9 -17  -1    7.05    0.97
   9  17  -1    7.05    0.75
  -9 -17   1    7.67    0.81
  -9  17   1    6.05    0.96
  -9  17   1    6.70    0.92
   9  17  -1    7.40    0.98
  -9 -17   1    6.85    0.84
  -9  17   0    3.63    0.80
   9 -17   0    3.24    0.77
  -9  17   0    1.86    0.62
  -9 -17   0    2.77    0.56
  -9  17  -1   37.30    2.21
   9 -17   1   38.73    2.23
  -9  17  -1   38.16    2.12
  -9 -17  -1   41.29    1.62
  -9  17  -2    1.99    0.70
   9 -17   2    1.28    0.55
  -9  17  -2    2.04    0.62
   9 -17   3    2.55    0.74
  -9  17  -3    1.40    0.61
   9 -17   4   -0.69    0.68
  -9  17  -4    0.49    1.04
   9 -17   5    6.31    1.10
  -9  17  -5    6.44    1.06
  -9  17  -6    0.21    0.57
  -9  19   7    2.86    0.75
  -9 -19   7    4.44    1.13
  -9  19   6   10.45    1.25
   9 -19  -6   12.26    1.25
   9  19  -6   12.14    1.39
  -9 -19   6   13.51    1.62
   9 -19  -5   15.22    1.37
  -9  19   5   14.00    1.37
   9  19  -5   15.50    1.52
  -9 -19   5   15.55    1.63
   9 -19  -4    1.01    0.62
  -9  19   4    1.65    0.65
   9  19  -4    0.40    0.46
  -9 -19   4    1.12    0.69
  -9  19   3   25.52    1.82
   9 -19  -3   28.42    1.85
   9  19  -3   26.14    1.83
  -9 -19   3   25.27    1.84
   9 -19  -2    0.87    0.58
  -9  19   2   -0.65    0.59
   9  19  -2    0.91    0.57
  -9 -19   2    0.08    0.49
  -9  19   1    2.42    1.00
   9 -19  -1    1.97    0.68
   9  19  -1    2.61    0.68
  -9 -19   1    3.07    0.68
  -9  19   0   15.37    1.50
   9 -19   0   14.57    1.47
  -9  19   0   16.60    1.76
   9 -19   1   15.83    1.55
  -9  19  -1   14.62    1.46
  -9  19  -1   15.22    1.94
   9 -19   2   17.05    1.65
  -9  19  -2   18.14    1.63
   9 -19   3    5.46    1.00
  -9  19  -3    6.40    1.06
   9 -19   4    1.60    0.71
  -9  19  -4    3.12    0.81
  -9  19  -5    2.00    0.78
  -9  21   5    0.71    0.59
   9 -21  -5    1.16    0.61
  -9 -21   5    1.25    0.63
  -9  21   4   28.38    1.99
   9 -21  -4   27.46    1.91
  -9 -21   4   27.75    2.15
  -9  21   3    0.09    0.57
   9 -21  -3   -0.55    0.58
   9  21  -3   -0.36    0.59
  -9 -21   3   -1.01    0.76
  -9  21   2    7.33    1.12
   9 -21  -2    7.70    1.09
   9  21  -2    8.11    1.09
  -9  21   1    2.81    0.78
   9 -21  -1    3.44    0.81
  -9  21   0    4.00    0.89
  -9  21   0    5.71    1.04
   9 -21   0    4.18    0.88
  -9  21  -1    4.46    0.88
   9 -21   1    5.21    0.97
  -9  21  -2   14.02    1.50
   9 -23  -3    1.14    0.87
  -9  23   3    2.26    0.81
 -10   0  13    1.09    0.87
 -10   0  12   42.77    2.77
 -10   0  12   39.64    2.43
 -10   0  11    0.77    0.72
 -10   0  11    1.81    0.70
 -10   0  10   61.62    3.05
 -10   0   9    0.55    0.61
 -10   0   8   42.81    2.29
  10   0  -7    3.94    0.70
 -10   0   7    3.89    0.76
 -10   0   7    3.87    0.65
  10   0  -6   50.39    2.22
 -10   0   6   46.65    1.95
  10   0  -5    0.16    0.35
 -10   0   5    0.59    0.41
  10   0  -4    3.72    0.65
 -10   0   4    4.70    0.61
  10   0  -3    1.51    0.45
 -10   0   3    1.25    0.40
  10   0  -2  468.22    7.69
 -10   0   2  455.26    6.42
  10   0  -2  458.34    7.26
 -10   0   2  473.73    7.28
 -10   0   1    1.18    0.26
  10   0  -1    1.13    0.36
 -10   0   1    1.70    0.42
 -10   0   0  659.97    9.06
  10   0   0  667.36    9.15
 -10   0   0  670.62    9.54
  10   0   0  658.97    9.46
 -10   0  -1    2.26    0.41
  10   0   1    2.76    0.38
  10   0   1    2.90    0.43
  10   0   2  108.34    2.46
 -10   0  -2  109.29    2.51
  10   0   2  110.89    2.59
  10   0   2  109.37    2.52
  10   0   3    2.51    0.37
 -10   0  -3    2.20    0.40
  10   0   3    2.46    0.46
  10   0   3    2.84    0.41
  10   0   4    6.17    0.60
  10   0   4    7.53    0.77
  10   0   4    6.44    0.60
  10   0   5    2.11    0.42
  10   0   5    1.53    0.40
  10   0   5    1.51    0.49
  10   0   6   20.25    1.18
  10   0   6   20.65    1.36
  10   0   6   16.55    1.05
  10   0   7    1.05    0.37
  10   0   7    2.16    0.59
  10   0   7    1.23    0.43
  10   0   8    6.54    0.76
 -10   0  -8    6.83    0.75
  10   0   8    6.62    0.81
  10   0   8    5.61    0.88
  10   0   9   -0.71    1.48
  10   0   9    0.45    0.46
  10   0  10    1.11    0.67
  10   0  10    1.68    0.66
 -10  -2  13    1.47    1.08
 -10   2  13    0.79    0.58
 -10  -2  12    5.96    1.23
 -10   2  12    5.65    1.07
 -10  -2  11    2.62    0.98
 -10   2  11    3.46    0.85
 -10  -2  10   18.63    1.74
 -10   2  10   21.27    1.64
 -10  -2   9    1.95    0.66
 -10   2   9    2.65    0.70
 -10  -2   8   17.80    1.52
 -10   2   8   20.24    1.43
  10  -2  -7   29.50    1.77
 -10  -2   7   24.79    1.71
 -10   2   7   28.19    1.62
 -10  -2   6  162.37    4.38
  10  -2  -6  179.31    4.54
  10   2  -6  170.58    4.35
 -10   2   6  169.05    4.08
 -10  -2   5  244.01    5.33
  10  -2  -5  246.27    5.44
  10   2  -5  247.03    5.30
 -10   2   5  237.27    4.96
  10   2  -4   54.53    2.14
  10  -2  -4   55.40    2.25
 -10  -2   4   55.23    2.13
 -10  -2   4   51.81    1.91
 -10   2   4   54.07    1.97
  10   2  -3   15.59    1.08
  10  -2  -3   16.22    1.05
 -10  -2   3   17.14    1.01
 -10   2   3   16.55    1.07
  10   2  -2  176.90    3.84
 -10   2   2  167.37    2.62
 -10  -2   2  172.59    3.11
  10  -2  -2  166.53    2.36
  10   2  -2  172.35    2.51
  10  -2  -2  167.84    3.66
 -10  -2   2  175.95    3.46
 -10   2   2  166.51    3.65
  10   2  -1    2.25    0.47
 -10  -2   1    1.84    0.34
 -10   2   1    2.40    0.27
  10  -2  -1    3.46    0.49
 -10  -2   1    2.13    0.38
 -10   2   1    1.91    0.46
  10  -2   0  235.99    3.84
 -10  -2   0  243.21    4.19
  10   2   0  240.71    4.19
 -10   2   0  237.50    3.21
 -10  -2   0  235.97    3.38
  10   2   0  237.84    4.09
 -10   2   0  240.11    4.47
  10  -2   0  244.47    4.53
 -10  -2   0  238.02    4.14
  10   2   1   10.47    0.76
  10  -2   1   11.38    0.66
 -10  -2  -1   11.10    0.75
 -10  -2  -1   10.57    0.67
 -10   2  -1   12.96    0.87
  10   2   1   10.75    0.68
  10  -2   1   13.12    0.87
 -10  -2  -2    2.94    0.39
  10   2   2    2.50    0.35
 -10   2  -2    2.86    0.46
  10  -2   2    3.65    0.52
  10   2   2    2.90    0.46
  10  -2   2    3.04    0.44
  10   2   2    2.79    0.35
  10  -2   2    3.49    0.49
 -10   2  -3   31.84    1.42
 -10  -2  -3   35.19    1.17
  10  -2   3   35.87    1.44
  10   2   3   35.22    1.17
  10   2   3   34.87    1.50
  10  -2   3   35.80    1.41
  10  -2   3   34.51    1.44
  10   2   3   35.17    1.19
  10   2   4   66.92    1.75
 -10   2  -4   71.61    2.19
  10  -2   4   69.21    2.14
  10   2   4   65.49    2.22
  10  -2   4   70.96    2.18
  10  -2   4   72.02    2.19
  10   2   4   62.77    1.72
  10   2   5   56.42    1.68
  10  -2   5   59.30    2.06
  10   2   5   58.87    2.18
  10   2   5   57.34    1.67
  10  -2   5   57.25    2.03
  10  -2   6   15.88    1.14
 -10   2  -6   14.63    1.02
  10   2   6   14.60    0.90
  10   2   6   15.54    1.21
  10   2   6   13.79    0.84
  10  -2   6   14.69    1.08
  10   2   7    0.50    0.32
  10  -2   7    0.26    0.35
 -10   2  -7    0.11    0.47
  10   2   7   -0.12    0.45
  10  -2   7    0.32    0.36
  10   2   7    0.21    0.33
  10   2   8    2.32    0.47
  10   2   8    2.15    0.50
  10  -2   8    1.09    0.49
  10   2   8    1.11    0.55
  10   2   9   -0.70    0.38
  10  -2   9    0.58    0.52
  10  -2   9   -0.34    0.47
  10   2   9    0.17    0.56
  10  -2  10   -0.13    0.51
  10  -2  10    0.47    0.58
  10   2  10    0.06    0.47
 -10   4  13    0.88    0.67
 -10  -4  12   -0.64    0.76
 -10   4  12    0.21    0.53
 -10  -4  11   40.35    2.71
 -10   4  11   41.02    2.37
 -10  -4  10    0.11    0.60
 -10   4  10    0.98    0.60
 -10  -4   9    5.81    1.05
 -10   4   9    4.03    0.82
 -10  -4   8   29.46    1.96
 -10   4   8   30.58    1.78
  10  -4  -7   63.24    2.68
 -10  -4   7   61.39    2.69
 -10   4   7   64.02    2.49
  10   4  -6  189.71    4.70
  10  -4  -6  191.77    4.80
 -10  -4   6  183.40    4.74
 -10   4   6  183.24    4.38
  10  -4  -5   59.94    2.46
  10   4  -5   63.48    2.39
 -10  -4   5   60.37    2.41
 -10   4   5   59.92    2.22
  10  -4  -4  148.39    3.99
 -10  -4   4  150.89    3.81
  10   4  -4  153.90    3.79
  10  -4  -4  150.68    3.69
 -10   4   4  146.39    3.61
  10   4  -3    1.04    0.35
 -10  -4   3    1.48    0.46
  10  -4  -3    1.88    0.25
  10   4  -3    1.74    0.28
  10  -4  -3    1.68    0.44
 -10   4   3    1.36    0.45
  10   4  -2   68.00    2.14
  10   4  -2   69.97    1.51
  10  -4  -2   65.36    1.38
 -10  -4   2   67.72    1.92
 -10   4   2   68.96    2.24
  10  -4  -2   67.88    2.22
  10   4  -1  287.74    5.11
  10   4  -1  291.84    4.21
  10  -4  -1  282.30    4.02
 -10  -4   1  295.85    4.93
 -10  -4   1  294.80    4.78
  10  -4  -1  292.49    5.43
 -10   4   1  287.10    5.34
 -10   4   0    5.45    0.67
  10   4   0    4.78    0.54
 -10   4   0    6.33    0.41
  10  -4   0    5.85    0.41
 -10  -4   0    5.20    0.43
 -10  -4   0    6.69    0.62
 -10  -4   0    5.64    0.50
  10  -4   0    6.42    0.69
  10  -4   1   78.37    2.25
  10   4   1   74.84    1.93
 -10  -4  -1   83.02    2.26
 -10  -4  -1   80.82    1.81
  10  -4   1   80.74    1.83
  10   4   1   80.09    2.24
  10  -4   1   74.90    2.34
 -10   4  -1   75.43    1.70
 -10   4  -1   77.30    2.32
 -10  -4  -1   79.36    1.77
 -10   4  -2   41.63    1.68
  10  -4   2   37.42    1.56
  10   4   2   38.74    1.58
 -10  -4  -2   42.24    1.63
  10   4   2   38.60    1.07
 -10  -4  -2   39.43    1.08
  10  -4   2   39.97    1.65
 -10   4  -3   39.18    1.67
  10   4   3   38.83    1.06
  10  -4   3   38.60    1.62
 -10  -4  -3   41.00    1.05
  10   4   3   38.42    1.66
  10  -4   3   39.35    1.67
  10   4   3   40.39    1.07
 -10   4  -4   14.55    1.06
  10  -4   4   14.40    1.04
  10   4   4   13.70    0.62
  10   4   4   12.60    1.00
  10  -4   4   15.10    1.06
  10   4   4   13.25    0.61
  10  -4   5    7.31    0.80
  10  -4   5    8.53    0.87
  10   4   5    8.41    0.54
  10   4   5    7.90    0.86
  10   4   5    7.71    0.50
  10  -4   6    5.74    0.76
 -10   4  -6    5.30    0.72
  10  -4   6    5.47    0.74
  10   4   6    5.84    0.50
  10   4   6    4.95    0.73
  10   4   6    5.00    0.44
  10   4   7    2.24    0.37
  10   4   7    2.29    0.41
  10  -4   7    2.82    0.67
  10   4   7    3.07    0.69
  10  -4   8   -0.15    0.47
  10   4   8    0.18    0.26
  10   4   8    0.55    0.57
  10  -4   9    1.31    0.60
  10   4   9    1.25    0.63
  10  -4  10   -0.24    0.61
  10   4  10    0.57    0.64
  10  -4  11   -0.87    0.81
 -10   6  13    3.07    0.82
 -10  -6  12    0.74    0.76
 -10   6  12    0.52    0.37
 -10   6  12    2.01    0.76
 -10  -6  11   60.86    3.34
 -10   6  11   61.03    2.23
 -10   6  11   56.97    2.85
 -10  -6  10    2.41    0.84
 -10   6  10    4.63    0.60
 -10   6  10    3.67    0.76
 -10  -6   9   67.91    3.28
 -10   6   9   69.14    2.07
 -10   6   9   72.45    2.92
 -10  -6   8   15.67    1.50
 -10   6   8   18.08    0.91
 -10   6   8   16.41    1.35
 -10  -6   7   18.17    1.53
 -10   6   7   22.71    0.91
 -10   6   7   21.83    1.45
  10   6  -6   25.32    1.57
 -10  -6   6   22.06    1.56
  10  -6  -6   21.93    1.54
 -10   6   6   22.07    0.75
 -10   6   6   22.15    1.42
  10   6  -5   54.23    2.21
 -10  -6   5   50.93    2.24
  10  -6  -5   49.56    2.30
 -10   6   5   49.61    0.95
 -10   6   5   48.48    2.05
  10  -6  -5   52.77    2.14
  10   6  -4    6.09    0.74
 -10  -6   4    4.01    0.69
  10  -6  -4    5.07    0.47
  10   6  -4    3.53    0.44
  10  -6  -4    5.75    0.74
 -10   6   4    4.98    0.70
  10   6  -3   20.91    1.22
 -10  -6   3   19.16    1.22
  10  -6  -3   21.14    0.90
  10   6  -3   20.51    0.92
 -10   6   3   20.14    1.29
  10  -6  -3   21.32    1.29
  10   6  -2    0.59    0.35
 -10  -6   2    1.02    0.43
  10   6  -2    0.61    0.24
  10  -6  -2    1.10    0.42
  10  -6  -2    1.06    0.25
 -10   6   2    0.77    0.39
  10   6  -1  377.19    6.20
 -10   6   1  390.68    5.68
  10  -6  -1  381.98    5.01
  10   6  -1  387.25    5.76
 -10  -6   1  388.71    6.31
 -10  -6   1  393.68    5.91
 -10  -6   1  384.23    5.91
 -10   6   1  376.50    6.76
  10  -6  -1  392.55    6.90
 -10   6   0    5.35    0.72
  10  -6   0    4.73    0.64
  10   6   0    5.90    0.55
 -10  -6   0    6.76    0.70
 -10  -6   0    6.27    0.54
 -10   6   0    6.09    0.51
  10  -6   0    5.40    0.70
 -10  -6   0    6.28    0.49
 -10   6  -1  292.62    5.66
  10  -6   1  283.73    5.50
  10   6   1  287.11    4.60
 -10  -6  -1  320.86    5.56
 -10   6  -1  302.24    4.83
 -10  -6  -1  298.43    4.93
 -10  -6  -1  293.81    4.36
  10  -6   1  302.42    5.72
  10  -6   2    1.87    0.50
 -10  -6  -2    1.98    0.22
 -10   6  -2    1.81    0.56
  10   6   2    1.53    0.24
  10   6   2    2.17    0.48
 -10  -6  -2    2.20    0.46
 -10  -6  -2    2.26    0.41
  10  -6   2    2.09    0.48
  10  -6   3    6.38    0.76
  10  -6   3    6.37    0.75
 -10   6  -3    4.97    0.72
  10   6   3    5.57    0.26
  10   6   3    5.27    0.71
 -10  -6  -3    6.21    0.70
  10   6   3    5.85    0.32
  10  -6   4    2.51    0.52
  10  -6   4    2.68    0.53
 -10   6  -4    3.20    0.60
  10   6   4    2.41    0.54
 -10   6  -5   11.40    1.01
  10  -6   5    9.99    1.01
  10   6   5   10.98    1.03
  10  -6   6    0.72    0.41
  10   6   6    0.87    0.47
  10  -6   7    2.04    0.78
  10   6   7    1.24    0.58
  10   6   7    1.32    0.21
  10  -6   8    0.46    0.49
  10   6   8    0.45    0.52
  10  -6   9    5.30    1.00
  10   6   9    3.68    0.82
  10  -6  10    0.35    0.60
  10   6  10    0.70    0.55
  10  -6  11    2.17    0.82
 -10   8  13    1.86    0.89
 -10   8  12    0.94    0.67
 -10  -8  11    9.74    1.46
 -10   8  11   11.69    1.32
 -10  -8  10    0.67    0.63
 -10   8  10    2.69    0.44
 -10   8  10    3.82    0.83
 -10  -8   9    2.82    0.85
 -10   8   9    1.64    0.37
 -10   8   9    2.70    0.76
 -10  -8   8   13.99    1.49
 -10   8   8   13.91    0.79
 -10   8   8   14.38    1.34
 -10  -8   7   56.12    2.69
 -10   8   7   54.00    1.43
 -10   8   7   56.41    2.45
 -10  -8   6  120.66    3.86
  10  -8  -6  119.39    3.88
 -10   8   6  118.96    2.01
 -10   8   6  123.71    3.63
  10   8  -5  133.15    3.72
 -10  -8   5  129.66    3.87
  10  -8  -5  140.42    3.23
  10   8  -5  126.95    3.15
  10  -8  -5  135.96    3.78
 -10   8   5  134.30    3.74
  10   8  -4  192.97    4.40
 -10  -8   4  185.79    4.51
  10  -8  -4  182.05    3.70
  10   8  -4  185.86    3.81
  10  -8  -4  183.05    4.49
 -10   8   4  186.40    4.49
  10   8  -3    0.25    0.32
 -10  -8   3   -0.13    0.36
  10  -8  -3   -0.08    0.23
  10   8  -3    0.05    0.26
  10  -8  -3    0.96    0.41
 -10   8   3    0.27    0.35
 -10   8   2    5.41    0.71
 -10  -8   2    5.90    0.71
  10   8  -2    5.28    0.61
  10  -8  -2    4.99    0.49
  10   8  -2    4.68    0.50
  10  -8  -2    5.83    0.74
 -10  -8   1   28.92    1.33
  10   8  -1   28.87    1.24
 -10   8   1   29.19    1.18
  10   8  -1   28.25    1.18
 -10  -8   1   28.00    1.42
  10  -8  -1   27.47    1.10
  10  -8  -1   28.79    1.58
 -10   8   1   27.09    1.49
 -10  -8   1   27.72    1.23
 -10   8   0    5.42    0.75
  10  -8   0    4.81    0.68
  10   8   0    6.09    0.52
 -10  -8   0    5.57    0.65
 -10  -8   0    6.40    0.62
 -10   8   0    5.31    0.56
 -10  -8   0    6.11    0.48
  10  -8   0    5.31    0.72
 -10   8  -1   31.31    1.62
  10  -8   1   32.06    1.57
  10   8   1   31.77    1.00
 -10  -8  -1   32.36    1.38
 -10  -8  -1   35.48    1.61
 -10   8  -1   34.48    1.36
 -10  -8  -1   30.67    0.88
  10  -8   1   31.24    1.66
  10   8   2    3.56    0.24
  10  -8   2    3.87    0.67
 -10   8  -2    3.61    0.68
 -10  -8  -2    4.15    0.55
 -10  -8  -2    4.51    0.65
 -10   8  -2    3.46    0.52
  10  -8   2    3.48    0.62
 -10   8  -3   27.95    1.62
  10  -8   3   26.29    1.52
  10   8   3   25.35    1.47
 -10  -8  -3   28.02    1.38
 -10   8  -3   28.70    1.37
  10  -8   3   28.67    1.63
  10  -8   4   32.70    1.77
 -10   8  -4   33.91    1.82
 -10  -8  -4   31.66    1.51
  10   8   4   34.18    1.75
  10  -8   5   32.99    1.86
  10   8   5   32.06    1.80
  10  -8   6   14.85    1.33
  10   8   6   15.78    1.33
  10  -8   7    2.82    0.82
  10   8   7    1.73    0.65
  10  -8   8    0.09    0.53
  10   8   8    0.98    0.55
  10  -8   9    1.27    0.81
  10   8   9    0.23    0.49
  10  -8  10    1.40    0.73
  10  -8  11    0.48    0.74
 -10  10  12   20.80    1.87
 -10 -10  11    0.96    0.75
 -10  10  11   -0.65    0.65
 -10 -10  10   39.64    2.75
 -10  10  10   37.60    2.27
 -10 -10   9   15.18    1.68
 -10  10   9   15.41    0.90
 -10  10   9   16.23    1.45
 -10 -10   8    3.61    0.91
 -10  10   8    2.28    0.32
 -10  10   8    2.61    0.74
 -10 -10   7   28.92    2.01
 -10  10   7   27.91    1.77
 -10 -10   6   67.98    2.94
  10 -10  -6   72.71    2.52
  10  10  -6   69.63    2.46
 -10  10   6   67.80    2.74
 -10 -10   5   88.48    3.21
  10  10  -5   89.23    2.71
  10 -10  -5   91.58    2.70
 -10  10   5   87.57    3.06
 -10 -10   4    7.64    0.92
  10  10  -4    6.46    0.81
  10  10  -4    8.08    0.77
  10 -10  -4    7.76    0.75
  10 -10  -4    6.82    0.88
 -10  10   4    6.84    0.89
  10  10  -3   24.80    1.38
 -10 -10   3   21.92    1.38
  10  10  -3   23.88    1.24
  10 -10  -3   22.19    1.17
 -10  10   3   20.34    1.36
  10 -10  -3   23.34    1.52
  10  10  -2  120.32    3.03
 -10 -10   2  119.69    3.23
  10 -10  -2  117.58    2.86
  10  10  -2  119.37    2.94
  10 -10  -2  120.01    3.58
 -10  10   2  116.91    3.39
 -10  10   1    1.95    0.54
  10 -10  -1    1.82    0.51
 -10 -10   1    0.39    0.35
  10  10  -1    1.17    0.32
  10  10  -1    1.00    0.34
 -10 -10   1    0.65    0.30
 -10  10   1    1.28    0.36
  10 -10  -1    1.28    0.49
 -10 -10   1    0.36    0.28
  10 -10  -1    1.10    0.31
  10 -10   0  137.69    3.66
  10  10   0  142.91    2.87
 -10  10   0  138.25    3.78
 -10 -10   0  143.59    3.12
 -10 -10   0  145.03    3.59
 -10  10   0  139.26    3.31
 -10 -10   0  142.96    3.44
  10 -10   0  146.86    4.02
  10 -10   1    5.27    0.76
 -10 -10  -1    5.95    0.37
 -10  10  -1    3.75    0.69
  10  10   1    7.08    0.46
 -10 -10  -1    6.97    0.74
 -10 -10  -1    6.58    0.40
 -10  10  -1    6.23    0.68
 -10  10  -2    3.77    0.72
  10 -10   2    3.57    0.65
 -10 -10  -2    5.87    0.69
 -10  10  -2    4.01    0.57
  10 -10   3    6.05    0.84
 -10  10  -3    6.28    0.93
 -10 -10  -3    5.11    0.65
 -10  10  -3    5.37    0.69
  10 -10   4   19.03    1.44
 -10  10  -4   19.10    1.46
  10  10   4   20.45    1.42
 -10  10  -4   18.42    1.25
  10 -10   5    7.41    1.02
  10  10   5    6.25    0.89
  10 -10   6    7.21    1.07
  10  10   6    7.12    0.99
  10 -10   7    0.65    0.56
  10  10   7   -0.35    0.50
  10 -10   8    0.53    0.66
  10  10   8    0.47    0.51
  10 -10   9    0.19    0.73
  10  10   9   -0.59    0.58
  10 -10  10    1.06    0.78
 -10  12  11    0.36    0.68
 -10 -12  10   50.70    3.15
 -10  12  10   45.84    2.56
 -10 -12   9   -0.27    0.79
 -10  12   9    0.26    0.49
 -10 -12   8    2.45    0.84
  10  12  -8    4.31    0.79
 -10  12   8    3.06    0.76
 -10 -12   7   11.23    1.33
 -10  12   7   10.32    1.13
  10  12  -7   13.34    1.20
 -10 -12   6   41.71    2.35
  10  12  -6   39.87    1.96
 -10  12   6   38.28    2.06
 -10 -12   5    5.97    0.93
 -10  12   5    4.42    0.74
  10  12  -5    6.00    0.76
  10  12  -4   11.27    1.04
 -10 -12   4    9.36    1.05
  10 -12  -4   11.69    0.97
  10  12  -4   10.54    0.95
 -10  12   4    9.40    1.03
 -10  12   3    9.48    0.99
  10 -12  -3    7.73    0.86
  10  12  -3   10.35    0.94
 -10 -12   3    9.30    0.99
  10  12  -3    9.10    0.86
  10 -12  -3    9.52    0.86
  10 -12  -2  111.15    3.33
  10  12  -2  117.99    3.07
 -10 -12   2  119.40    3.34
  10 -12  -2  119.42    2.02
  10  12  -2  116.76    3.16
  10 -12  -2  118.55    3.12
 -10  12   2  114.05    3.51
 -10  12   1    1.71    0.50
  10 -12  -1    1.16    0.44
  10  12  -1    2.26    0.43
 -10 -12   1    1.27    0.44
 -10  12   1    2.38    0.52
  10  12  -1    1.71    0.46
 -10 -12   1    1.48    0.40
  10 -12  -1    2.03    0.45
  10 -12   0  148.99    4.04
 -10 -12   0  148.31    2.99
  10  12   0  155.69    3.10
 -10  12   0  149.73    4.14
 -10 -12   0  158.84    3.45
 -10 -12   0  163.61    3.97
 -10  12   0  154.68    3.79
 -10 -12  -1    1.85    0.25
 -10  12  -1    2.42    0.62
  10 -12   1    2.09    0.53
  10  12   1    1.56    0.26
 -10  12  -1    1.70    0.48
 -10 -12  -1    1.86    0.49
  10 -12   2   11.11    1.14
 -10  12  -2   10.65    1.10
 -10  12  -2   10.61    0.97
  10 -12   3    3.89    0.75
 -10  12  -3    3.07    0.74
 -10  12  -3    4.27    0.67
  10 -12   4    6.67    0.93
 -10  12  -4    7.93    0.90
  10 -12   5    4.68    0.90
 -10  12  -5    3.30    0.66
  10 -12   6    3.99    0.95
  10  12   6    4.23    0.85
 -10  12  -6    2.31    0.67
  10 -12   7    0.34    0.63
  10  12   7   -0.65    0.58
  10 -12   8    1.12    0.69
  10  12   8    1.91    0.66
  10  14 -10    3.65    0.86
 -10  14  10    1.95    0.74
 -10 -14   9    0.99    0.69
 -10  14   9    1.70    0.69
  10  14  -9    1.40    0.61
 -10 -14   8    6.74    1.18
 -10  14   8    7.86    1.04
  10  14  -8    7.35    1.02
 -10 -14   7   39.12    2.50
  10  14  -7   39.92    2.19
 -10  14   7   36.83    2.09
 -10 -14   6   74.35    3.30
  10  14  -6   81.92    3.03
 -10  14   6   76.83    3.01
 -10 -14   5   78.30    3.20
  10  14  -5   78.02    2.87
 -10  14   5   79.10    3.01
  10 -14  -4   48.40    2.19
 -10 -14   4   47.21    2.34
  10  14  -4   47.31    2.13
 -10  14   4   46.26    2.26
  10  14  -3   14.00    1.11
  10 -14  -3   12.97    1.16
 -10 -14   3   11.78    1.15
  10 -14  -3   14.55    0.54
  10  14  -3   12.75    1.10
 -10  14   3   12.97    1.21
 -10  14   2    4.09    0.76
 -10 -14   2    4.46    0.62
  10 -14  -2    4.29    0.71
  10 -14  -2    4.08    0.37
  10  14  -2    3.93    0.63
 -10 -14   2    3.75    0.65
  10  14  -2    4.36    0.61
 -10  14   1   18.27    1.42
  10  14  -1   20.20    1.13
 -10 -14   1   18.34    1.07
  10 -14  -1   16.27    1.33
 -10  14   1   17.39    1.26
  10  14  -1   19.00    1.29
 -10 -14   1   18.37    1.22
  10  14   0    6.46    0.60
 -10 -14   0    5.58    0.55
  10 -14   0    7.21    0.95
 -10  14   0    5.71    0.90
 -10 -14   0    6.00    0.70
 -10  14   0    5.96    0.80
  10  14   1   17.28    0.80
 -10  14  -1   20.47    1.55
  10 -14   1   18.54    1.46
 -10 -14  -1   17.41    0.93
 -10  14  -1   18.53    1.34
 -10 -14  -1   17.67    0.77
  10 -14   2    0.72    0.46
 -10  14  -2    0.53    0.54
 -10  14  -2    1.29    0.51
  10 -14   3    7.28    1.01
 -10  14  -3    5.88    0.96
 -10  14  -3    5.97    0.85
  10 -14   4    9.33    1.19
 -10  14  -4    9.17    1.05
  10 -14   5   10.50    1.28
 -10  14  -5   11.03    1.19
  10 -14   6    5.33    1.02
 -10  14  -6    3.30    0.79
  10 -14   7    2.43    0.83
 -10  14  -7    1.89    0.63
 -10  14  -8    1.03    0.54
 -10  16   9   11.02    1.27
  10  16  -9   10.41    1.35
 -10 -16   8    4.17    1.06
 -10  16   8    4.85    0.90
  10  16  -8    4.60    0.86
  10 -16  -7   11.74    1.21
 -10  16   7   12.22    1.27
 -10 -16   7   11.64    1.48
  10  16  -7   13.96    1.40
 -10 -16   6    7.30    1.17
 -10  16   6    8.17    1.07
  10 -16  -6    7.98    0.97
  10  16  -6    8.34    1.10
  10 -16  -5   19.99    1.49
 -10 -16   5   19.61    1.68
  10  16  -5   20.98    1.58
 -10  16   5   18.33    1.51
 -10  16   4    3.75    0.81
  10 -16  -4    3.51    0.73
  10  16  -4    2.40    0.63
 -10 -16   4    2.37    0.71
 -10  16   3    8.57    1.05
  10 -16  -3    7.68    0.95
  10  16  -3    8.16    0.97
 -10 -16   3    8.11    0.98
  10 -16  -2   10.36    1.14
 -10  16   2    9.11    1.08
 -10 -16   2    9.46    0.90
  10  16  -2   11.48    0.98
  10  16  -2   10.48    1.06
 -10 -16   2    8.24    0.98
 -10 -16   1   97.40    2.78
 -10  16   1  101.71    3.58
  10 -16  -1   99.54    3.44
  10  16  -1  102.49    2.81
 -10  16   1   98.70    3.33
  10  16  -1   99.31    3.25
 -10 -16   1  101.73    3.13
  10 -16   0    3.29    0.78
 -10  16   0    3.43    0.79
 -10  16   0    1.56    0.54
 -10 -16   0    2.67    0.57
 -10  16  -1   25.47    1.83
  10 -16   1   22.68    1.70
 -10  16  -1   24.22    1.66
 -10 -16  -1   26.57    1.22
 -10  16  -2    9.94    1.21
 -10  16  -2    9.80    1.12
  10 -16   2    9.39    1.21
 -10  16  -3    3.91    0.87
  10 -16   3    3.72    0.87
 -10  16  -3    2.96    0.71
  10 -16   4    3.18    0.92
 -10  16  -4    1.65    0.64
  10 -16   5    8.43    1.28
 -10  16  -5    7.57    1.11
  10 -16   6    0.54    0.70
 -10  16  -6   -0.16    0.52
 -10  16  -7    1.26    0.68
 -10  18   8    1.96    0.68
 -10 -18   7    8.91    1.38
 -10  18   7    9.88    1.22
  10 -18  -7    9.61    1.15
  10  18  -7    9.88    1.24
  10 -18  -6   24.57    1.73
 -10 -18   6   21.95    1.96
  10  18  -6   23.93    1.84
 -10  18   6   23.78    1.78
  10 -18  -5   19.00    1.57
 -10  18   5   19.26    1.61
  10  18  -5   22.58    1.72
 -10 -18   5   17.53    1.69
  10 -18  -4   15.55    1.39
 -10  18   4   14.08    1.38
  10  18  -4   16.73    1.49
 -10 -18   4   14.86    1.48
  10 -18  -3    7.72    1.04
 -10  18   3    5.21    0.93
  10  18  -3    6.78    0.95
 -10 -18   3    6.34    0.96
 -10  18   2    0.27    0.56
  10 -18  -2    1.41    0.63
  10  18  -2    1.33    0.57
 -10 -18   2    2.91    0.72
 -10  18   1   42.67    2.39
  10 -18  -1   41.36    2.30
  10  18  -1   40.17    2.17
 -10 -18   1   44.94    2.12
  10 -18   0    2.06    0.72
 -10  18   0    2.52    0.73
 -10  18   0    2.04    0.61
  10 -18   1   18.73    1.65
 -10  18  -1   19.34    1.66
 -10  18  -1   16.05    1.45
 -10  18  -2   -0.67    0.60
  10 -18   2   -0.22    0.55
 -10  18  -2    0.69    0.59
  10 -18   3    1.99    0.72
 -10  18  -3    2.23    0.68
  10 -18   4    1.23    0.63
 -10  18  -4    1.16    0.60
 -10  18  -5    3.45    0.88
 -10  18  -6    0.97    0.67
 -10  20   6   18.39    1.64
  10 -20  -6   20.93    1.70
 -10 -20   6   19.74    1.92
 -10  20   5   22.09    1.76
  10 -20  -5   21.94    1.72
  10  20  -5   23.27    1.86
 -10 -20   5   21.17    1.93
 -10  20   4   23.62    1.84
  10 -20  -4   23.25    1.77
  10  20  -4   26.12    1.91
 -10 -20   4   25.14    1.98
  10 -20  -3    2.39    0.77
 -10  20   3    2.91    0.81
  10  20  -3    5.84    0.95
 -10 -20   3    3.84    0.85
  10 -20  -2    1.76    0.68
 -10  20   2    1.86    0.69
  10  20  -2    2.92    0.86
 -10 -20   2    2.83    0.72
  10 -20  -1    1.78    0.69
 -10  20   1    0.71    0.57
 -10  20   0    5.81    1.01
 -10  20   0    6.36    1.02
  10 -20   0    7.41    1.10
 -10  20  -1    0.19    0.51
 -10  20  -1    0.24    0.58
 -10  20  -2    0.89    0.60
  10 -20   2   -0.30    0.60
 -10  20  -3    4.34    0.91
 -10  20  -4    4.01    0.95
 -10 -22   5    2.95    1.04
  10 -22  -4    2.64    0.79
 -10  22   4    1.79    0.74
  10 -22  -3   -1.24    0.73
 -10  22   3   -1.08    0.69
  10 -22  -2   12.51    1.43
 -10  22   2   13.36    1.48
 -11  -1  13    4.40    1.10
 -11   1  13    1.75    0.81
 -11  -1  12   13.96    1.67
 -11  -1  12   11.77    1.38
 -11   1  12    9.43    1.24
 -11  -1  11    1.59    0.83
 -11   1  11    3.90    0.86
 -11  -1  10   32.96    2.28
 -11   1  10   35.76    2.13
 -11  -1   9    0.48    0.58
 -11   1   9    0.25    0.46
 -11  -1   8  176.91    5.04
 -11   1   8  178.03    4.61
 -11  -1   7    9.12    1.09
 -11  -1   7    7.98    0.92
 -11   1   7    7.24    0.86
 -11  -1   6  169.95    4.54
  11   1  -6  186.50    4.69
  11  -1  -6  189.33    4.76
 -11  -1   6  173.47    4.21
 -11   1   6  175.37    4.26
  11   1  -5   14.61    1.17
  11  -1  -5   14.35    1.24
 -11  -1   5   13.41    1.03
 -11   1   5   12.58    1.01
  11   1  -4   30.42    1.63
  11  -1  -4   29.57    1.65
 -11  -1   4   27.37    1.39
 -11   1   4   28.47    1.43
  11  -1  -3  140.47    3.73
  11   1  -3  143.15    3.64
 -11   1   3  137.02    2.43
 -11  -1   3  144.50    3.32
 -11   1   3  143.35    3.40
  11   1  -2   21.14    1.27
 -11   1   2   21.06    0.78
 -11  -1   2   23.50    0.94
  11  -1  -2   22.94    1.20
 -11  -1   2   22.44    1.15
 -11   1   2   23.47    1.22
 -11  -1   1   90.16    2.08
 -11   1   1   84.78    1.84
 -11   1   1   90.13    2.47
  11   1  -1   85.40    2.27
  11  -1  -1   87.46    2.44
 -11  -1   1   91.46    2.35
  11  -1   0   25.87    1.03
 -11  -1   0   27.84    1.11
 -11  -1   0   28.91    0.62
  11   1   0   27.61    1.14
 -11  -1   0   30.41    1.27
  11   1   0   28.47    1.20
  11  -1   0   28.06    1.29
 -11   1   0   26.92    1.28
 -11   1  -1    1.70    0.42
 -11  -1  -1    0.98    0.35
 -11  -1  -1    1.74    0.36
  11   1   1    1.50    0.39
  11  -1   1    1.85    0.34
  11   1   1    1.13    0.32
  11  -1   1    2.08    0.42
  11  -1   2   48.49    1.65
  11   1   2   46.84    1.49
 -11   1  -2   47.37    1.68
  11   1   2   46.92    1.67
  11  -1   2   48.19    1.61
  11  -1   2   49.64    1.72
 -11  -1  -2   48.05    1.55
  11   1   2   47.39    1.53
  11   1   3    0.91    0.30
  11  -1   3    0.80    0.31
 -11   1  -3    1.55    0.40
 -11  -1  -3    1.68    0.36
  11   1   3    0.64    0.33
  11  -1   3    1.31    0.38
  11   1   3    1.61    0.35
  11  -1   3    1.62    0.40
 -11   1  -4   24.78    1.25
 -11  -1  -4   25.12    1.13
  11  -1   4   23.77    1.20
  11   1   4   25.27    1.12
  11   1   4   25.71    1.37
  11  -1   4   24.73    1.30
  11   1   4   24.02    1.11
  11  -1   4   23.24    1.20
  11  -1   5    8.46    0.79
  11   1   5    8.59    0.72
  11   1   5    7.08    0.82
  11  -1   5    7.64    0.84
  11  -1   5    8.28    0.78
  11   1   5    6.44    0.63
  11  -1   6    6.65    0.75
  11  -1   6    7.44    0.83
  11   1   6    4.68    0.59
  11  -1   6    7.53    0.92
  11   1   6    4.65    0.82
  11   1   6    6.22    0.69
  11   1   7    2.09    0.47
  11  -1   7    2.27    0.54
  11  -1   7    2.68    0.63
  11   1   7    1.61    0.60
  11  -1   7    2.12    0.52
  11   1   7    1.64    0.42
  11   1   8    2.05    0.51
  11  -1   8    2.54    0.62
  11  -1   8    3.76    0.69
  11   1   8    2.37    0.55
  11  -1   8    3.04    0.72
  11   1   8    4.23    0.79
  11   1   9    0.01    0.34
  11  -1   9   -0.14    0.45
  11   1   9    0.23    0.44
  11  -1   9   -0.19    0.45
  11  -1  10    0.31    0.56
  11   1  10    0.87    0.57
  11  -1  10   -0.21    0.52
 -11   3  13   12.42    1.50
 -11  -3  12   14.58    1.71
 -11   3  12   14.91    1.57
 -11  -3  11   21.39    2.00
 -11   3  11   22.82    1.80
 -11  -3  10    5.62    1.08
 -11   3  10    7.20    1.01
 -11  -3   9    3.48    0.87
 -11   3   9    5.45    0.88
 -11  -3   8    0.76    0.60
 -11   3   8    0.32    0.49
 -11  -3   7   41.56    2.22
 -11   3   7   42.34    2.02
  11  -3  -6    1.33    0.47
  11   3  -6    1.38    0.54
 -11  -3   6    0.51    0.50
 -11   3   6    1.34    0.49
 -11  -3   5    2.61    0.63
  11   3  -5    3.50    0.60
  11  -3  -5    3.50    0.69
 -11   3   5    3.93    0.66
  11  -3  -4  196.91    4.82
 -11  -3   4  191.26    4.52
  11   3  -4  200.53    4.57
 -11  -3   4  198.12    4.19
 -11   3   4  201.13    4.41
  11   3  -3  169.19    3.93
 -11   3   3  155.60    2.36
  11  -3  -3  159.75    2.57
 -11  -3   3  167.95    3.58
  11  -3  -3  159.46    3.81
 -11   3   3  160.96    3.76
  11   3  -3  160.11    2.68
  11   3  -2  343.78    6.20
  11  -3  -2  335.77    4.52
  11   3  -2  347.08    4.73
 -11  -3   2  344.62    5.48
 -11   3   2  350.53    6.26
 -11  -3   2  350.20    5.79
  11  -3  -2  357.29    6.24
  11   3  -1  267.48    5.06
 -11  -3   1  277.21    4.70
  11  -3  -1  265.52    4.01
 -11  -3   1  276.55    4.71
 -11   3   1  272.97    5.18
  11  -3  -1  274.56    5.22
  11   3   0   28.21    1.28
 -11   3   0   28.21    0.74
  11  -3   0   28.13    0.98
 -11  -3   0   29.51    1.24
 -11  -3   0   27.31    0.83
 -11   3   0   27.52    1.35
  11  -3   0   25.61    1.33
 -11  -3   0   28.49    1.15
  11  -3   1    2.17    0.45
 -11   3  -1    2.28    0.48
  11   3   1    4.03    0.56
  11  -3   1    2.35    0.36
 -11  -3  -1    3.28    0.33
 -11  -3  -1    2.61    0.43
 -11  -3  -1    2.75    0.38
  11   3   1    3.38    0.39
  11  -3   1    2.22    0.48
  11  -3   2   28.63    1.34
  11   3   2   25.57    0.99
 -11   3  -2   28.00    1.36
  11   3   2   25.94    1.30
  11  -3   2   27.90    1.16
 -11  -3  -2   27.33    1.30
  11   3   2   27.15    1.01
  11  -3   2   29.31    1.41
 -11  -3  -2   25.78    0.99
  11   3   3    4.03    0.40
  11  -3   3    4.27    0.57
 -11   3  -3    2.96    0.52
 -11  -3  -3    3.71    0.40
  11  -3   3    4.04    0.51
  11   3   3    3.55    0.58
  11   3   3    3.82    0.39
  11  -3   3    3.47    0.53
  11  -3   4    3.12    0.54
  11  -3   4    2.89    0.53
 -11   3  -4    4.67    0.66
  11   3   4    4.01    0.42
  11  -3   4    4.07    0.59
  11   3   4    3.79    0.64
  11   3   4    3.84    0.41
  11  -3   5    1.57    0.46
  11   3   5    2.03    0.34
  11  -3   5    1.86    0.53
  11   3   5    1.59    0.50
  11   3   5    1.56    0.32
  11  -3   6    5.38    0.78
  11  -3   6    4.30    0.69
  11   3   6    5.01    0.53
  11   3   6    4.24    0.73
  11   3   6    4.27    0.47
  11   3   7    8.25    0.73
  11  -3   7    8.75    0.98
  11   3   7    9.05    1.02
  11   3   7    9.10    0.69
  11   3   8    2.05    0.46
  11  -3   8    1.96    0.55
  11   3   8    2.41    0.71
  11  -3   9    0.68    0.50
  11  -3   9    1.74    0.64
  11   3   9    2.59    0.77
  11  -3  10    0.48    0.60
  11  -3  10    0.67    0.57
  11   3  10    0.52    0.58
 -11   5  13    6.32    1.10
 -11  -5  12    3.64    1.00
 -11   5  12    4.08    0.90
 -11  -5  11    1.12    0.74
 -11   5  11    0.53    0.61
 -11  -5  10    5.35    1.06
 -11   5  10    5.99    0.97
 -11  -5   9   96.87    3.93
 -11   5   9  111.28    3.69
 -11  -5   8    1.82    0.68
 -11   5   8    2.07    0.59
 -11  -5   7  226.84    5.75
 -11   5   7  228.97    5.35
 -11  -5   6    3.60    0.77
  11  -5  -6    4.71    0.77
 -11   5   6    3.73    0.72
  11   5  -5    0.80    0.46
  11  -5  -5    0.96    0.49
 -11  -5   5    0.25    0.44
 -11   5   5    1.57    0.49
 -11  -5   4   13.56    1.12
  11   5  -4   14.82    1.12
  11  -5  -4   14.64    0.74
 -11   5   4   15.50    1.16
  11  -5  -4   16.05    1.16
  11   5  -4   14.75    0.78
 -11  -5   3   16.21    1.16
  11   5  -3   19.74    1.21
  11  -5  -3   17.75    0.75
  11   5  -3   18.90    0.82
 -11   5   3   19.40    1.25
  11  -5  -3   18.83    1.24
  11   5  -2   10.88    0.89
  11  -5  -2   12.40    0.57
  11   5  -2   11.36    0.61
 -11  -5   2   11.53    0.80
 -11   5   2   13.55    1.06
  11  -5  -2   13.26    1.04
  11   5  -1    2.83    0.47
  11  -5  -1    3.13    0.27
 -11  -5   1    3.42    0.48
  11   5  -1    3.45    0.34
  11  -5  -1    2.77    0.56
 -11  -5   1    2.78    0.43
 -11   5   1    2.88    0.59
 -11   5   0    2.34    0.51
  11   5   0    2.05    0.39
 -11   5   0    2.89    0.33
 -11  -5   0    3.84    0.53
  11  -5   0    2.87    0.32
 -11  -5   0    2.83    0.35
 -11  -5   0    3.44    0.42
  11  -5   0    2.63    0.54
  11  -5   1  118.40    3.08
  11   5   1  124.73    2.65
 -11  -5  -1  126.24    3.06
  11   5   1  115.59    2.97
 -11  -5  -1  119.71    2.51
  11  -5   1  116.10    2.41
 -11   5  -1  119.61    2.41
  11  -5   1  120.24    3.21
 -11  -5  -1  122.15    2.39
 -11   5  -1  119.30    3.17
 -11  -5  -2    2.67    0.31
 -11   5  -2    4.64    0.68
  11  -5   2    3.02    0.53
  11   5   2    2.84    0.39
  11   5   2    3.40    0.55
 -11  -5  -2    2.63    0.40
 -11  -5  -2    3.01    0.50
  11  -5   2    3.83    0.57
 -11   5  -3   59.74    2.21
  11   5   3   59.93    1.34
  11  -5   3   56.93    2.12
  11   5   3   57.66    1.49
  11   5   3   59.61    2.18
 -11  -5  -3   61.44    2.18
  11  -5   3   59.33    2.21
  11  -5   4    3.31    0.59
 -11   5  -4    2.93    0.59
  11  -5   4    2.34    0.53
  11   5   4    3.40    0.30
  11   5   4    3.43    0.63
  11   5   4    3.68    0.29
  11  -5   5    1.22    0.45
  11   5   5    1.32    0.25
  11  -5   5    1.91    0.53
  11   5   5    1.63    0.54
  11   5   5    1.58    0.22
  11   5   6    1.81    0.30
  11  -5   6    1.29    0.52
  11   5   6    1.78    0.57
  11   5   6    1.86    0.27
  11  -5   7    3.37    0.70
  11   5   7    3.16    0.39
  11   5   7    4.22    1.38
  11  -5   8    0.17    0.52
  11   5   8    0.30    0.51
  11  -5   9    1.28    0.66
  11   5   9    1.54    0.62
  11  -5  10   -0.31    0.62
  11  -5  11    0.77    1.59
 -11   7  13   13.61    1.57
 -11   7  12    4.62    0.95
 -11  -7  11   -0.65    0.82
 -11   7  11   -0.31    0.61
 -11  -7  10    2.30    0.90
 -11   7  10    2.97    0.48
 -11   7  10    3.29    0.83
 -11  -7   9   54.80    2.94
 -11   7   9   55.88    1.76
 -11   7   9   54.93    2.63
 -11  -7   8   -0.15    0.55
 -11   7   8    0.34    0.21
 -11   7   8    0.28    0.52
 -11  -7   7  116.56    3.97
 -11   7   7  108.20    2.14
 -11   7   7  113.42    3.59
 -11  -7   6    4.89    0.81
 -11   7   6    5.00    0.28
 -11   7   6    4.60    0.77
  11   7  -5   16.29    1.26
 -11  -7   5   14.46    1.28
  11  -7  -5   14.64    0.91
  11   7  -5   14.98    0.94
 -11   7   5   16.97    1.29
  11  -7  -5   15.39    1.25
  11   7  -4  114.77    3.27
 -11  -7   4  108.45    3.30
  11  -7  -4  105.19    2.48
  11   7  -4  110.55    2.61
 -11   7   4  105.27    3.25
  11  -7  -4  104.58    3.24
  11   7  -3   39.63    1.73
 -11  -7   3   33.87    1.70
  11  -7  -3   34.77    1.24
  11   7  -3   35.55    1.31
  11  -7  -3   39.21    1.87
 -11   7   3   38.24    1.82
 -11  -7   2  137.81    3.43
  11   7  -2  144.41    3.36
  11   7  -2  135.99    2.81
  11  -7  -2  131.12    2.66
  11  -7  -2  138.74    3.72
 -11   7   2  135.62    3.57
  11   7  -1   13.47    0.88
 -11   7   1   14.01    0.75
  11   7  -1   14.13    0.77
  11  -7  -1   13.86    0.47
 -11  -7   1   14.86    0.97
 -11  -7   1   15.08    0.84
 -11  -7   1   13.57    0.80
 -11   7   1   12.09    1.03
  11  -7  -1   13.00    1.08
  11  -7   0   34.02    1.60
  11   7   0   37.45    1.35
 -11  -7   0   37.35    1.59
 -11  -7   0   37.20    1.36
 -11   7   0   37.23    1.29
  11  -7   0   36.37    1.78
 -11  -7   0   37.52    1.21
 -11   7   0   35.13    1.71
 -11   7  -1   91.41    2.86
  11  -7   1   87.68    2.75
  11   7   1   90.76    2.04
 -11   7  -1   97.70    2.30
 -11  -7  -1   92.83    2.70
 -11  -7  -1   91.36    2.35
  11  -7   1   95.03    2.97
 -11  -7  -1   89.27    1.84
 -11  -7  -2    1.97    0.20
  11  -7   2    2.14    0.53
 -11   7  -2    2.70    0.63
  11   7   2    2.24    0.28
  11   7   2    2.56    0.55
 -11  -7  -2    1.70    0.40
 -11  -7  -2    1.95    0.50
  11  -7   2    2.58    0.59
 -11   7  -2    2.57    0.44
 -11   7  -3   50.59    2.15
  11  -7   3   49.67    2.10
 -11  -7  -3   46.76    1.74
  11   7   3   50.09    2.07
  11  -7   3   50.90    2.18
  11  -7   4    5.54    0.79
 -11   7  -4    5.66    0.79
  11   7   4    7.54    0.88
  11  -7   5    0.35    0.47
  11   7   5    0.94    0.52
  11  -7   6    1.48    0.58
  11   7   6    1.43    0.54
  11  -7   7    2.59    0.72
  11   7   7    1.92    0.63
  11  -7   8    1.44    0.69
  11   7   8    2.46    0.76
  11  -7   9    2.11    0.70
  11   7   9    1.36    0.69
  11  -7  10   -0.35    0.65
  11  -7  11    1.05    0.79
 -11   9  13    4.04    1.06
 -11   9  12   10.04    1.33
 -11  -9  11   10.26    1.52
 -11   9  11   12.70    1.42
 -11  -9  10   -0.41    0.82
 -11   9  10    1.58    0.73
 -11  -9   9    0.28    0.62
 -11   9   9    0.37    0.23
 -11   9   9    1.32    0.67
 -11  -9   8   46.83    2.65
 -11   9   8   46.78    1.35
 -11   9   8   45.36    2.34
 -11  -9   7   -0.32    0.56
 -11   9   7    0.51    0.16
 -11   9   7    0.49    0.53
 -11  -9   6    8.10    1.02
  11  -9  -6    9.83    0.87
  11   9  -6    9.35    0.89
 -11   9   6   10.28    1.10
 -11  -9   5   93.75    3.31
  11  -9  -5   98.82    2.70
 -11   9   5   97.26    3.25
  11   9  -5   98.08    2.74
  11   9  -4   37.05    1.81
 -11  -9   4   35.92    1.90
  11   9  -4   36.27    1.52
  11  -9  -4   34.24    1.44
  11  -9  -4   33.93    1.88
 -11   9   4   37.74    1.90
  11   9  -3  115.71    3.17
 -11  -9   3  108.08    3.26
  11   9  -3  109.20    2.75
  11  -9  -3  111.71    2.70
 -11   9   3  121.94    3.51
  11  -9  -3  114.23    3.52
  11   9  -2   75.26    2.32
 -11  -9   2   73.46    2.46
  11   9  -2   72.15    2.10
  11  -9  -2   69.48    1.99
 -11   9   2   68.27    2.57
  11  -9  -2   76.99    2.76
  11  -9  -1   92.84    2.86
  11   9  -1   93.38    2.47
 -11  -9   1   96.26    2.68
 -11   9   1   97.17    2.45
  11   9  -1   96.97    2.47
 -11  -9   1   99.05    2.78
  11  -9  -1   98.60    3.19
 -11  -9   1   94.67    2.56
 -11   9   1   89.06    2.95
 -11   9   0    3.79    0.69
  11  -9   0    3.71    0.64
  11   9   0    3.46    0.43
 -11  -9   0    4.51    0.62
 -11   9   0    4.41    0.54
 -11  -9   0    3.78    0.55
  11  -9   0    4.29    0.72
 -11  -9   0    4.06    0.42
  11   9   1    4.34    0.40
  11  -9   1    4.92    0.71
 -11   9  -1    5.43    0.78
  11  -9   1    4.72    0.75
 -11  -9  -1    5.43    0.65
 -11  -9  -1    3.64    0.31
 -11   9  -1    4.77    0.57
 -11   9  -2   26.85    1.62
  11  -9   2   26.28    1.56
  11   9   2   26.35    0.64
 -11  -9  -2   26.55    1.35
 -11   9  -2   29.96    1.38
  11  -9   3    1.42    0.53
 -11   9  -3    1.49    0.55
  11   9   3    0.88    0.43
 -11  -9  -3    1.21    0.43
 -11   9  -3    2.16    0.50
  11  -9   4    1.51    0.60
 -11   9  -4    0.98    0.54
  11   9   4    1.39    0.50
 -11  -9  -4    1.73    0.46
  11  -9   5    0.68    0.63
  11   9   5    1.12    0.55
  11  -9   6    7.97    1.09
  11   9   6    6.77    0.97
  11  -9   7    8.83    1.15
  11   9   7    9.47    1.16
  11  -9   8    1.18    0.90
  11   9   8    1.08    0.60
  11  -9   9    2.75    0.93
  11   9   9   -0.73    0.54
  11  -9  10    1.65    0.72
 -11  11  12    4.36    1.04
 -11  11  11    1.75    0.77
 -11 -11  10   13.67    1.67
 -11  11  10   13.98    1.47
 -11 -11   9    0.76    0.71
 -11  11   9    2.00    0.69
 -11 -11   8   93.93    3.94
  11  11  -8   95.41    3.31
 -11  11   8   91.74    3.49
 -11 -11   7    9.66    1.24
  11  11  -7    8.87    0.99
 -11  11   7    9.04    1.11
 -11 -11   6  163.97    4.89
  11  11  -6  167.84    4.19
 -11  11   6  165.80    4.58
 -11 -11   5    1.14    0.63
  11 -11  -5    1.76    0.43
  11  11  -5    0.77    0.36
 -11  11   5    1.32    0.54
 -11  11   4    6.72    0.90
  11  11  -4    6.24    0.79
 -11 -11   4    7.27    0.91
  11 -11  -4    7.25    0.74
  11  11  -4    6.35    0.74
 -11 -11   3   24.74    1.55
  11  11  -3   24.45    1.42
  11 -11  -3   27.43    1.35
  11  11  -3   23.22    1.29
 -11  11   3   24.22    1.57
  11 -11  -2   48.14    2.09
 -11 -11   2   43.60    1.94
  11  11  -2   44.25    1.78
  11  11  -2   48.49    1.84
 -11  11   2   44.70    2.13
  11 -11  -2   44.37    1.71
  11 -11  -1   -0.19    0.44
 -11  11   1   -0.03    0.42
  11  11  -1    0.07    0.29
 -11 -11   1    0.06    0.34
 -11  11   1   -0.21    0.33
  11  11  -1   -0.01    0.33
 -11 -11   1    0.56    0.35
  11 -11   0   10.37    1.02
  11  11   0    9.97    0.67
 -11  11   0    9.06    1.04
 -11 -11   0    9.86    0.78
 -11  11   0    9.69    0.84
 -11 -11   0    8.50    0.82
  11 -11   1    0.66    0.46
 -11  11  -1    0.82    0.49
 -11 -11  -1    1.06    0.20
  11  11   1    1.03    0.25
 -11  11  -1    1.18    0.42
 -11 -11  -1    1.71    0.45
 -11 -11  -1    1.24    0.22
 -11  11  -2   64.27    2.66
  11 -11   2   62.91    2.58
 -11 -11  -2   62.55    2.31
 -11  11  -2   62.89    2.26
  11 -11   3    1.25    0.53
 -11  11  -3    1.06    0.57
 -11  11  -3    1.03    0.46
  11 -11   4   16.42    1.43
 -11  11  -4   16.44    1.43
 -11  11  -4   17.01    1.25
  11 -11   5    0.81    0.63
  11  11   5    0.65    0.49
 -11  11  -5    2.09    0.66
  11 -11   6    2.02    0.80
  11  11   6    0.46    0.49
  11 -11   7   -0.34    0.61
  11  11   7   -0.32    0.50
  11 -11   8    2.85    0.87
  11  11   8    2.46    0.69
  11 -11   9   -0.37    0.68
 -11  13  11    7.04    1.18
  11  13 -10    2.77    0.77
 -11  13  10    2.47    0.79
 -11 -13   9    0.90    0.72
 -11  13   9    0.39    0.51
  11  13  -9    1.69    0.63
 -11 -13   8   26.08    2.18
 -11  13   8   26.35    1.87
  11  13  -8   30.60    1.93
 -11 -13   7   -0.03    0.61
 -11  13   7    0.43    0.45
  11  13  -7    0.33    0.40
 -11 -13   6    4.68    0.90
  11  13  -6    5.02    0.78
 -11  13   6    5.12    0.89
 -11 -13   5   11.53    1.25
  11  13  -5   13.66    1.14
 -11  13   5   12.58    1.22
 -11 -13   4   46.90    2.33
  11  13  -4   48.92    2.10
 -11  13   4   51.80    2.42
  11 -13  -3   89.33    3.03
  11  13  -3   92.79    2.91
 -11 -13   3   89.26    3.11
  11  13  -3   90.50    2.84
  11 -13  -3   88.64    2.78
 -11  13   3   89.80    3.20
  11  13  -2   16.95    1.12
  11 -13  -2   16.06    1.27
 -11 -13   2   15.57    1.22
  11 -13  -2   17.04    0.56
  11  13  -2   16.07    1.14
  11 -13  -2   15.82    1.10
 -11  13   2   16.91    1.38
  11 -13  -1   42.77    2.07
 -11 -13   1   41.93    1.62
  11  13  -1   46.29    1.71
 -11  13   1   44.18    2.19
 -11  13   1   46.18    1.96
  11  13  -1   45.23    1.90
 -11 -13   1   44.61    1.90
  11  13   0    9.77    0.69
  11 -13   0   10.20    1.07
 -11 -13   0    9.06    0.65
 -11  13   0   10.18    1.10
 -11 -13   0   11.04    0.87
 -11  13   0   10.70    0.97
 -11  13  -1   18.64    1.48
  11  13   1   19.06    0.80
  11 -13   1   19.89    1.46
 -11  13  -1   18.26    1.27
 -11 -13  -1   19.48    0.72
 -11 -13  -1   17.91    0.72
  11 -13   2   11.00    1.18
 -11  13  -2   10.97    1.21
 -11  13  -2    8.93    0.95
 -11  13  -3    7.00    1.02
  11 -13   3    4.72    0.91
 -11  13  -3    6.16    0.84
  11 -13   4    9.60    1.17
 -11  13  -4    9.09    1.01
  11 -13   5    0.96    0.62
 -11  13  -5    1.37    0.56
  11 -13   6    1.30    0.79
 -11  13  -6    1.18    0.56
  11 -13   7    3.40    0.96
  11  13   7    5.29    0.97
 -11  13  -7    2.90    0.77
 -11  13  -8    0.47    0.55
 -11  15  10    1.93    1.22
 -11 -15   9    4.94    1.13
  11  15  -9    6.93    1.08
 -11  15   9    7.22    1.10
 -11 -15   8   -0.49    0.87
 -11  15   8   -0.39    0.56
  11  15  -8   -0.26    0.56
 -11 -15   7   19.92    1.89
  11  15  -7   19.57    1.57
 -11  15   7   17.85    1.55
 -11 -15   6    2.83    0.82
 -11  15   6    2.64    0.69
  11  15  -6    2.42    0.61
 -11 -15   5    1.18    0.66
  11 -15  -5    0.92    0.52
 -11  15   5    1.61    0.56
  11  15  -5    1.40    0.55
 -11  15   4   10.29    1.17
  11 -15  -4    9.46    1.04
 -11 -15   4    8.67    1.13
  11  15  -4    8.58    0.95
 -11 -15   3   37.33    1.87
  11 -15  -3   36.56    1.99
 -11 -15   3   39.30    2.09
  11  15  -3   36.30    1.90
 -11  15   3   37.45    2.12
  11 -15  -2   20.71    1.53
  11  15  -2   18.28    1.22
 -11 -15   2   19.71    1.27
 -11  15   2   21.12    1.61
  11  15  -2   18.26    1.33
 -11 -15   2   18.66    1.40
 -11  15   1   24.56    1.75
  11 -15  -1   24.82    1.69
 -11 -15   1   24.59    1.28
  11  15  -1   25.53    1.31
 -11  15   1   26.44    1.60
  11  15  -1   25.83    1.56
 -11 -15   1   25.76    1.52
 -11 -15   0   18.04    0.96
 -11  15   0   18.25    1.52
  11 -15   0   17.31    1.43
  11  15   0   18.14    0.98
 -11  15   0   14.96    1.25
 -11 -15   0   18.03    1.15
 -11  15  -1   23.73    1.77
  11 -15   1   25.96    1.81
 -11  15  -1   25.44    1.62
 -11  15  -2    7.06    1.04
  11 -15   2    7.01    1.04
 -11  15  -2    6.74    0.90
 -11  15  -3   12.41    1.38
  11 -15   3   11.93    1.34
 -11  15  -3   12.48    1.24
  11 -15   4    1.77    0.65
 -11  15  -4    1.49    0.59
  11 -15   5    0.42    0.55
 -11  15  -5    0.17    0.52
  11 -15   6    1.60    0.64
 -11  15  -6    2.48    0.75
 -11  15  -7    1.89    0.72
 -11  17   9   25.98    2.23
 -11 -17   8    1.16    0.79
  11 -17  -8    0.46    0.58
 -11  17   8    0.72    0.66
  11  17  -8    1.85    0.74
  11 -17  -7   46.69    2.41
 -11 -17   7   47.50    2.94
  11  17  -7   48.59    2.61
 -11  17   7   43.46    2.44
 -11 -17   6    2.30    0.86
 -11  17   6    1.22    0.59
  11 -17  -6    2.35    0.71
  11  17  -6    1.91    0.63
 -11  17   5    6.09    0.97
  11 -17  -5    6.76    0.97
  11  17  -5    6.37    0.96
 -11 -17   5    5.82    1.08
 -11  17   4    1.00    0.58
  11 -17  -4   -0.36    0.62
  11  17  -4    0.06    0.45
  11 -17  -3    5.15    0.90
 -11  17   3    6.16    0.94
  11  17  -3    5.91    0.85
 -11 -17   3    6.93    1.01
  11 -17  -2    0.35    0.49
 -11  17   2    0.32    0.50
  11  17  -2    0.63    0.49
 -11 -17   2    0.54    0.54
 -11  17   1    0.09    0.51
  11 -17  -1    0.09    0.51
 -11  17   1    0.19    0.47
  11  17  -1    0.76    0.47
 -11 -17   1   -0.14    0.39
  11 -17   0    1.86    0.72
 -11  17   0    1.98    0.63
 -11  17   0    1.02    0.53
 -11 -17   0    1.19    0.49
 -11  17  -1   33.02    2.16
  11 -17   1   34.72    2.18
 -11  17  -1   31.01    1.92
 -11  17  -2    2.31    0.83
 -11  17  -2    1.55    0.62
  11 -17   2    1.16    0.57
  11 -17   3   32.17    2.21
 -11  17  -3   27.52    1.93
  11 -17   4    1.97    0.77
 -11  17  -4    0.84    0.60
 -11  17  -5    1.48    0.62
 -11  17  -6    0.64    0.61
 -11  19   7    9.30    1.25
  11 -19  -7    7.68    1.15
 -11  19   6   -0.35    0.58
  11 -19  -6   -0.01    0.61
  11  19  -6   -0.03    0.52
 -11 -19   6   -2.05    0.87
  11 -19  -5    5.08    0.94
 -11  19   5    2.98    0.87
  11  19  -5    2.54    0.70
 -11 -19   5    2.55    0.83
  11 -19  -4    5.22    0.96
 -11  19   4    5.68    1.04
  11  19  -4    5.47    0.89
 -11 -19   4    5.48    1.04
 -11  19   3   26.57    1.95
  11 -19  -3   27.55    1.92
  11  19  -3   27.46    1.86
 -11 -19   3   27.21    1.92
 -11  19   2   25.02    1.93
  11 -19  -2   22.28    1.77
  11  19  -2   25.83    1.80
 -11 -19   2   24.50    1.71
  11 -19  -1    3.56    0.79
 -11  19   1    2.06    0.64
  11 -19   0    2.76    0.84
 -11  19   0    3.75    0.98
 -11  19   0    2.45    0.73
 -11  19  -1    4.20    0.92
 -11  19  -1    3.21    0.74
  11 -19   1    3.53    0.81
 -11  19  -2    2.13    0.75
 -11  19  -2    1.35    0.70
  11 -19   2    2.25    0.73
 -11  19  -3    4.32    0.95
 -11  19  -4    0.47    0.53
 -11  21   6    7.63    1.21
 -11  21   5    6.25    1.06
  11 -21  -5    6.21    1.03
 -11 -21   5    5.80    1.17
 -11  21   4    6.99    1.09
  11 -21  -4    7.57    1.13
 -11 -21   4    5.80    1.22
  11 -21  -3   14.58    1.50
 -11  21   3   13.36    1.47
  11 -21  -2   10.03    1.33
 -11  21   2   10.21    1.33
  11  21  -2    9.82    1.22
 -11  21   1    5.94    1.07
  11 -21  -1    4.60    0.94
 -11  21   0   -0.25    0.52
 -11  21  -1    0.81    0.65
 -11  21  -2    5.33    1.01
 -12   0  12    2.01    0.78
 -12   0  11    1.80    0.77
 -12   0  10   33.31    2.08
 -12   0   9    0.15    0.45
 -12   0   8    1.76    0.58
 -12   0   7    0.85    0.42
  12   0  -6  261.95    6.00
 -12   0   6  258.09    5.54
  12   0  -5    1.47    0.52
 -12   0   5    0.92    0.41
  12   0  -4  308.02    6.36
 -12   0   4  306.13    5.82
  12   0  -3    0.76    0.43
 -12   0   3    0.67    0.20
 -12   0   3    0.98    0.42
  12   0  -2    1.54    0.46
 -12   0   2    2.34    0.35
 -12   0   2    2.09    0.46
  12   0  -2    1.95    0.43
 -12   0   1    0.62    0.23
 -12   0   1    0.41    0.34
  12   0  -1    0.27    0.29
  12   0   0   87.05    2.15
 -12   0   0   83.84    2.06
  12   0   0   82.88    2.33
 -12   0   0   85.84    2.39
 -12   0  -1    2.64    0.46
  12   0   1    1.62    0.38
  12   0   1    3.20    0.47
 -12   0  -2    1.01    0.35
  12   0   2    2.00    0.41
  12   0   2    2.04    0.44
  12   0   2    2.05    0.41
  12   0   3    0.43    0.28
 -12   0  -3    0.69    0.30
  12   0   3    0.97    0.36
  12   0   3    0.74    0.31
 -12   0  -4   16.24    1.01
  12   0   4   14.68    0.94
  12   0   4   14.05    1.05
  12   0   4   13.34    0.90
  12   0   5    3.26    0.56
  12   0   5    2.34    0.59
  12   0   5    2.21    0.49
  12   0   6  183.45    4.05
  12   0   6  179.50    4.46
  12   0   6  175.13    3.95
  12   0   7    1.32    0.43
  12   0   7    2.47    0.54
  12   0   7    1.23    0.55
  12   0   8    1.08    0.48
  12   0   8    1.24    0.58
  12   0   9   -0.37    0.41
  12   0   9   -0.16    0.56
  12   0  10    0.54    0.58
 -12  -2  12    4.30    1.10
 -12   2  12    1.12    0.60
 -12  -2  11   23.46    2.10
 -12   2  11   26.39    1.96
 -12  -2  10   25.05    2.05
 -12   2  10   27.35    1.89
 -12  -2   9   48.06    2.68
 -12   2   9   51.05    2.48
 -12  -2   8    0.34    0.51
 -12   2   8    0.81    0.50
 -12  -2   7  118.61    3.92
 -12   2   7  121.45    3.62
 -12  -2   6   12.82    1.22
  12  -2  -6   12.23    1.20
  12   2  -6   15.02    1.28
 -12  -2   6   12.67    1.07
 -12   2   6   12.32    1.08
  12   2  -5    0.88    0.44
  12  -2  -5    0.42    0.48
 -12   2   5    0.43    0.36
 -12  -2   5    0.71    0.41
  12   2  -4   67.87    2.55
  12  -2  -4   65.18    2.61
 -12  -2   4   64.43    2.22
 -12   2   4   62.77    2.29
  12   2  -3    0.10    0.37
 -12   2   3    0.38    0.15
  12  -2  -3    0.07    0.10
  12  -2  -3    0.03    0.31
 -12   2   3    0.64    0.39
  12   2  -3    0.15    0.13
 -12  -2   3    0.14    0.33
  12   2  -2   38.44    1.73
  12   2  -2   36.12    0.74
 -12   2   2   34.07    0.98
 -12  -2   2   34.87    1.26
 -12   2   2   36.82    1.62
  12  -2  -2   36.77    1.62
 -12  -2   2   35.66    1.47
  12   2  -1  158.15    3.72
 -12  -2   1  158.16    3.19
 -12   2   1  155.17    3.68
  12  -2  -1  158.86    3.66
 -12  -2   1  159.26    3.39
  12  -2   0   95.33    2.13
 -12  -2   0   91.35    2.32
 -12  -2   0   87.51    1.56
 -12   2   0   94.06    2.63
 -12  -2   0   91.11    2.36
  12   2   0   93.78    2.35
  12  -2   0   97.05    2.66
 -12  -2  -1   54.94    1.27
  12  -2   1   51.54    1.61
 -12  -2  -1   56.04    1.81
  12   2   1   59.55    1.90
 -12  -2  -1   55.49    1.70
  12   2   1   53.73    1.66
 -12   2  -1   50.13    1.87
  12  -2   1   52.68    1.92
  12   2   2    8.43    0.63
 -12   2  -2    8.47    0.78
  12  -2   2    9.41    0.79
  12   2   2    9.22    0.80
  12  -2   2    9.08    0.70
  12  -2   2   10.03    0.84
  12   2   2    8.54    0.63
 -12  -2  -2    8.53    0.64
  12   2   3    1.08    0.29
  12  -2   3    1.51    0.39
 -12   2  -3    1.05    0.36
 -12  -2  -3    1.15    0.30
  12   2   3    0.98    0.35
  12  -2   3    1.59    0.38
  12   2   3    1.58    0.31
  12  -2   3    1.30    0.40
 -12   2  -4   10.89    0.91
  12  -2   4   11.11    0.90
  12   2   4   10.69    0.72
  12   2   4    9.17    0.89
  12  -2   4    9.33    0.83
  12   2   4    9.95    0.72
  12  -2   4   10.03    0.87
  12  -2   5    0.82    0.42
  12   2   5    1.85    0.39
  12  -2   5    1.16    0.43
  12   2   5    0.72    0.41
  12  -2   5    0.94    0.46
  12   2   5    0.93    0.32
  12  -2   6    1.85    0.51
  12  -2   6    1.82    0.52
  12   2   6    1.47    0.42
  12   2   6    1.91    0.59
  12  -2   6    2.17    0.68
  12   2   6    1.74    0.40
  12  -2   7    0.05    0.39
  12  -2   7    0.61    0.42
  12   2   7    0.14    0.30
  12  -2   7    0.04    0.43
  12   2   7    0.81    0.55
  12   2   7    0.19    0.30
  12  -2   8    0.66    0.42
  12   2   8    0.34    0.37
  12  -2   8   -0.39    0.46
  12   2   8   -0.12    0.54
  12  -2   9   -0.07    0.47
  12  -2   9   -0.98    0.56
  12   2   9    0.68    0.57
  12  -2  10    1.50    0.66
 -12  -4  12    8.45    1.41
 -12   4  12    8.59    1.26
 -12  -4  11    4.77    1.10
 -12   4  11    8.06    1.19
 -12  -4  10   26.06    2.16
 -12   4  10   27.40    1.89
 -12  -4   9   78.50    3.50
 -12   4   9   79.92    3.17
 -12  -4   8   67.26    3.11
 -12   4   8   68.73    2.81
 -12  -4   7   43.96    2.41
 -12   4   7   50.21    2.30
 -12  -4   6    5.55    0.89
 -12   4   6    5.64    0.77
  12  -4  -5  169.16    4.66
 -12  -4   5  170.54    4.49
  12   4  -5  172.88    4.43
 -12   4   5  167.87    4.24
 -12  -4   4    0.73    0.48
  12   4  -4    0.52    0.38
 -12   4   4    0.65    0.11
 -12  -4   4    0.64    0.36
  12  -4  -4    0.90    0.39
 -12   4   4    1.47    0.47
  12   4  -3   11.28    0.99
  12   4  -3   10.64    0.56
  12  -4  -3   11.24    0.53
 -12   4   3   10.15    0.93
 -12  -4   3   11.19    0.88
  12  -4  -3   10.73    0.97
  12   4  -2   15.69    1.10
  12   4  -2   14.89    0.61
 -12  -4   2   14.82    0.89
 -12  -4   2   16.95    0.99
 -12   4   2   17.19    1.18
  12  -4  -2   16.32    1.12
  12  -4  -2   14.54    0.52
  12   4  -1   32.41    1.46
 -12  -4   1   30.13    1.30
  12  -4  -1   27.06    0.86
 -12  -4   1   30.31    1.26
  12  -4  -1   28.64    1.50
 -12   4   1   26.89    1.46
  12   4   0  281.11    5.15
  12  -4   0  287.33    4.43
 -12  -4   0  284.40    5.14
 -12   4   0  288.89    4.09
 -12  -4   0  278.68    4.30
 -12   4   0  286.90    5.50
  12  -4   0  283.21    5.56
 -12  -4   0  272.68    4.76
  12  -4   1   95.26    2.72
  12   4   1  100.62    2.53
 -12  -4  -1  102.69    2.71
  12  -4   1   97.85    2.25
 -12  -4  -1  101.40    2.13
  12   4   1  104.10    2.75
  12  -4   1  102.26    2.93
 -12   4  -1   95.75    2.84
 -12  -4  -1  100.10    2.25
 -12   4  -1   98.39    2.00
  12  -4   2   12.49    0.97
 -12   4  -2   14.48    1.06
  12  -4   2   13.47    0.83
 -12  -4  -2   14.53    0.99
  12   4   2   14.44    1.02
 -12  -4  -2   13.34    0.71
  12   4   2   14.25    0.72
  12  -4   2   14.71    1.07
  12   4   3    0.99    0.26
  12  -4   3    0.95    0.48
 -12   4  -3    0.70    0.38
 -12  -4  -3    0.80    0.24
  12  -4   3    1.68    0.41
  12   4   3    0.52    0.41
  12  -4   3    0.97    0.36
  12   4   3    0.71    0.21
  12  -4   4    1.28    0.47
 -12   4  -4    1.00    0.44
  12   4   4    1.19    0.26
  12  -4   4    1.77    0.43
  12   4   4    1.16    0.45
  12   4   4    1.52    0.28
  12  -4   4    0.88    0.33
  12  -4   5   22.72    1.41
  12   4   5   22.71    0.93
  12   4   5   22.70    1.49
  12  -4   5   22.00    1.42
  12   4   5   22.69    0.92
  12  -4   6    0.73    0.45
  12   4   6    0.53    0.27
  12   4   6    1.57    0.59
  12   4   6    0.86    0.27
  12  -4   7    3.29    0.73
  12   4   7    2.31    0.42
  12   4   7    2.69    0.69
  12  -4   8    0.26    0.49
  12   4   8    0.21    0.50
  12  -4   9    0.68    0.60
  12  -4   9    1.53    0.65
  12   4   9    1.05    0.62
  12  -4  10    1.57    0.90
 -12   6  12    0.10    0.52
 -12  -6  11    3.67    1.01
 -12   6  11    3.62    0.86
 -12  -6  10    1.28    0.81
 -12   6  10    1.81    0.44
 -12   6  10    0.96    0.60
 -12  -6   9    0.12    0.67
 -12   6   9    0.12    0.25
 -12   6   9    0.26    0.51
 -12  -6   8    0.66    0.60
 -12   6   8    0.78    0.24
 -12   6   8    0.99    0.57
 -12  -6   7   65.75    3.00
 -12   6   7   72.77    1.59
 -12   6   7   66.76    2.76
 -12  -6   6    4.37    0.80
 -12   6   6    5.61    0.29
 -12   6   6    4.66    0.77
  12  -6  -5  322.70    7.07
  12   6  -5  335.29    6.69
 -12  -6   5  310.93    6.70
  12  -6  -5  323.60    5.37
  12  -6  -5  323.01    6.60
 -12   6   5  320.99    6.53
  12   6  -4    5.22    0.73
 -12  -6   4    3.81    0.68
  12  -6  -4    4.72    0.46
 -12   6   4    4.31    0.74
  12   6  -4    4.07    0.44
  12  -6  -4    5.67    0.76
 -12  -6   3   68.49    2.49
  12   6  -3   71.24    2.45
  12  -6  -3   69.39    1.72
  12   6  -3   71.80    1.83
  12  -6  -3   73.70    2.62
 -12   6   3   73.94    2.60
  12   6  -2    6.37    0.70
 -12  -6   2    5.96    0.60
  12   6  -2    6.07    0.48
  12  -6  -2    6.66    0.80
 -12  -6   2    5.53    0.61
  12  -6  -2    6.38    0.45
 -12   6   2    6.59    0.81
 -12   6   1    0.40    0.38
  12   6  -1    0.94    0.34
 -12  -6   1    0.93    0.36
  12  -6  -1    1.20    0.19
  12  -6  -1    0.56    0.40
 -12  -6   1    0.74    0.29
  12  -6   0   69.64    2.36
  12   6   0   73.85    2.10
 -12  -6   0   79.87    2.38
 -12  -6   0   75.54    1.91
  12  -6   0   70.70    1.64
 -12   6   0   72.98    1.76
  12  -6   0   73.96    2.59
 -12   6   0   68.59    2.44
 -12  -6   0   75.15    1.90
  12  -6   1   70.06    2.37
  12   6   1   65.16    1.84
 -12  -6  -1   70.57    2.31
 -12   6  -1   70.51    1.80
  12  -6   1   68.88    1.76
 -12  -6  -1   68.09    1.88
  12  -6   1   71.43    2.53
 -12  -6  -1   67.97    1.67
 -12   6  -1   67.63    2.43
  12  -6   2    5.61    0.73
 -12   6  -2    5.83    0.76
  12   6   2    6.83    0.52
  12   6   2    6.64    0.73
 -12  -6  -2    6.46    0.59
 -12  -6  -2    6.62    0.75
  12  -6   2    6.26    0.80
 -12   6  -2    6.04    0.55
 -12  -6  -2    6.75    0.43
 -12   6  -3   11.09    1.05
  12   6   3   12.37    0.54
  12  -6   3   12.17    1.07
  12   6   3   14.54    0.67
 -12  -6  -3   12.42    0.85
  12   6   3   11.44    1.03
  12  -6   3   11.99    1.07
  12  -6   4    1.00    0.50
 -12   6  -4    1.23    0.52
  12   6   4    0.94    0.43
  12   6   4    1.13    0.19
  12   6   4    1.86    0.24
  12  -6   5   23.67    1.56
  12   6   5   21.81    0.61
  12   6   5   24.50    1.58
  12  -6   6    1.25    0.58
  12   6   6    1.18    0.54
  12  -6   7    4.13    0.82
  12   6   7    4.97    0.88
  12  -6   8    1.14    0.56
  12   6   8    0.48    0.48
  12  -6   9    0.29    0.65
  12   6   9    1.46    0.71
  12  -6  10    0.05    0.71
  12  -6  11    0.16    0.85
 -12   8  12    2.93    0.80
 -12  -8  11   23.89    2.21
 -12   8  11   22.15    1.88
 -12  -8  10   23.60    2.11
 -12   8  10   24.44    1.87
 -12  -8   9   56.59    3.06
 -12   8   9   51.86    1.59
 -12   8   9   54.90    2.68
 -12  -8   8   31.65    2.21
 -12   8   8   30.07    1.02
 -12   8   8   32.22    2.01
 -12   8   7    0.21    0.12
 -12   8   7   -0.19    0.50
 -12  -8   6    5.59    0.92
  12  -8  -6    5.43    0.64
  12   8  -6    4.63    0.60
 -12   8   6    4.14    0.73
 -12  -8   5   23.83    1.66
  12  -8  -5   28.91    1.31
 -12   8   5   28.79    1.75
  12   8  -5   27.44    1.32
 -12  -8   4    1.71    0.53
  12   8  -4    2.24    0.53
  12  -8  -4    1.07    0.29
  12   8  -4    1.91    0.38
 -12   8   4    2.15    0.55
 -12  -8   3    9.04    0.94
  12   8  -3   10.28    0.94
  12   8  -3   10.99    0.76
  12  -8  -3    9.63    0.68
  12  -8  -3    9.14    0.98
 -12   8   3   10.01    1.05
  12   8  -2   74.84    2.39
 -12  -8   2   73.83    2.51
  12   8  -2   75.56    2.04
 -12  -8   2   75.82    2.36
 -12   8   2   72.50    2.64
  12  -8  -2   86.10    2.95
  12  -8  -2   76.83    1.96
  12   8  -1   74.79    2.22
  12   8  -1   73.57    1.99
 -12   8   1   76.39    1.98
  12  -8  -1   75.06    1.36
 -12  -8   1   78.66    2.44
 -12  -8   1   75.81    2.12
 -12  -8   1   78.19    2.10
 -12   8   1   73.23    2.64
  12  -8  -1   81.55    2.83
  12  -8   0   80.84    2.71
  12   8   0   92.39    2.31
 -12  -8   0   94.69    2.78
 -12   8   0   87.84    2.23
 -12  -8   0   92.93    2.41
  12  -8   0   84.37    2.94
 -12   8   0   80.43    2.84
 -12  -8   0   91.42    2.09
  12  -8   1   46.38    2.03
 -12   8  -1   45.71    2.09
  12   8   1   45.48    1.38
 -12  -8  -1   49.66    2.01
 -12  -8  -1   47.44    1.71
 -12   8  -1   49.92    1.66
 -12  -8  -1   45.13    1.22
  12  -8   1   47.66    2.16
 -12   8  -2   22.89    1.51
  12  -8   2   24.35    1.49
  12   8   2   24.49    0.78
 -12  -8  -2   26.79    1.29
 -12   8  -2   25.57    1.23
  12  -8   3    2.14    0.60
 -12   8  -3    1.25    0.56
  12   8   3    2.41    0.56
 -12  -8  -3    2.56    0.49
 -12   8  -3    2.16    0.47
 -12   8  -4    1.88    0.61
  12  -8   4    0.68    0.49
  12   8   4    0.45    0.45
 -12  -8  -4    1.19    0.45
  12  -8   5   13.05    1.27
  12   8   5   11.09    1.16
  12  -8   6    6.94    1.06
  12   8   6    7.78    1.06
  12  -8   7    2.92    0.83
  12   8   7    3.22    0.81
  12  -8   8    1.31    0.72
  12   8   8    0.95    0.57
  12  -8   9    1.63    0.87
  12   8   9   -0.17    0.56
  12  -8  10    2.41    0.90
 -12  10  12   -0.07    0.66
 -12  10  11   17.09    1.66
 -12 -10  10   18.81    1.95
 -12  10  10   19.03    2.01
 -12 -10   9    8.70    1.38
 -12  10   9    7.57    1.11
 -12 -10   8    3.61    0.93
 -12  10   8    5.37    0.92
 -12 -10   7    8.56    1.20
  12  10  -7    7.56    0.85
 -12  10   7    8.23    1.08
 -12 -10   6   61.44    2.86
  12 -10  -6   66.92    2.34
 -12  10   6   65.59    2.79
  12  10  -6   64.85    2.36
 -12 -10   5    0.73    0.59
  12 -10  -5    1.38    0.39
  12  10  -5    1.30    0.40
 -12  10   5    1.39    0.60
  12  10  -4  188.68    4.55
 -12 -10   4  176.64    4.67
  12 -10  -4  181.00    3.90
  12  10  -4  178.50    3.96
 -12  10   4  181.37    4.73
  12  10  -3   50.31    2.05
 -12 -10   3   50.40    2.20
  12 -10  -3   46.07    1.69
  12  10  -3   47.76    1.79
 -12  10   3   46.88    2.20
 -12  10   2    2.99    0.67
  12  10  -2    1.94    0.46
 -12 -10   2    2.00    0.51
  12  10  -2    2.37    0.43
  12 -10  -2    2.16    0.42
  12 -10  -1   38.00    1.88
  12  10  -1   39.53    1.56
 -12 -10   1   40.46    1.73
  12  10  -1   39.50    1.55
 -12  10   1   39.36    1.54
 -12 -10   1   40.27    1.67
 -12  10   1   39.20    2.02
 -12  10   0   45.08    2.16
  12 -10   0   45.37    2.09
  12  10   0   47.76    1.56
 -12  10   0   49.63    1.79
 -12 -10   0   50.90    1.91
 -12 -10   0   50.87    1.48
  12 -10   1   12.84    1.12
  12  10   1   11.91    0.64
 -12  10  -1   13.25    1.20
 -12  10  -1   12.37    0.91
 -12 -10  -1   11.25    0.92
 -12 -10  -1   10.77    0.52
 -12  10  -2    2.34    0.64
  12 -10   2    4.25    0.76
  12  10   2    2.44    0.18
 -12 -10  -2    4.68    0.65
 -12  10  -2    3.60    0.57
  12 -10   3    1.35    0.54
 -12  10  -3    1.07    0.55
 -12 -10  -3    1.32    0.38
 -12  10  -3    1.00    0.39
  12 -10   4   22.38    1.62
 -12  10  -4   23.28    1.68
  12  10   4   21.01    1.52
 -12  10  -4   23.76    1.43
  12 -10   5    1.77    0.73
  12  10   5    0.66    0.52
  12 -10   6    4.89    1.00
  12  10   6    6.12    0.99
  12 -10   7    0.52    0.64
  12  10   7    0.07    0.49
  12 -10   8    1.67    0.76
  12  10   8    0.24    0.55
  12 -10   9    0.11    0.59
 -12  12  11    3.68    0.87
 -12 -12  10    7.04    1.36
 -12  12  10   10.05    1.35
 -12 -12   9    5.33    1.16
  12  12  -9    6.83    0.98
 -12  12   9    6.73    1.05
 -12 -12   8    1.82    0.80
  12  12  -8    1.78    0.63
 -12  12   8    0.72    0.57
 -12 -12   7    0.23    0.62
  12  12  -7    0.66    0.45
 -12  12   7    0.61    0.55
 -12 -12   6   78.14    3.36
  12  12  -6   85.43    2.91
 -12  12   6   88.24    3.31
 -12 -12   5    6.67    1.02
  12  12  -5    8.65    0.90
 -12  12   5    9.01    1.07
 -12 -12   4  119.49    3.82
  12  12  -4  117.13    3.27
  12 -12  -4  118.21    3.23
 -12  12   4  118.22    3.79
  12 -12  -3   34.05    1.85
 -12 -12   3   37.17    1.97
  12  12  -3   35.65    1.75
  12 -12  -3   35.16    1.61
  12  12  -3   35.48    1.65
 -12  12   3   34.30    1.94
  12  12  -2   14.20    1.04
  12 -12  -2   13.89    1.20
 -12 -12   2   13.88    1.16
  12  12  -2   14.56    1.06
  12 -12  -2   16.01    1.07
 -12  12   2   16.35    1.37
 -12  12   1    0.92    0.47
  12 -12  -1    0.31    0.46
 -12 -12   1    0.88    0.39
  12  12  -1    1.86    0.41
  12  12  -1    0.40    0.32
 -12  12   1    0.97    0.33
 -12 -12   1    1.18    0.42
 -12  12   0   33.36    1.97
  12  12   0   34.73    1.31
  12 -12   0   35.06    1.92
 -12  12   0   38.13    1.70
 -12 -12   0   37.28    1.76
 -12 -12   0   34.44    1.24
 -12 -12  -1    4.70    0.35
  12 -12   1    4.31    0.78
 -12  12  -1    5.06    0.85
  12  12   1    5.07    0.41
 -12  12  -1    4.08    0.63
 -12 -12  -1    4.77    0.70
 -12 -12  -1    4.73    0.33
  12 -12   2    0.87    0.48
 -12  12  -2    0.69    0.64
 -12  12  -2    1.05    0.45
  12 -12   3    0.68    0.50
 -12  12  -3    0.38    0.54
 -12  12  -3    0.15    0.34
  12 -12   4    4.44    0.86
 -12  12  -4    4.67    0.90
 -12  12  -4    4.52    0.73
  12 -12   5    2.63    0.82
 -12  12  -5    2.11    0.60
  12 -12   6   12.00    1.40
  12  12   6   12.32    1.33
 -12  12  -6   10.03    1.14
  12 -12   7    3.43    0.99
  12  12   7    1.14    0.61
 -12  12  -7    1.53    0.65
  12 -12   8   -0.42    0.63
 -12  14  11   11.91    1.50
 -12  14  10   30.88    2.19
  12  14 -10   33.57    2.26
 -12 -14   9   31.53    2.50
 -12  14   9   31.52    2.13
  12  14  -9   33.00    2.15
 -12 -14   8    7.44    1.23
  12  14  -8    6.53    0.98
 -12  14   8    8.82    1.18
 -12 -14   7    3.53    0.91
 -12  14   7    1.75    0.66
  12  14  -7    2.81    0.69
 -12 -14   6    3.20    0.87
 -12  14   6    3.85    0.80
  12  14  -6    3.13    0.66
 -12  14   5   10.17    1.16
  12  14  -5   11.22    1.08
 -12 -14   5   11.13    1.27
 -12  14   4    7.36    1.01
  12 -14  -4    8.83    1.07
  12  14  -4    6.31    0.81
 -12 -14   4    6.37    0.97
 -12  14   3    1.32    0.57
  12 -14  -3    1.45    0.54
  12  14  -3    1.51    0.51
 -12 -14   3    1.01    0.58
 -12  14   2    5.08    0.87
  12 -14  -2    5.76    0.86
  12  14  -2    4.37    0.66
  12 -14  -2    5.16    0.26
 -12 -14   2    4.65    0.75
  12  14  -2    4.44    0.63
  12 -14  -1   60.41    2.63
 -12 -14   1   60.09    1.99
  12  14  -1   60.42    2.04
 -12  14   1   61.25    2.78
  12  14  -1   57.57    2.27
 -12  14   1   60.63    2.34
 -12 -14   1   66.58    2.41
 -12  14   0   14.75    1.42
 -12 -14   0   12.00    0.75
  12 -14   0   15.76    1.38
  12  14   0   13.22    0.82
 -12 -14   0   12.89    0.94
 -12  14   0   13.57    1.10
 -12  14  -1   78.26    3.19
  12 -14   1   77.51    3.08
 -12  14  -1   78.69    2.78
 -12 -14  -1   74.35    1.54
 -12  14  -2   18.42    1.62
  12 -14   2   20.20    1.63
 -12  14  -2   21.47    1.48
 -12  14  -3    0.44    0.57
  12 -14   3    0.95    0.61
 -12  14  -3    0.52    0.43
  12 -14   4    0.25    0.65
 -12  14  -4    1.67    0.64
  12 -14   5    8.22    1.22
 -12  14  -5    8.01    1.02
  12 -14   6    2.69    0.86
 -12  14  -6    2.07    0.72
 -12  14  -7    2.17    0.73
 -12  14  -8   -0.83    0.64
 -12  16  10    2.73    0.90
 -12  16   9    3.54    0.87
  12  16  -9    3.25    0.83
 -12 -16   8    7.10    1.30
 -12  16   8    5.26    1.03
  12  16  -8    5.03    0.95
 -12 -16   7   16.30    1.76
  12  16  -7   18.39    1.56
 -12  16   7   16.12    1.54
 -12 -16   6    0.52    0.64
 -12  16   6    0.03    0.49
  12 -16  -6    0.50    0.53
  12  16  -6    0.12    0.46
  12 -16  -5   79.25    3.15
 -12 -16   5   81.40    3.48
  12  16  -5   77.04    3.04
 -12  16   5   79.38    3.27
 -12  16   4    1.50    0.62
  12 -16  -4    0.36    0.49
  12  16  -4    0.85    0.43
 -12 -16   4    1.97    0.71
  12 -16  -3   29.48    1.87
 -12  16   3   29.41    1.98
  12  16  -3   30.85    1.79
 -12 -16   3   27.53    1.82
  12 -16  -2    1.03    0.64
 -12  16   2    1.28    0.67
  12  16  -2    1.26    0.53
 -12 -16   2    1.43    0.64
  12 -16  -1    5.25    0.91
 -12  16   1    4.61    0.90
 -12  16   1    4.34    0.74
 -12 -16   1    3.97    0.69
  12 -16   0   12.95    1.35
 -12  16   0   11.74    1.32
 -12  16   0   12.54    1.19
 -12 -16   0   13.56    1.03
 -12  16  -1   17.58    1.60
  12 -16   1   16.35    1.53
 -12  16  -1   15.56    1.33
  12 -16   2   -0.63    0.63
 -12  16  -2   -0.03    0.54
 -12  16  -2    0.24    0.44
 -12  16  -3    0.52    0.60
  12 -16   3    0.31    0.66
 -12  16  -3    0.98    0.58
  12 -16   4    1.60    0.70
 -12  16  -4    0.38    0.49
  12 -16   5    2.45    0.87
 -12  16  -5    3.03    0.78
 -12  16  -6    1.32    0.64
 -12  16  -7    0.99    0.55
 -12  18   8    5.36    1.02
  12 -18  -8    5.56    1.04
 -12 -18   7    8.25    1.50
 -12  18   7   10.45    1.32
  12 -18  -7    9.98    1.20
  12  18  -7    9.61    1.22
 -12  18   6    3.44    0.82
  12 -18  -6    1.84    0.71
 -12 -18   6    1.76    0.74
  12  18  -6    2.30    0.65
  12 -18  -5   73.03    3.14
 -12 -18   5   71.76    3.40
  12  18  -5   71.89    3.08
 -12  18   5   72.80    3.25
 -12  18   4    2.51    0.76
  12 -18  -4    1.72    0.69
  12  18  -4    1.27    0.55
 -12 -18   4    3.29    0.86
 -12  18   3   15.02    1.51
  12 -18  -3   13.24    1.37
  12  18  -3   13.90    1.31
 -12 -18   3   12.97    1.32
  12 -18  -2    4.20    0.86
 -12  18   2    3.47    0.82
  12  18  -2    2.43    0.63
 -12 -18   2    2.72    0.68
 -12  18   1    1.93    0.75
  12 -18  -1    1.79    0.68
  12 -18   0    6.37    1.04
 -12  18   0    7.61    1.14
 -12  18   0    7.12    1.00
 -12  18  -1   12.51    1.44
  12 -18   1   11.53    1.35
 -12  18  -1    9.07    1.12
 -12  18  -2    1.66    0.60
  12 -18   2    2.07    0.72
 -12  18  -2    1.06    0.59
  12 -18   3    0.25    0.70
 -12  18  -3   -0.26    0.58
 -12  18  -4   -0.37    0.59
 -12  18  -5    5.19    0.97
  12 -20  -6    1.37    0.57
 -12  20   6    1.59    0.70
 -12 -20   6    0.79    0.73
  12 -20  -5   -0.44    0.69
 -12  20   5    0.92    0.56
 -12 -20   5   -0.42    0.76
  12 -20  -4   10.49    1.30
 -12  20   4   10.37    1.35
  12  20  -4    8.54    1.14
 -12 -20   4    9.26    1.35
 -12  20   3    0.85    0.55
  12 -20  -3    1.08    0.67
  12  20  -3   -0.20    0.48
  12 -20  -2    0.35    0.51
 -12  20   2    1.03    0.52
  12  20  -2    0.17    0.46
 -12  20   1   11.66    1.43
  12 -20  -1   10.05    1.26
 -12  20   0   15.73    1.65
  12 -20   0   12.42    1.49
 -12  20   0   14.13    1.42
 -12  20  -1   10.40    1.28
 -12  20  -2    3.69    0.98
 -12  20  -3   -0.72    0.65
 -13  -1  12   44.82    2.67
 -13   1  12   41.81    2.59
 -13  -1  11   -0.74    0.69
 -13   1  11   -0.16    0.54
 -13  -1  10    5.39    0.89
 -13   1  10    7.94    1.16
 -13  -1   9   29.40    1.89
 -13   1   9   29.59    1.92
 -13  -1   8   26.99    1.74
 -13   1   8   27.08    1.75
 -13  -1   7   55.46    2.41
 -13   1   7   59.27    2.49
 -13  -1   6   20.00    1.39
 -13   1   6   20.63    1.39
  13   1  -5   99.92    3.35
  13  -1  -5  100.90    3.42
 -13  -1   5   93.99    2.94
 -13   1   5   94.33    2.99
  13  -1  -4   33.56    1.86
  13   1  -4   33.36    1.80
 -13  -1   4   30.85    1.56
 -13   1   4   31.69    1.61
  13   1  -3    5.33    0.76
  13  -1  -3    4.82    0.74
 -13   1   3    4.37    0.38
  13  -1  -3    4.81    0.22
 -13  -1   3    3.12    0.38
  13   1  -3    4.38    0.24
 -13  -1   3    3.97    0.61
 -13   1   3    4.87    0.65
  13   1  -2  371.83    6.90
 -13  -1   2  360.38    5.68
 -13   1   2  352.12    5.36
  13  -1  -2  370.08    6.56
 -13  -1   2  366.27    6.37
 -13   1   2  366.03    6.53
 -13  -1   1   36.97    1.35
 -13   1   1   39.07    1.24
 -13  -1   1   36.52    1.56
  13   1  -1   36.94    1.55
 -13   1   1   41.21    1.72
  13  -1  -1   41.45    1.70
 -13  -1   0  126.02    2.83
  13   1   0  135.70    2.96
  13  -1   0  128.48    2.76
  13   1   0  126.63    3.03
  13  -1   0  127.20    3.18
 -13  -1   0  128.12    3.05
 -13   1   0  127.90    3.20
 -13   1  -1    5.50    0.65
  13   1   1    5.96    0.64
 -13  -1  -1    5.33    0.56
  13  -1   1    5.45    0.55
  13  -1   1    5.58    0.65
 -13  -1  -1    6.50    0.65
  13   1   1    5.06    0.57
 -13  -1  -2    2.06    0.41
 -13   1  -2    2.13    0.46
  13   1   2    2.36    0.42
  13  -1   2    2.62    0.49
  13   1   2    2.33    0.47
  13  -1   2    2.34    0.43
  13   1   2    2.89    0.45
  13  -1   2    2.21    0.46
  13   1   3    3.44    0.48
  13  -1   3    2.56    0.48
 -13  -1  -3    3.40    0.49
 -13   1  -3    3.56    0.55
  13   1   3    4.13    0.59
  13  -1   3    3.18    0.52
  13  -1   3    2.70    0.52
  13   1   3    3.54    0.48
 -13   1  -4   20.02    1.20
 -13  -1  -4   18.02    1.04
  13  -1   4   18.20    1.13
  13   1   4   17.78    1.02
  13   1   4   18.20    1.24
  13  -1   4   19.13    1.22
  13   1   4   15.74    0.98
  13  -1   4   18.91    1.17
  13  -1   5   14.67    1.06
  13   1   5   11.37    0.86
  13   1   5   10.70    1.04
  13  -1   5   12.82    1.08
  13   1   5   11.66    0.88
  13  -1   5   14.34    1.05
  13  -1   6    3.88    0.67
  13   1   6    3.84    0.59
  13   1   6    2.41    0.65
  13  -1   6    3.49    0.72
  13   1   6    3.17    0.56
  13  -1   6    3.51    0.65
  13  -1   7    0.31    0.42
  13  -1   7   -0.11    0.41
  13   1   7    0.10    0.34
  13   1   7   -0.05    0.46
  13  -1   7    0.25    0.52
  13   1   7    0.99    0.40
  13  -1   8    3.64    0.71
  13   1   8    3.63    0.66
  13   1   8    4.83    0.90
  13  -1   8    4.29    0.87
  13  -1   9   -0.42    0.47
  13   1   9   -0.55    0.52
  13  -1   9    0.20    0.47
 -13  -3  12    1.77    0.82
 -13   3  12    2.99    0.85
 -13  -3  11    3.37    0.99
 -13   3  11    4.24    0.91
 -13  -3  10    3.58    0.97
 -13   3  10    3.66    0.86
 -13  -3   9   33.44    2.29
 -13   3   9   32.19    2.01
 -13  -3   8   75.08    3.26
 -13   3   8   74.81    2.97
 -13  -3   7  337.38    7.45
 -13   3   7  335.84    6.99
 -13  -3   6  209.31    5.37
 -13  -3   6  210.30    4.92
 -13   3   6  219.49    5.10
  13  -3  -5   91.56    3.32
  13   3  -5   89.21    3.12
 -13  -3   5   89.06    2.83
 -13   3   5   88.42    2.94
  13   3  -4    2.01    0.60
  13  -3  -4    1.41    0.49
 -13   3   4    1.66    0.20
 -13   3   4    2.56    0.56
 -13  -3   4    1.88    0.48
  13   3  -3   14.53    1.14
 -13   3   3   13.96    0.53
  13   3  -3   14.64    0.58
  13  -3  -3   13.96    0.50
  13  -3  -3   15.11    1.13
 -13  -3   3   15.35    1.05
 -13   3   3   13.03    1.05
  13   3  -2   21.91    1.34
 -13  -3   2   22.83    1.09
 -13   3   2   24.10    1.39
  13  -3  -2   24.02    1.41
 -13  -3   2   22.35    1.20
  13   3  -1   91.96    2.76
 -13  -3   1   95.59    2.45
  13  -3  -1   91.45    2.78
 -13   3   1   89.12    2.75
 -13  -3   1   93.07    2.48
 -13   3   0    2.42    0.55
  13   3   0    2.81    0.55
  13  -3   0    3.27    0.42
 -13   3   0    2.58    0.20
 -13  -3   0    3.41    0.52
 -13  -3   0    2.35    0.26
 -13  -3   0    2.46    0.47
  13  -3   0    3.32    0.59
 -13   3  -1    3.69    0.63
  13  -3   1    4.10    0.59
  13   3   1    5.06    0.62
 -13  -3  -1    3.94    0.37
  13  -3   1    2.76    0.42
 -13  -3  -1    3.70    0.53
  13   3   1    4.53    0.52
  13  -3   1    3.94    0.64
 -13   3  -1    3.78    0.33
 -13  -3  -1    5.66    0.57
  13  -3   2   19.83    1.22
  13   3   2   18.98    0.94
 -13   3  -2   21.01    1.27
  13   3   2   19.58    1.19
  13  -3   2   20.36    1.06
 -13  -3  -2   19.35    1.16
  13  -3   2   22.23    1.31
 -13  -3  -2   18.32    0.93
  13   3   2   19.62    0.94
  13   3   3   17.79    0.90
 -13   3  -3   15.25    1.12
 -13  -3  -3   18.14    0.91
  13  -3   3   18.57    1.18
  13   3   3   18.89    1.23
  13  -3   3   16.23    1.03
  13   3   3   16.46    0.85
  13  -3   3   17.38    1.20
 -13   3  -4   32.89    1.68
  13  -3   4   32.21    1.61
  13   3   4   34.03    1.26
  13   3   4   33.47    1.71
  13  -3   4   35.65    1.61
  13   3   4   30.90    1.22
  13  -3   4   37.37    1.76
  13   3   5   19.11    0.96
  13  -3   5   16.52    1.22
  13   3   5   15.37    1.23
  13  -3   5   18.69    1.27
  13  -3   5   16.28    1.23
  13   3   5   16.92    0.91
  13  -3   6    1.46    0.50
  13   3   6    0.99    0.38
  13  -3   6    1.91    0.56
  13   3   6   -0.02    0.47
  13   3   6    1.19    0.35
  13  -3   7    1.50    0.51
  13   3   7    1.11    0.39
  13  -3   7    1.10    0.52
  13   3   7    0.78    0.51
  13  -3   8   -0.98    0.55
  13  -3   8   -0.15    0.51
  13   3   8    0.36    0.51
  13  -3   9    0.41    0.56
  13  -3   9   -0.86    0.62
  13   3   9   -0.26    0.48
 -13   5  12    1.59    0.75
 -13  -5  11   37.43    2.72
 -13   5  11   38.36    2.41
 -13  -5  10    0.44    0.74
 -13   5  10    0.45    0.53
 -13  -5   9    4.87    1.01
 -13   5   9    3.98    0.79
 -13  -5   8   18.20    1.69
 -13   5   8   15.99    1.42
 -13  -5   7   24.28    1.83
 -13   5   7   26.25    1.73
 -13  -5   6   19.47    1.54
 -13   5   6   19.25    1.45
 -13  -5   5    1.03    0.56
  13   5  -5    1.52    0.48
 -13   5   5    2.78    0.63
 -13  -5   4    4.09    0.71
  13   5  -4    5.06    0.75
  13  -5  -4    4.34    0.39
  13   5  -4    4.99    0.46
 -13  -5   4    3.70    0.59
  13  -5  -4    4.00    0.66
 -13   5   4    4.46    0.71
  13   5  -3  114.73    3.28
  13   5  -3  114.94    2.31
  13  -5  -3  110.63    2.15
 -13  -5   3  115.50    3.03
 -13   5   3  112.59    3.37
  13  -5  -3  120.28    3.45
  13   5  -2    8.02    0.82
  13   5  -2    9.57    0.54
 -13  -5   2    8.57    0.74
  13  -5  -2    6.07    0.81
 -13  -5   2    7.34    0.70
 -13   5   2    7.28    0.85
  13   5  -1  220.01    4.53
 -13  -5   1  220.62    4.37
  13  -5  -1  212.76    3.33
 -13   5   1  205.68    4.74
 -13  -5   1  213.97    4.12
  13  -5  -1  218.52    4.92
  13   5   0   29.50    1.38
  13  -5   0   28.17    1.02
 -13  -5   0   33.11    1.49
 -13  -5   0   31.44    1.07
 -13   5   0   27.57    0.90
 -13   5   0   25.23    1.49
 -13  -5   0   29.88    1.23
  13  -5   0   26.95    1.55
  13  -5   1   22.39    1.32
  13   5   1   23.29    1.15
 -13  -5  -1   28.09    1.41
  13  -5   1   24.42    1.03
 -13   5  -1   23.95    0.92
 -13  -5  -1   26.81    1.05
  13  -5   1   23.67    1.45
 -13  -5  -1   23.91    1.01
 -13   5  -1   23.83    1.42
 -13  -5  -2    2.20    0.33
 -13   5  -2    2.80    0.57
  13  -5   2    2.05    0.52
  13   5   2    2.73    0.42
  13   5   2    2.92    0.58
 -13  -5  -2    3.44    0.57
  13  -5   2    2.92    0.44
 -13  -5  -2    3.16    0.43
  13  -5   2    2.46    0.51
  13   5   3   13.97    0.69
 -13   5  -3   13.54    1.13
  13  -5   3   14.28    1.13
 -13  -5  -3   12.61    0.63
  13   5   3   13.65    0.80
  13   5   3   13.40    1.11
  13  -5   3   14.84    0.98
  13  -5   3   15.64    1.19
 -13   5  -4    1.29    0.50
  13  -5   4    1.73    0.56
  13   5   4    0.85    0.24
  13  -5   4    1.24    0.41
  13   5   4    0.96    0.48
  13   5   4    0.93    0.22
  13  -5   4    1.32    0.44
  13   5   5    3.56    0.39
  13  -5   5    4.79    0.76
  13   5   5    5.40    0.84
  13   5   5    3.71    0.36
  13  -5   6    0.34    0.49
  13   5   6    0.39    0.22
  13   5   6    0.69    0.51
  13  -5   7    0.94    0.48
  13   5   7    0.88    0.53
  13  -5   8    0.62    0.55
  13   5   8    0.34    0.55
  13  -5   9    0.63    0.57
  13  -5   9    1.15    0.61
  13   5   9    1.79    0.67
  13  -5  10   -0.85    0.75
 -13   7  12    0.99    0.77
 -13  -7  11   23.23    2.23
 -13   7  11   21.34    1.86
 -13  -7  10    5.25    1.09
 -13   7  10    8.06    1.14
 -13  -7   9   -0.48    0.76
 -13   7   9    0.54    0.22
 -13   7   9    0.92    0.59
 -13  -7   8   67.77    3.24
 -13   7   8   64.75    1.54
 -13   7   8   69.06    2.96
 -13  -7   7   73.66    3.22
 -13   7   7   72.62    1.32
 -13   7   7   74.82    3.01
 -13  -7   6   53.88    2.61
  13  -7  -6   54.76    1.89
 -13   7   6   52.78    2.43
 -13  -7   5    0.48    0.52
  13  -7  -5    1.65    0.35
  13   7  -5    1.79    0.35
 -13   7   5    0.90    0.46
  13   7  -4    1.95    0.49
 -13  -7   4    1.20    0.55
  13  -7  -4    1.50    0.30
  13   7  -4    1.18    0.29
 -13   7   4    1.94    0.56
  13   7  -3   59.50    2.28
 -13  -7   3   57.46    2.34
  13   7  -3   57.56    1.70
  13  -7  -3   59.15    1.63
  13  -7  -3   61.02    2.48
 -13   7   3   63.90    2.52
  13   7  -2   11.48    0.96
  13   7  -2   13.35    0.75
 -13  -7   2   13.83    0.98
 -13   7   2   10.49    1.03
  13  -7  -2   10.62    0.62
 -13  -7   2   12.98    0.92
  13  -7  -2   10.28    1.05
  13   7  -1  169.69    3.78
 -13  -7   1  178.83    3.97
  13  -7  -1  169.71    2.65
 -13  -7   1  172.22    3.52
 -13   7   1  167.04    4.29
  13  -7  -1  177.60    4.44
 -13   7   0    6.95    0.87
  13  -7   0    7.47    0.82
  13   7   0    6.89    0.66
 -13  -7   0    7.50    0.80
  13  -7   0    6.05    0.46
 -13   7   0    7.49    0.56
 -13  -7   0    6.48    0.59
 -13  -7   0    6.40    0.57
  13  -7   0    5.60    0.79
 -13   7  -1    1.34    0.52
  13  -7   1    1.43    0.51
  13   7   1    1.20    0.33
  13  -7   1    1.62    0.32
 -13  -7  -1    1.88    0.39
 -13  -7  -1    2.31    0.54
  13  -7   1    1.60    0.55
 -13  -7  -1    1.75    0.30
 -13   7  -1    2.00    0.38
 -13   7  -2   13.93    1.21
  13  -7   2   16.11    1.23
  13   7   2   16.07    0.79
 -13  -7  -2   15.13    0.94
 -13   7  -2   14.68    0.89
 -13  -7  -2   14.38    0.59
 -13   7  -3   28.67    1.68
  13   7   3   25.79    0.74
  13  -7   3   27.63    1.63
 -13  -7  -3   27.09    1.33
  13   7   3   26.00    1.56
  13   7   3   26.30    0.83
 -13   7  -4   14.01    1.26
  13  -7   4   13.50    1.20
 -13  -7  -4   13.89    1.01
  13   7   4   14.39    1.23
  13  -7   5    2.21    0.65
  13   7   5    3.72    0.78
  13  -7   6    1.20    0.64
  13   7   6    1.69    0.68
  13  -7   7    1.07    0.61
  13   7   7    1.24    0.59
  13  -7   8    0.19    0.66
  13   7   8    0.52    0.55
  13  -7   9    0.83    0.69
  13  -7  10    0.22    0.92
 -13   9  12   17.44    1.76
 -13   9  11    2.02    0.73
 -13  -9  10    0.08    0.77
 -13   9  10    0.65    0.68
 -13  -9   9   19.15    1.88
 -13   9   9   15.68    1.51
 -13  -9   8   35.78    2.42
 -13   9   8   38.58    2.26
 -13  -9   7   85.86    3.57
  13   9  -7   88.09    2.83
 -13   9   7   87.75    3.37
 -13  -9   6  107.01    3.83
  13  -9  -6  109.24    2.98
 -13   9   6  104.29    3.65
  13   9  -6  108.36    3.04
 -13  -9   5   20.96    1.64
  13  -9  -5   22.27    1.19
  13   9  -5   21.81    1.22
 -13   9   5   23.32    1.63
  13   9  -4    0.20    0.47
 -13  -9   4    0.20    0.51
  13  -9  -4    0.50    0.25
  13   9  -4    0.60    0.31
 -13   9   4    0.80    0.52
 -13  -9   3    3.65    0.65
  13   9  -3    3.82    0.61
  13   9  -3    3.72    0.49
  13  -9  -3    3.10    0.43
 -13   9   3    2.31    0.63
  13   9  -2   47.40    1.91
 -13  -9   2   45.14    1.99
  13   9  -2   44.57    1.59
  13  -9  -2   42.52    1.48
 -13   9   2   45.68    2.16
 -13   9   1    3.35    0.71
  13  -9  -1    4.60    0.73
  13   9  -1    4.31    0.57
  13  -9  -1    4.04    0.26
 -13   9   1    4.46    0.51
 -13  -9   1    3.41    0.52
 -13  -9   1    3.86    0.52
  13  -9   0   11.08    1.07
  13   9   0   10.93    0.76
 -13   9   0   11.06    0.78
  13  -9   0   11.29    0.61
 -13  -9   0   11.78    0.87
 -13  -9   0   10.36    0.67
 -13   9   0   10.20    1.08
 -13   9  -1    4.15    0.77
  13  -9   1    3.89    0.65
  13   9   1    3.92    0.43
 -13   9  -1    4.05    0.53
 -13  -9  -1    3.74    0.56
 -13  -9  -1    3.46    0.35
  13  -9   2    8.13    0.94
 -13   9  -2    7.77    1.00
  13   9   2    8.61    0.45
 -13   9  -2    8.56    0.76
 -13  -9  -2    9.39    0.83
 -13   9  -3   13.28    1.25
  13  -9   3   11.76    1.17
 -13  -9  -3   11.93    0.97
 -13   9  -3   12.72    0.97
 -13   9  -4   11.64    1.23
  13  -9   4   10.18    1.36
  13   9   4   11.88    1.18
 -13   9  -4    8.94    0.92
  13  -9   5   13.26    1.33
  13   9   5   16.03    1.82
  13  -9   6   -0.12    0.58
  13   9   6    1.11    0.58
  13  -9   7    0.17    1.06
  13   9   7    0.15    0.50
  13  -9   8    0.00    0.59
  13   9   8    0.23    0.56
  13  -9   9   -0.23    0.69
 -13  11  11    0.22    0.59
 -13 -11  10   17.08    1.93
 -13  11  10   12.53    1.47
 -13 -11   9    2.45    0.90
  13  11  -9    2.12    0.63
 -13  11   9    1.10    0.69
 -13 -11   8    2.14    0.80
  13  11  -8    4.29    0.73
 -13  11   8    3.21    0.80
 -13 -11   7    0.78    0.69
  13  11  -7    1.17    0.45
 -13  11   7    0.65    0.53
 -13 -11   6   23.29    1.84
  13  11  -6   28.72    1.58
 -13  11   6   25.49    1.82
 -13 -11   5   -0.21    0.61
  13 -11  -5    0.97    0.35
  13  11  -5    1.04    0.41
 -13  11   5    1.19    0.58
 -13 -11   4   14.45    1.31
  13  11  -4   14.32    1.04
  13 -11  -4   15.35    1.04
 -13  11   4   16.72    1.42
  13  11  -3   18.24    1.30
 -13 -11   3   16.43    1.32
  13 -11  -3   19.39    1.13
  13  11  -3   18.30    1.13
 -13  11   3   17.44    1.44
  13 -11  -2  226.55    5.30
  13  11  -2  229.14    4.81
 -13 -11   2  237.98    5.22
  13  11  -2  228.72    4.62
  13 -11  -2  224.52    4.46
 -13  11   2  220.68    5.43
 -13  11   1    5.96    0.91
  13 -11  -1    6.81    0.87
  13  11  -1    8.04    0.74
 -13 -11   1    8.90    0.88
  13 -11  -1    6.76    0.35
 -13  11   1    6.30    0.68
 -13 -11   1    7.17    0.67
  13 -11   0   54.88    2.42
 -13  11   0   52.68    2.47
  13  11   0   54.38    1.72
 -13  11   0   56.84    2.00
 -13 -11   0   58.99    2.16
 -13 -11   0   57.95    1.65
 -13  11  -1   11.83    1.23
  13 -11   1   11.42    1.17
  13  11   1   12.99    0.67
 -13 -11  -1   10.85    0.52
 -13 -11  -1   12.00    0.99
 -13  11  -1   12.87    0.99
 -13 -11  -1   10.27    0.53
 -13  11  -2    2.65    0.68
  13 -11   2    3.58    0.73
 -13 -11  -2    2.69    0.57
 -13  11  -2    4.33    0.64
 -13  11  -3    0.40    0.51
  13 -11   3   -0.03    0.49
 -13  11  -3   -0.24    0.44
  13 -11   4    6.16    1.05
 -13  11  -4    7.18    1.08
 -13  11  -4    6.20    0.81
  13 -11   5    1.39    0.60
  13  11   5    2.45    0.74
 -13  11  -5    1.44    0.58
  13 -11   6    0.30    0.58
  13  11   6    0.60    0.51
 -13  11  -6    1.18    0.55
  13 -11   7   -0.40    0.62
  13  11   7    0.32    0.56
  13 -11   8    2.67    0.93
 -13  13  11   -0.72    0.65
 -13  13  10    0.68    0.62
  13  13 -10    0.52    0.55
 -13 -13   9   21.05    2.08
  13  13  -9   24.67    1.81
 -13  13   9   22.23    1.86
 -13 -13   8    7.16    1.26
  13  13  -8    9.41    1.12
 -13  13   8    8.93    1.17
 -13 -13   7   42.48    2.64
  13  13  -7   42.95    2.16
 -13  13   7   39.12    2.33
 -13 -13   6   14.77    1.51
  13  13  -6   16.59    1.29
 -13  13   6   15.70    1.46
 -13 -13   5   31.39    2.08
  13  13  -5   29.63    1.66
 -13  13   5   29.56    1.93
 -13  13   4   -0.10    0.49
  13  13  -4    0.41    0.34
 -13 -13   4    0.18    0.49
 -13  13   3    6.37    0.94
  13 -13  -3    6.26    0.88
  13  13  -3    7.66    0.86
 -13 -13   3    7.18    0.94
  13 -13  -3    7.56    0.79
  13  13  -3    7.79    0.83
  13  13  -2   27.27    1.47
  13 -13  -2   29.34    1.78
 -13 -13   2   28.93    1.72
  13  13  -2   28.31    1.52
  13 -13  -2   28.04    1.46
 -13  13   2   26.73    1.85
 -13  13   1    1.97    0.66
  13 -13  -1    1.06    0.55
  13  13  -1    1.40    0.44
 -13 -13   1    1.22    0.46
 -13  13   1    1.29    0.43
  13 -13   0    7.29    0.98
 -13  13   0    4.69    0.90
 -13 -13   0    5.52    0.51
  13  13   0    6.42    0.60
 -13  13   0    7.10    0.80
 -13 -13   0    6.00    0.54
 -13 -13  -1    0.02    0.18
  13  13   1   -0.19    0.20
 -13  13  -1    0.14    0.51
  13 -13   1    0.00    0.48
 -13  13  -1    0.28    0.39
 -13 -13  -1    0.32    0.16
  13 -13   2    4.46    0.89
 -13  13  -2    4.27    0.87
 -13  13  -2    3.79    0.68
  13 -13   3    9.38    1.21
 -13  13  -3    8.61    1.16
 -13  13  -3    9.73    1.00
  13 -13   4    3.87    0.97
 -13  13  -4    4.86    0.96
 -13  13  -4    4.68    0.74
  13 -13   5    4.11    0.92
 -13  13  -5    4.42    0.82
  13 -13   6    1.10    0.74
 -13  13  -6    0.90    0.58
  13 -13   7   -0.71    0.71
 -13  13  -7   -0.69    0.56
 -13  13  -8    1.71    0.70
 -13  15  10    0.71    0.62
  13  15  -9   -0.03    0.75
 -13  15   9    0.43    0.53
 -13 -15   8   25.32    2.25
  13  15  -8   26.81    1.90
 -13  15   8   24.39    1.92
 -13 -15   7   32.78    2.42
  13  15  -7   36.55    2.13
 -13  15   7   34.06    2.23
 -13 -15   6   38.89    2.48
  13  15  -6   34.26    1.98
 -13  15   6   34.62    2.18
 -13  15   5    3.18    0.77
  13 -15  -5    3.64    0.86
  13  15  -5    3.86    0.76
 -13 -15   5    3.28    0.82
 -13  15   4    0.84    0.59
  13 -15  -4    0.30    0.54
 -13 -15   4   -0.08    0.55
  13  15  -4    1.01    0.47
  13 -15  -3   23.86    1.69
 -13 -15   3   21.91    1.61
  13  15  -3   22.71    1.47
 -13  15   3   25.01    1.81
 -13  15   2    0.51    0.53
 -13 -15   2    1.69    0.49
  13 -15  -2    1.48    0.56
  13  15  -2    1.80    0.53
  13  15  -2    1.70    0.52
 -13 -15   2    0.99    0.55
 -13 -15   1   30.65    1.66
 -13  15   1   32.10    2.06
  13 -15  -1   28.57    1.89
  13 -15   0    0.76    0.62
 -13  15   0    0.46    0.58
 -13  15   0    0.91    0.51
 -13 -15   0    0.64    0.29
  13 -15   1    5.47    0.97
 -13  15  -1    4.91    1.00
 -13  15  -1    4.76    0.76
 -13  15  -2   15.48    1.54
  13 -15   2   15.42    1.51
 -13  15  -2   14.55    1.27
 -13  15  -3   11.15    1.38
  13 -15   3   11.14    1.37
 -13  15  -3   11.08    1.14
  13 -15   4   13.32    1.51
 -13  15  -4   13.46    1.30
  13 -15   5    2.08    0.80
 -13  15  -5    2.25    0.69
 -13  15  -6    3.00    0.79
 -13  15  -7   -0.15    0.50
 -13  17   9    1.62    0.84
 -13  17   8    2.37    0.74
  13 -17  -8    3.27    0.84
  13  17  -8    3.51    0.86
 -13 -17   7    8.05    1.29
 -13  17   7    9.11    1.25
  13 -17  -7   10.00    1.28
  13  17  -7    9.01    1.17
 -13  17   6    1.13    0.59
  13 -17  -6    3.90    0.86
  13  17  -6    3.58    0.74
 -13 -17   6    4.48    1.03
  13 -17  -5    0.06    0.56
  13  17  -5   -0.28    0.45
 -13 -17   5   -1.03    0.79
 -13  17   4    0.63    0.65
  13 -17  -4    1.06    0.54
  13  17  -4    0.49    0.45
 -13 -17   4    0.93    0.59
  13 -17  -3   35.43    2.16
 -13  17   3   32.96    2.17
  13  17  -3   32.95    1.93
 -13 -17   3   38.97    2.23
  13 -17  -2    0.64    0.55
 -13  17   2    0.33    0.55
  13  17  -2    0.00    0.39
 -13 -17   2    0.94    0.49
 -13  17   1   43.29    2.54
  13 -17  -1   44.14    2.45
 -13 -17   1   50.22    2.23
  13 -17   0    1.66    0.74
 -13  17   0    1.73    0.73
 -13  17   0    2.03    0.64
 -13  17  -1    2.11    0.77
  13 -17   1    3.18    0.88
 -13  17  -1    2.98    0.70
 -13  17  -2    1.53    0.76
  13 -17   2    0.46    0.63
 -13  17  -2    0.55    0.46
  13 -17   3   14.59    1.61
 -13  17  -3   13.42    1.51
 -13  17  -3   13.98    1.36
 -13  17  -4   -0.04    0.54
 -13  17  -5    2.38    0.86
 -13  17  -6    0.93    0.65
 -13  19   7   10.71    1.35
  13 -19  -7   11.73    1.40
  13 -19  -6   21.99    1.79
 -13 -19   6   22.36    2.04
  13  19  -6   20.42    1.74
 -13  19   6   21.22    1.81
 -13  19   5    2.79    0.79
  13 -19  -5    2.77    0.76
  13  19  -5    1.77    0.80
 -13 -19   5    2.29    0.88
  13 -19  -4   11.44    1.34
 -13  19   4   14.27    1.51
  13  19  -4   11.85    1.28
 -13 -19   4   13.48    1.52
  13 -19  -3    9.26    1.20
 -13  19   3    9.34    1.25
  13  19  -3   10.29    1.17
 -13 -19   3   11.28    1.30
 -13  19   2    1.93    0.79
  13 -19  -2    1.33    0.64
  13  19  -2    0.54    0.48
 -13  19   1   14.64    1.56
  13 -19  -1   14.12    1.52
  13 -19   0    0.55    0.62
 -13  19   0    1.13    0.76
 -13  19   0   -0.51    0.53
 -13  19  -1    0.00    0.53
 -13  19  -2    4.06    0.86
 -13  19  -3    2.87    0.85
 -13  19  -4    3.17    0.80
 -13  21  -1    2.28    0.76
 -14   0  12   -0.37    0.62
 -14   0  11   -0.08    0.52
 -14   0  10   99.14    3.80
 -14   0   9    0.91    0.66
 -14   0   8  117.29    3.83
 -14   0   7    5.79    0.86
 -14   0   6   58.95    2.44
  14   0  -5    1.54    0.56
 -14   0   5    1.50    0.53
  14   0  -4   37.03    2.00
 -14   0   4   36.21    1.23
 -14   0   4   35.75    1.75
  14   0  -3    0.67    0.47
 -14   0   3    0.66    0.21
 -14   0   3    0.96    0.43
  14   0  -2    8.09    0.94
 -14   0   2    7.04    0.57
  14   0  -2    6.61    0.77
 -14   0   2    8.57    0.88
 -14   0   1    3.66    0.43
 -14   0   1    3.66    0.59
  14   0  -1    4.44    0.60
 -14   0   0  148.94    3.15
  14   0   0  152.86    3.26
  14   0   0  157.76    3.62
 -14   0   0  158.21    3.61
 -14   0  -1    2.06    0.50
  14   0   1    1.76    0.44
  14   0   1    2.22    0.45
  14   0   2   59.02    1.98
  14   0   2   63.40    2.11
 -14   0  -2   59.23    2.04
  14   0   2   60.90    2.06
  14   0   3    2.06    0.44
 -14   0  -3    0.48    0.35
  14   0   3    0.96    0.39
  14   0   3    1.22    0.40
 -14   0  -4   22.54    1.27
  14   0   4   22.06    1.25
  14   0   4   23.34    1.40
  14   0   4   22.29    1.26
  14   0   5    0.37    0.34
  14   0   5   -0.06    0.45
  14   0   5    0.67    0.41
  14   0   6    1.02    0.48
  14   0   6    1.40    0.57
  14   0   6    0.79    0.45
  14   0   7    0.04    0.34
  14   0   7    0.42    0.45
  14   0   8    0.93    0.50
  14   0   8    3.60    0.79
  14   0   9    1.90    0.72
 -14  -2  12    2.49    0.82
 -14   2  12    2.54    0.84
 -14  -2  11    2.43    0.74
 -14   2  11    3.10    0.79
 -14  -2  10   14.96    1.96
 -14   2  10   12.56    1.38
 -14  -2   9    5.57    0.95
 -14   2   9    5.07    0.87
 -14  -2   8   25.77    1.76
 -14   2   8   27.95    1.83
 -14  -2   7    0.62    0.46
 -14   2   7    1.94    0.64
 -14  -2   6   26.48    1.61
 -14   2   6   28.54    1.72
  14   2  -5   28.99    1.82
 -14  -2   5   28.59    1.62
 -14   2   5   25.38    1.58
  14   2  -4   86.22    3.08
  14  -2  -4   89.04    3.25
 -14   2   4   84.33    1.78
 -14  -2   4   84.14    2.72
 -14   2   4   84.58    2.82
  14   2  -3   97.60    3.18
 -14   2   3   85.52    1.84
  14   2  -3   96.09    1.56
 -14  -2   3   90.20    2.29
 -14  -2   3   94.14    2.79
  14  -2  -3   87.09    2.83
 -14   2   3   83.94    2.80
  14   2  -2   14.21    1.16
 -14  -2   2   16.20    0.92
 -14   2   2   17.42    0.74
 -14   2   2   17.94    1.24
  14  -2  -2   16.70    1.19
 -14  -2   2   15.92    1.08
  14   2  -1   10.11    0.95
 -14  -2   1    7.89    0.67
 -14   2   1    8.70    0.88
  14  -2  -1    8.03    0.85
 -14  -2   1    8.26    0.79
 -14  -2   0   61.45    1.94
 -14  -2   0   58.12    1.08
  14  -2   0   61.87    1.76
  14   2   0   63.18    2.00
 -14  -2   0   60.42    1.99
  14  -2   0   62.03    2.22
 -14   2   0   60.45    2.20
 -14   2  -1    1.48    0.48
 -14  -2  -1    3.46    0.53
 -14  -2  -1    1.88    0.42
 -14  -2  -1    2.62    0.28
  14   2   1    2.39    0.47
  14  -2   1    1.93    0.39
  14  -2   1    2.05    0.49
  14   2   1    2.67    0.46
  14   2   2   19.13    1.02
 -14   2  -2   19.54    1.23
  14  -2   2   17.81    1.14
  14   2   2   19.12    1.19
  14  -2   2   21.01    1.14
  14   2   2   17.33    0.98
  14  -2   2   18.83    1.21
 -14  -2  -2   18.57    1.04
  14  -2   3    1.28    0.42
 -14  -2  -3    0.58    0.31
 -14   2  -3    1.14    0.43
  14   2   3    0.87    0.31
  14   2   3    1.32    0.46
  14  -2   3    1.31    0.43
  14   2   3    0.64    0.32
  14  -2   3    1.49    0.45
  14  -2   4    2.76    0.57
  14   2   4    2.23    0.44
 -14   2  -4    2.47    0.55
 -14  -2  -4    1.54    0.43
  14   2   4    1.26    0.45
  14  -2   4    2.93    0.59
  14   2   4    2.04    0.39
  14  -2   4    2.70    0.58
  14   2   5    6.41    0.66
  14  -2   5    5.88    0.77
  14   2   5    5.53    0.80
  14  -2   5    6.58    0.83
  14  -2   5    6.33    0.76
  14   2   5    6.43    0.65
  14   2   6   11.12    0.89
  14  -2   6   11.10    1.05
  14  -2   6   11.85    1.11
  14   2   6    9.83    1.10
  14   2   6   10.40    0.84
  14  -2   6   10.11    1.01
  14  -2   7    3.99    0.70
  14   2   7    4.01    0.58
  14   2   7    3.84    0.80
  14  -2   7    4.52    0.80
  14  -2   8    0.67    0.52
  14   2   8    0.26    0.48
  14  -2   8    0.52    0.55
  14  -2   9   -0.40    0.62
  14   2   9    0.50    0.52
  14  -2   9    0.19    0.47
 -14   4  12    7.20    1.17
 -14  -4  11    0.90    0.72
 -14   4  11    1.75    0.82
 -14  -4  10    2.59    0.95
 -14   4  10    1.44    0.68
 -14  -4   9   62.32    3.21
 -14   4   9   63.23    2.91
 -14  -4   8    1.47    0.70
 -14   4   8    1.40    0.59
 -14  -4   7   11.65    1.33
 -14  -4   7   12.77    1.21
 -14   4   7   12.34    1.25
 -14  -4   6   59.32    2.76
 -14  -4   6   59.32    2.42
 -14   4   6   57.23    2.50
 -14   4   5   47.93    1.01
 -14  -4   5   51.47    2.15
 -14   4   5   48.14    2.21
  14   4  -4   76.56    2.84
 -14   4   4   75.20    1.27
  14  -4  -4   76.52    1.67
  14   4  -4   78.80    1.80
  14  -4  -4   76.69    2.78
 -14  -4   4   77.84    2.59
 -14   4   4   77.99    2.80
  14   4  -3   14.81    1.20
  14  -4  -3   13.04    0.51
  14   4  -3   15.86    0.66
 -14  -4   3   15.66    0.96
 -14   4   3   12.73    1.13
  14  -4  -3   13.76    1.12
 -14  -4   3   16.08    1.10
  14   4  -2   74.39    2.61
 -14  -4   2   77.07    2.25
  14  -4  -2   79.45    2.75
 -14  -4   2   75.56    2.34
 -14   4   2   76.24    2.66
  14   4  -1    1.63    0.47
 -14  -4   1    2.00    0.42
  14  -4  -1    1.90    0.52
 -14   4   1    1.79    0.53
 -14  -4   1    0.50    0.34
  14   4   0   15.44    1.06
  14  -4   0   14.15    0.77
 -14  -4   0   16.70    1.05
 -14   4   0   14.56    0.53
 -14  -4   0   15.59    0.67
 -14  -4   0   16.67    0.98
 -14   4   0   13.55    1.10
  14  -4   0   13.98    1.13
  14  -4   1   63.39    2.26
  14   4   1   69.13    2.20
  14  -4   1   65.15    1.88
 -14  -4  -1   69.63    2.27
 -14  -4  -1   66.65    1.65
 -14   4  -1   64.61    1.50
  14   4   1   66.44    2.24
 -14   4  -1   63.20    2.37
 -14  -4  -1   66.38    1.90
  14  -4   1   65.74    2.45
 -14  -4  -2    1.63    0.35
 -14   4  -2    2.11    0.53
  14  -4   2    1.37    0.46
  14   4   2    1.49    0.45
 -14  -4  -2    2.40    0.53
 -14  -4  -2    1.43    0.31
  14  -4   2    1.96    0.42
  14  -4   2    2.78    0.58
  14   4   2    1.44    0.33
  14   4   3    6.40    0.57
 -14  -4  -3    5.70    0.52
  14  -4   3    6.64    0.80
 -14   4  -3    5.70    0.77
  14   4   3    7.42    0.84
  14  -4   3    7.07    0.73
  14   4   3    6.48    0.53
  14  -4   3    7.14    0.87
  14  -4   4    4.51    0.73
  14   4   4    5.04    0.50
 -14   4  -4    4.25    0.75
  14   4   4    5.32    0.80
  14  -4   4    4.00    0.64
  14  -4   4    4.45    0.73
  14   4   4    4.42    0.46
  14  -4   5    9.48    1.01
  14   4   5    9.75    0.68
  14   4   5   10.14    1.07
  14  -4   5    8.77    0.92
  14   4   5    9.30    0.64
  14  -4   6    1.09    0.49
  14   4   6    0.85    0.30
  14  -4   6    1.13    0.51
  14   4   6    0.90    0.48
  14  -4   7    0.08    0.49
  14  -4   7    0.68    0.51
  14   4   7    0.56    0.54
  14  -4   8    0.40    0.48
  14  -4   8    0.46    0.59
  14   4   8   -0.09    0.50
  14  -4   9    0.07    0.57
  14  -4   9   -0.14    0.56
 -14   6  12    1.10    0.64
 -14  -6  11   13.83    1.74
 -14   6  11   12.51    1.47
 -14  -6  10    1.00    0.70
 -14   6  10    0.79    0.58
 -14  -6   9  108.41    4.33
 -14   6   9  107.78    2.40
 -14   6   9  108.62    3.93
 -14  -6   8    4.89    1.02
 -14   6   8    8.38    0.50
 -14   6   8    9.71    1.16
 -14  -6   7  123.19    4.25
 -14   6   7  117.75    1.94
 -14   6   7  115.11    3.85
 -14  -6   6   16.85    1.50
 -14   6   6   15.97    1.35
 -14  -6   5   14.88    1.39
  14  -6  -5   18.12    0.92
 -14   6   5   20.04    1.48
  14   6  -5   17.44    0.95
  14   6  -4   18.78    1.35
  14   6  -4   18.32    0.90
  14  -6  -4   17.40    0.82
 -14   6   4   17.35    1.35
 -14  -6   4   16.84    1.18
  14   6  -3   21.93    1.42
  14  -6  -3   21.64    0.84
  14   6  -3   22.16    0.94
 -14  -6   3   22.54    1.22
 -14  -6   3   22.84    1.30
 -14   6   3   21.49    1.46
  14   6  -2    2.24    0.50
 -14  -6   2    1.71    0.41
  14   6  -2    2.64    0.34
  14  -6  -2    2.55    0.56
 -14   6   2    1.78    0.50
 -14  -6   2    2.33    0.49
  14   6  -1   13.66    1.03
 -14  -6   1   12.04    0.94
  14  -6  -1   11.11    0.54
 -14   6   1   11.80    1.10
 -14  -6   1   12.17    0.86
  14  -6  -1   13.03    1.16
 -14   6   0    2.01    0.58
  14  -6   0    2.95    0.63
  14   6   0    2.00    0.46
 -14   6   0    1.99    0.31
  14  -6   0    2.28    0.33
 -14  -6   0    1.79    0.45
 -14  -6   0    2.20    0.35
  14  -6   0    2.70    0.60
 -14  -6   0    2.38    0.40
  14  -6   1   67.69    2.47
  14   6   1   68.98    2.09
 -14  -6  -1   70.24    1.92
 -14  -6  -1   72.90    2.45
  14  -6   1   70.28    1.90
 -14   6  -1   74.01    1.83
  14  -6   1   71.74    2.73
 -14   6  -1   68.47    2.61
 -14  -6  -1   70.05    1.84
 -14  -6  -2    4.36    0.42
 -14   6  -2    3.53    0.73
  14  -6   2    3.55    0.66
  14   6   2    3.53    0.48
  14   6   2    3.71    0.64
 -14  -6  -2    4.70    0.53
  14  -6   2    4.15    0.53
 -14   6  -2    2.89    0.42
  14   6   3   31.46    1.03
 -14   6  -3   35.10    1.90
  14  -6   3   32.08    1.77
 -14  -6  -3   28.51    0.91
 -14  -6  -3   29.75    1.35
  14  -6   3   38.34    1.69
  14   6   3   32.16    1.72
  14   6   3   28.06    1.12
 -14   6  -4    0.53    0.50
  14  -6   4    0.65    0.49
  14  -6   4    1.31    0.47
  14   6   4    0.76    0.47
  14   6   4    0.94    0.24
  14   6   4    0.49    0.25
 -14   6  -5    1.86    0.65
  14   6   5    1.50    0.26
  14   6   5    0.91    0.20
  14  -6   5    1.21    0.58
  14   6   5    1.63    0.63
  14  -6   6    0.89    0.52
  14   6   6    0.34    0.53
  14  -6   7    1.85    0.69
  14   6   7    0.97    0.55
  14  -6   8    0.68    0.65
  14  -6   8   -0.30    0.47
  14   6   8    0.38    0.53
  14  -6   9   -0.34    0.65
  14  -6   9   -0.40    0.56
  14  -6  10    0.33    0.73
 -14   8  12    8.75    1.35
 -14   8  11    5.12    1.04
 -14  -8  10    0.76    0.70
 -14   8  10    0.09    0.55
 -14  -8   9   10.05    1.49
 -14   8   9   11.82    1.35
 -14  -8   8   -0.06    0.63
 -14   8   8    0.17    0.50
 -14  -8   7    0.07    0.69
  14  -8  -7    0.99    0.40
  14   8  -7    1.12    0.43
 -14   8   7    0.28    0.49
 -14  -8   6   17.24    1.55
  14  -8  -6   20.78    1.17
 -14   8   6   18.90    1.52
  14   8  -6   20.03    1.18
 -14  -8   5   62.00    2.77
  14  -8  -5   64.11    1.98
  14   8  -5   61.17    2.01
 -14   8   5   65.26    2.75
  14   8  -4   79.15    2.85
 -14  -8   4   73.97    2.89
  14  -8  -4   72.47    2.03
  14   8  -4   75.62    2.16
 -14   8   4   72.74    2.87
  14   8  -3   56.35    2.29
 -14  -8   3   54.64    2.36
  14  -8  -3   56.99    1.66
  14   8  -3   56.66    1.76
 -14  -8   3   56.40    2.09
 -14   8   3   56.88    2.45
  14   8  -2   73.04    2.49
  14   8  -2   75.06    2.03
 -14  -8   2   74.46    2.31
 -14   8   2   66.57    2.69
 -14   8   1    1.69    0.58
  14   8  -1    1.69    0.47
  14  -8  -1    1.09    0.19
 -14  -8   1    1.41    0.37
 -14   8   0    2.02    0.58
  14  -8   0    2.48    0.64
  14   8   0    2.34    0.43
 -14   8   0    2.19    0.38
  14  -8   0    1.68    0.29
 -14  -8   0    2.04    0.40
 -14  -8   0    2.16    0.38
  14  -8   1    9.68    1.02
 -14   8  -1   11.61    1.15
  14   8   1    9.74    0.71
 -14   8  -1   11.20    0.77
 -14  -8  -1   10.59    0.82
  14  -8   1   11.06    0.70
 -14  -8  -1    9.86    0.61
  14  -8   2    1.48    0.53
 -14  -8  -2    2.24    0.25
 -14   8  -2    1.87    0.61
  14   8   2    2.40    0.33
 -14  -8  -2    1.49    0.39
 -14   8  -2    1.90    0.41
  14   8   3    4.67    0.28
 -14   8  -3    6.91    0.94
  14  -8   3    5.79    0.88
  14   8   3    5.37    0.31
  14   8   3    6.97    0.92
 -14  -8  -3    6.31    0.70
 -14   8  -3    7.86    0.76
  14  -8   4    0.44    0.58
 -14   8  -4    1.56    0.65
  14   8   4    1.88    0.65
 -14  -8  -4    2.12    0.49
  14  -8   5    4.14    0.88
  14   8   5    3.09    0.71
  14  -8   6    2.61    0.76
  14   8   6    2.08    0.67
  14  -8   7    3.56    0.89
  14   8   7    2.60    0.80
  14  -8   8    0.02    0.62
  14   8   8    1.41    0.64
  14  -8   9    0.01    0.58
 -14  10  11    2.30    0.72
 -14 -10  10   45.29    3.06
 -14  10  10   48.61    2.78
 -14 -10   9    1.73    0.83
 -14  10   9    0.00    0.85
 -14 -10   8   66.30    3.35
  14  10  -8   63.30    2.55
 -14  10   8   63.18    3.02
 -14 -10   7   30.94    2.18
 -14  10   7   33.08    2.14
  14  10  -7   30.50    1.66
 -14 -10   6    4.81    0.95
  14 -10  -6    4.97    0.65
 -14  10   6    5.89    0.96
  14  10  -6    4.41    0.65
 -14 -10   5   36.83    2.18
  14  10  -5   40.04    1.73
  14 -10  -5   39.71    1.66
 -14  10   5   34.19    2.07
 -14 -10   4   42.28    2.23
  14  10  -4   41.89    1.70
  14 -10  -4   39.81    1.61
 -14  10   4   41.22    2.22
  14  10  -3   31.46    1.76
 -14 -10   3   31.07    1.81
  14  10  -3   32.09    1.44
  14 -10  -3   31.08    1.35
 -14  10   3   33.25    1.96
 -14  10   2    1.56    0.54
 -14 -10   2    1.21    0.47
  14  10  -2    1.17    0.41
  14  10  -2    2.25    0.44
 -14 -10   2    1.80    0.42
  14 -10  -1    6.20    0.85
 -14  10   1    6.02    0.88
  14  10  -1    6.20    0.68
  14 -10  -1    6.06    0.31
 -14 -10   1    5.76    0.61
 -14  10   0   46.04    2.30
  14 -10   0   43.07    2.14
  14  10   0   43.85    1.59
 -14  10   0   46.06    1.68
  14 -10   0   44.65    1.27
 -14 -10   0   47.86    1.84
 -14 -10   0   45.46    1.47
 -14  10  -1    2.00    0.64
  14 -10   1    0.79    0.49
  14  10   1    0.77    0.29
 -14  10  -1    0.94    0.34
 -14 -10  -1    0.96    0.38
 -14 -10  -1    0.09    0.21
  14  10   2   21.14    0.67
 -14  10  -2   20.98    1.58
  14 -10   2   22.13    1.59
 -14 -10  -2   23.44    1.34
 -14  10  -2   22.92    1.27
  14 -10   3    0.74    0.58
 -14  10  -3    1.95    0.67
 -14  10  -3    1.67    0.48
  14 -10   4    0.64    0.58
 -14  10  -4    1.89    0.68
 -14  10  -4    0.55    0.37
  14 -10   5    0.56    0.58
  14  10   5    1.83    0.69
 -14  10  -5    1.53    0.52
  14 -10   6    2.97    0.86
  14  10   6    3.42    0.78
  14 -10   7   -1.31    0.70
  14  10   7    0.01    0.49
  14 -10   8    1.56    0.81
  14  12 -11    0.92    0.49
 -14  12  11    0.38    0.68
  14  12 -10   28.15    1.96
 -14  12  10   30.46    2.24
 -14 -12   9   -0.96    0.81
  14  12  -9   -0.15    0.51
 -14  12   9   -0.72    0.67
 -14 -12   8   68.53    3.49
  14  12  -8   70.26    2.84
 -14  12   8   66.54    3.24
 -14 -12   7    0.16    0.69
  14  12  -7    1.18    0.46
 -14  12   7    0.12    0.56
 -14 -12   6    6.79    1.08
  14  12  -6    6.61    0.83
 -14  12   6    6.59    1.02
 -14  12   5    7.90    1.07
 -14 -12   5    6.71    1.02
  14  12  -5    9.03    0.90
  14 -12  -5    8.00    0.83
 -14 -12   4   20.28    1.60
  14 -12  -4   21.19    1.26
  14  12  -4   19.70    1.26
 -14  12   4   21.05    1.63
 -14  12   3    2.68    0.73
  14 -12  -3    1.92    0.59
 -14 -12   3    2.19    0.70
  14  12  -3    2.66    0.58
  14  12  -3    1.58    0.44
  14 -12  -3    2.01    0.45
 -14  12   2    3.01    0.71
  14 -12  -2    3.17    0.71
 -14 -12   2    3.89    0.71
  14  12  -2    2.55    0.53
  14  12  -2    4.23    0.63
 -14  12   1    2.79    0.75
  14 -12  -1    2.20    0.62
  14  12  -1    1.41    0.40
  14 -12  -1    2.39    0.22
 -14 -12   1    1.78    0.41
  14 -12   0   51.73    2.45
  14  12   0   54.86    1.76
 -14  12   0   49.89    2.52
 -14  12   0   54.89    2.04
 -14 -12   0   55.86    1.63
 -14 -12   0   60.37    2.27
  14 -12   1    1.39    0.55
 -14  12  -1    2.67    0.75
 -14 -12  -1    1.75    0.25
  14  12   1    1.60    0.28
 -14  12  -1    1.67    0.47
 -14 -12  -1    1.43    0.23
 -14  12  -2   22.88    1.76
  14 -12   2   21.61    1.69
 -14  12  -2   23.52    1.41
  14 -12   3    1.78    0.68
 -14  12  -3    0.27    0.63
 -14  12  -3    1.33    0.47
  14 -12   4   -0.25    0.63
 -14  12  -4    0.53    0.64
 -14  12  -4    0.86    0.47
  14 -12   5    0.65    0.64
 -14  12  -5    0.89    0.48
  14 -12   6    2.90    0.91
  14  12   6    3.98    0.98
 -14  12  -6    1.14    0.61
  14 -12   7    3.43    0.99
 -14  12  -7    0.25    0.54
 -14  12  -8    1.06    0.60
  14  14 -10    1.91    0.67
 -14  14  10    1.86    0.70
  14  14  -9    5.67    0.98
 -14  14   9    5.70    1.05
 -14 -14   8    1.82    0.92
  14  14  -8    2.31    0.69
 -14  14   8   -0.09    0.67
 -14 -14   7    2.80    0.92
 -14  14   7    1.31    0.62
  14  14  -7    2.09    0.64
 -14 -14   6   13.77    1.54
  14  14  -6   12.46    1.16
 -14  14   6   15.41    1.53
 -14 -14   5   32.62    2.17
  14  14  -5   30.66    1.76
 -14  14   5   32.49    2.11
  14 -14  -4   47.99    2.43
 -14 -14   4   49.56    2.55
  14  14  -4   47.81    2.14
 -14  14   4   51.32    2.60
  14 -14  -3   38.19    2.14
 -14 -14   3   37.86    2.13
  14  14  -3   37.05    1.82
 -14  14   3   36.68    2.23
  14  14  -2   20.27    1.32
  14 -14  -2   19.49    1.58
 -14 -14   2   25.56    1.64
  14  14  -2   22.89    1.42
 -14  14   2   21.71    1.75
 -14 -14   1    7.45    0.86
 -14  14   1    5.94    0.95
  14 -14  -1    7.65    1.07
 -14 -14   1    7.41    0.72
  14 -14   0    0.19    0.56
 -14  14   0   -0.63    0.58
 -14  14   0    1.12    0.49
 -14 -14   0    0.08    0.25
 -14  14  -1    5.21    1.01
  14 -14   1    5.87    0.99
 -14  14  -1    5.94    0.81
  14 -14   2    2.55    0.89
 -14  14  -2    2.36    0.97
 -14  14  -2    0.99    0.46
  14 -14   3    3.62    0.90
 -14  14  -3    4.97    0.99
 -14  14  -3    5.38    0.84
  14 -14   4   -0.06    0.67
 -14  14  -4    0.58    0.59
 -14  14  -4    0.68    0.48
  14 -14   5    1.83    0.75
 -14  14  -5    0.67    0.50
 -14  14  -6    1.50    0.62
 -14  14  -7    0.15    0.51
 -14  16   9   31.85    2.30
 -14 -16   8    1.48    0.86
 -14  16   8    0.36    0.66
  14  16  -8    1.20    0.54
 -14  16   7   12.13    1.40
  14  16  -7   13.05    1.34
 -14 -16   7   14.50    1.67
 -14  16   6   11.72    1.35
  14 -16  -6   11.76    1.32
 -14 -16   6   13.14    1.55
  14  16  -6   12.48    1.26
  14 -16  -5   14.73    1.42
 -14 -16   5   15.28    1.69
  14  16  -5   14.44    1.31
 -14  16   5   14.86    1.53
 -14  16   4    5.16    1.00
  14 -16  -4    6.19    0.96
  14  16  -4    4.55    0.75
 -14 -16   4    5.63    1.01
 -14  16   3   10.66    1.31
  14 -16  -3   10.70    1.24
  14  16  -3   12.18    1.17
 -14 -16   3   10.28    1.21
 -14  16   2    1.49    0.63
  14 -16  -2    1.17    0.59
  14  16  -2    1.24    0.47
 -14 -16   2    2.56    0.73
  14 -16  -1    2.67    0.78
 -14  16   1    3.32    0.90
 -14 -16   1    4.05    0.72
 -14  16   0    2.27    0.85
  14 -16   0    1.58    0.64
 -14  16   0    2.35    0.59
  14 -16   1   28.44    2.04
 -14  16  -1   24.48    2.39
 -14  16  -1   26.14    1.68
  14 -16   2    2.19    0.76
 -14  16  -2    0.38    0.64
 -14  16  -2    1.25    0.56
 -14  16  -3    2.90    0.85
  14 -16   3    1.25    0.62
 -14  16  -3    1.49    0.60
 -14  16  -4    1.76    0.71
 -14  16  -5    1.60    0.66
 -14  16  -6    1.53    0.72
  14 -18  -8    2.20    0.87
  14 -18  -7   13.83    1.52
 -14  18   7   12.14    1.48
  14  18  -7   10.80    1.28
 -14 -18   7   11.22    1.61
 -14  18   6    1.39    0.66
  14 -18  -6    1.18    0.57
  14  18  -6    2.51    0.70
 -14 -18   6    1.88    0.88
 -14  18   5   11.08    1.39
  14 -18  -5   10.84    1.29
  14  18  -5    9.44    1.15
 -14 -18   5    7.77    1.27
  14 -18  -4   23.67    1.86
 -14  18   4   21.57    1.84
  14  18  -4   21.58    1.65
 -14 -18   4   24.12    1.93
 -14  18   3   15.68    1.61
  14 -18  -3   12.05    1.38
  14  18  -3   13.06    1.34
 -14 -18   3   13.31    1.38
  14 -18  -2    6.25    1.07
 -14  18   2    5.23    0.98
  14  18  -2    5.38    0.86
 -14  18   1    3.40    0.87
  14 -18  -1    3.44    0.80
  14 -18   0    0.65    0.59
 -14  18   0   -1.18    0.70
 -14  18   0    0.88    0.53
 -14  18  -1   12.13    1.50
  14 -18   1   18.30    1.74
 -14  18  -1   15.52    1.42
 -14  18  -2    0.72    0.50
 -14  18  -3    2.19    0.67
 -14  18  -4   -0.15    0.49
 -14  18  -5    0.24    0.61
 -14 -20   6    2.31    1.13
 -14 -20   5    4.34    1.17
  14  20  -4   14.78    1.48
  14  20  -3    7.31    1.03
 -14  20  -1    0.59    0.59
 -14  20  -2    3.07    0.82
 -14  20  -3   -0.57    0.58
 -15   1  12    7.28    1.25
 -15  -1  11   12.09    1.44
 -15   1  11   12.21    1.49
 -15  -1  10    7.80    1.14
 -15   1  10    7.42    1.13
 -15  -1   9    3.44    0.81
 -15   1   9    3.22    0.77
 -15  -1   8   87.01    3.30
 -15   1   8   85.13    3.28
 -15  -1   7    1.29    0.52
 -15   1   7    1.11    0.55
 -15  -1   6  221.93    5.24
 -15   1   6  211.82    5.21
 -15   1   5    6.73    0.87
 -15  -1   5    6.89    0.88
  15  -1  -4   52.67    2.52
  15   1  -4   54.23    2.47
 -15  -1   4   54.42    1.67
 -15   1   4   54.66    1.50
 -15  -1   4   57.94    2.28
 -15   1   4   54.05    2.26
  15   1  -4   52.79    1.14
  15  -1  -3    6.23    0.87
  15   1  -3    8.03    0.98
 -15  -1   3    6.99    0.60
 -15   1   3    6.34    0.49
 -15  -1   3    7.23    0.81
 -15   1   3    6.27    0.82
  15   1  -2   24.31    1.57
 -15  -1   2   24.15    1.10
 -15   1   2   24.51    0.99
 -15   1   2   26.88    1.51
  15  -1  -2   26.41    1.50
 -15  -1   2   24.45    1.40
 -15  -1   1   72.67    2.05
 -15   1   1   69.74    1.87
 -15  -1   1   77.41    2.46
  15   1  -1   78.10    2.44
  15  -1  -1   72.49    2.48
 -15   1   1   69.20    2.42
 -15  -1   0   18.44    1.05
  15  -1   0   18.77    1.02
 -15   1   0   18.61    1.23
  15   1   0   17.61    1.12
  15  -1   0   18.59    1.23
 -15  -1   0   17.14    1.12
  15  -1   1   10.94    0.83
 -15  -1  -1    9.01    0.42
  15   1   1    8.53    0.78
 -15   1  -1    9.15    0.85
  15  -1   1    7.96    0.79
  15   1   1    9.29    0.81
 -15  -1  -1    8.16    0.77
 -15  -1  -2    4.77    0.62
 -15   1  -2    5.03    0.70
  15   1   2    4.06    0.56
  15  -1   2    5.64    0.70
  15   1   2    4.96    0.68
  15  -1   2    5.05    0.64
  15   1   2    5.28    0.63
  15  -1   2    4.34    0.61
  15  -1   3    0.59    0.35
 -15  -1  -3    0.38    0.31
 -15   1  -3    0.36    0.36
  15   1   3    0.43    0.29
  15   1   3    0.06    0.36
  15  -1   3    0.34    0.35
  15   1   3    0.28    0.33
  15  -1   3    0.63    0.38
 -15   1  -4   15.94    1.16
 -15  -1  -4   14.17    1.01
  15  -1   4   15.14    1.11
  15   1   4   14.13    0.99
  15   1   4   15.09    1.21
  15  -1   4   13.58    1.11
  15  -1   4   16.00    1.15
  15   1   4   14.78    1.01
  15  -1   5    1.02    0.46
  15   1   5    0.16    0.31
  15   1   5   -0.03    0.49
  15  -1   5    0.33    0.47
  15  -1   5    0.98    0.47
  15   1   5    0.01    0.35
  15  -1   6    0.86    0.44
  15   1   6    1.78    0.44
  15   1   6    1.51    0.56
  15  -1   6    1.75    0.53
  15  -1   6    1.21    0.52
  15   1   6    1.81    0.49
  15  -1   7    1.14    0.49
  15   1   7    0.93    0.41
  15   1   7    0.13    0.49
  15  -1   7    2.03    0.66
  15  -1   8    0.70    0.54
  15   1   8    0.78    0.56
  15  -1   8    1.29    0.57
  15  -1   9    0.64    0.64
 -15   3  12   23.05    2.06
 -15  -3  11   28.14    2.09
 -15   3  11   24.44    1.97
 -15  -3  10   27.40    2.00
 -15   3  10   25.92    1.97
 -15  -3   9   31.77    2.07
 -15   3   9   32.73    2.09
 -15   3   8   12.93    1.30
 -15  -3   8   11.42    1.21
 -15   3   7    3.10    0.74
 -15  -3   7    3.10    0.69
 -15   3   6    0.71    0.47
 -15  -3   6    1.44    0.55
 -15   3   5   27.42    0.86
 -15  -3   5   28.85    1.65
 -15   3   5   26.59    1.69
  15   3  -4    0.82    0.48
  15  -3  -4    1.45    0.20
 -15   3   4    1.63    0.22
 -15   3   4    1.71    0.52
  15   3  -4    1.38    0.24
 -15  -3   4    1.69    0.50
  15   3  -3    7.45    0.88
 -15  -3   3    5.33    0.59
  15   3  -3    7.00    0.35
 -15   3   3    6.72    0.41
 -15   3   3    5.74    0.81
 -15  -3   3    8.07    0.83
  15  -3  -3    7.42    0.87
  15   3  -2  101.61    3.22
 -15  -3   2  102.49    2.68
  15  -3  -2  107.00    3.24
 -15   3   2  102.27    3.18
 -15  -3   2   98.80    2.86
  15   3  -1   92.69    2.95
 -15  -3   1   92.35    2.52
  15  -3  -1   84.66    2.81
 -15   3   1   82.87    2.78
 -15  -3   1   90.89    2.61
  15   3   0   95.45    2.92
 -15  -3   0   97.83    2.66
  15  -3   0   97.38    2.32
 -15  -3   0   94.69    2.61
 -15   3   0   95.53    2.98
  15  -3   0   97.93    3.02
 -15  -3   0   91.38    1.66
  15  -3   1   34.45    1.66
 -15   3  -1   34.37    0.93
  15  -3   1   34.07    1.39
 -15  -3  -1   35.32    1.57
 -15  -3  -1   33.77    1.02
  15   3   1   35.12    1.61
 -15  -3  -1   32.17    1.39
  15   3   1   32.38    1.37
 -15   3  -1   34.89    1.73
  15  -3   1   33.10    1.69
 -15  -3  -2    1.05    0.36
  15   3   2    1.06    0.33
 -15   3  -2    0.96    0.43
  15  -3   2    0.63    0.42
  15   3   2    0.85    0.40
 -15  -3  -2    1.40    0.30
  15  -3   2    0.87    0.35
  15   3   2    0.99    0.30
  15  -3   2    0.70    0.36
  15  -3   3    2.86    0.56
 -15  -3  -3    2.19    0.41
 -15   3  -3    2.47    0.61
  15   3   3    2.45    0.47
  15   3   3    2.60    0.60
  15  -3   3    2.13    0.51
  15  -3   3    2.68    0.57
  15   3   3    3.43    0.48
  15  -3   4    6.82    0.85
  15   3   4    7.82    0.68
 -15   3  -4    8.68    0.93
 -15  -3  -4    6.56    0.64
  15  -3   4    8.58    0.88
  15   3   4    7.93    1.01
  15   3   4    6.39    0.61
  15  -3   4    9.15    0.98
  15   3   5    2.14    0.44
  15  -3   5    1.53    0.53
  15   3   5    1.48    0.57
  15  -3   5    1.79    0.57
  15   3   5    2.09    0.44
  15  -3   6    1.64    0.58
  15   3   6    0.69    0.30
  15   3   6    0.53    0.51
  15  -3   6    0.87    0.50
  15  -3   7    1.04    0.52
  15   3   7    1.05    0.57
  15  -3   7    1.77    0.64
  15  -3   8    0.54    0.50
  15   3   8    0.40    0.50
  15  -3   8    1.09    0.56
  15  -3   9    1.40    0.65
 -15  -5  11    4.83    1.13
 -15   5  11    7.91    1.23
 -15  -5  10    7.32    1.32
 -15   5  10    8.74    1.21
 -15  -5   9   -0.18    0.70
 -15   5   9    0.29    0.54
 -15  -5   8    8.91    1.26
 -15   5   8    9.77    1.23
 -15  -5   7  158.06    4.96
 -15  -5   7  162.98    4.52
 -15   5   7  158.43    4.64
 -15   5   6    1.93    0.15
 -15  -5   6    1.00    0.50
 -15   5   6    3.30    0.74
  15  -5  -5  126.93    2.63
 -15  -5   5  131.44    3.69
  15   5  -5  126.27    2.74
 -15   5   5  119.45    3.81
  15   5  -4    1.95    0.60
  15  -5  -4    2.22    0.28
 -15   5   4    1.64    0.56
 -15  -5   4    1.80    0.48
  15   5  -4    1.72    0.30
  15   5  -3    2.25    0.74
 -15  -5   3    1.79    0.42
  15   5  -3    1.43    0.25
  15  -5  -3    1.91    0.22
 -15   5   3    2.01    0.56
 -15  -5   3    2.08    0.49
  15   5  -2   12.18    1.07
 -15  -5   2   11.80    0.91
 -15  -5   2   12.72    0.97
 -15   5   2   14.48    1.21
  15   5  -1   19.35    1.28
 -15  -5   1   19.45    1.18
 -15   5   1   18.29    1.34
  15  -5  -1   19.78    1.38
 -15  -5   1   18.66    1.11
 -15   5   0    7.25    0.86
  15   5   0    6.93    0.75
  15  -5   0    7.18    0.56
 -15  -5   0    7.22    0.76
 -15   5   0    7.77    0.42
 -15  -5   0    6.61    0.49
 -15  -5   0    6.14    0.65
  15  -5   0    7.87    0.89
 -15   5  -1    2.07    0.59
  15  -5   1    1.84    0.53
  15   5   1    1.80    0.46
 -15  -5  -1    2.01    0.33
  15  -5   1    2.15    0.41
 -15  -5  -1    1.69    0.44
 -15  -5  -1    1.06    0.33
  15  -5   1    1.41    0.55
 -15   5  -1    1.28    0.26
 -15  -5  -2    0.50    0.28
 -15   5  -2    0.24    0.40
  15  -5   2   -0.02    0.41
  15   5   2    0.55    0.31
  15   5   2    0.36    0.35
 -15  -5  -2    0.85    0.30
  15  -5   2    0.19    0.28
 -15   5  -2    0.58    0.25
  15   5   3   19.31    0.92
 -15   5  -3   19.27    1.42
 -15  -5  -3   20.89    0.92
  15  -5   3   17.30    1.31
  15   5   3   20.82    1.11
 -15  -5  -3   19.15    1.02
  15  -5   3   18.77    1.16
  15   5   3   18.19    1.35
  15  -5   4    1.87    0.64
  15   5   4    1.48    0.33
 -15   5  -4    2.06    0.57
  15   5   4    1.63    0.60
  15  -5   4    1.54    0.47
  15   5   4    1.51    0.29
  15  -5   5   13.07    1.22
 -15   5  -5   11.28    1.16
  15   5   5   11.60    0.68
  15   5   5   11.76    1.18
  15  -5   5   12.38    1.09
  15  -5   6    1.47    0.64
  15  -5   6    0.46    0.44
  15   5   6    1.63    0.58
  15  -5   7   -0.29    0.55
  15  -5   7   -0.36    0.58
  15   5   7   -0.04    0.54
  15  -5   8    0.20    0.59
  15  -5   8    1.01    0.57
  15   5   8    0.78    0.49
  15  -5   9    0.66    0.74
 -15   7  11   18.98    1.81
 -15  -7  10   11.58    1.58
 -15   7  10   13.02    1.48
 -15  -7   9   -0.15    0.79
 -15   7   9    1.67    0.77
 -15  -7   8    6.53    1.11
 -15   7   8    6.54    1.04
 -15  -7   7   92.24    3.78
  15  -7  -7   97.87    2.75
 -15   7   7   89.80    3.47
 -15  -7   6   -0.25    0.63
  15  -7  -6    0.48    0.29
 -15   7   6    0.11    0.49
  15   7  -6    0.66    0.34
 -15  -7   5   75.41    3.11
  15  -7  -5   71.95    2.02
  15   7  -5   75.97    2.15
 -15  -7   5   72.73    2.70
 -15   7   5   70.55    2.91
  15   7  -4    4.50    0.75
  15   7  -4    4.14    0.48
 -15  -7   4    4.79    0.70
 -15   7   4    3.16    0.66
  15  -7  -4    4.00    0.44
  15   7  -3    3.66    0.66
 -15  -7   3    3.43    0.55
  15   7  -3    3.24    0.41
  15  -7  -3    3.46    0.38
 -15  -7   3    3.08    0.58
 -15   7   3    4.00    0.76
  15   7  -2   59.10    2.28
 -15  -7   2   60.56    2.20
 -15   7   2   53.29    2.40
 -15  -7   2   59.03    2.08
  15   7  -1   26.18    1.44
  15  -7  -1   28.31    0.86
 -15  -7   1   26.86    1.30
 -15   7   1   26.73    1.66
  15  -7   0   33.18    1.79
  15   7   0   37.08    1.61
  15  -7   0   35.05    1.17
 -15   7   0   36.82    1.20
 -15  -7   0   37.95    1.36
 -15   7   0   31.87    1.84
 -15  -7   0   34.72    1.37
 -15   7  -1    3.22    0.68
  15  -7   1    3.27    0.70
  15   7   1    3.97    0.54
 -15   7  -1    3.84    0.47
  15  -7   1    3.15    0.45
 -15  -7  -1    3.80    0.44
 -15  -7  -1    4.72    0.54
  15  -7   2    0.96    0.51
 -15  -7  -2    1.17    0.27
 -15   7  -2    0.83    0.55
  15   7   2    1.49    0.33
 -15  -7  -2    0.71    0.30
  15  -7   2    2.00    0.40
 -15   7  -2    1.78    0.38
  15   7   3   15.59    0.69
 -15   7  -3   18.20    1.47
  15  -7   3   17.03    1.35
  15   7   3   16.46    0.80
 -15  -7  -3   15.24    1.01
  15  -7   3   15.40    1.04
  15   7   3   14.80    1.25
 -15   7  -3   17.87    1.05
 -15   7  -4    1.47    0.64
  15  -7   4    1.81    0.66
  15  -7   4    1.30    0.50
  15   7   4    1.85    0.60
 -15  -7  -4    1.99    0.48
  15   7   4    0.91    0.19
  15   7   4    0.84    0.20
 -15   7  -5   12.31    1.29
  15  -7   5   10.60    1.21
  15   7   5    8.95    1.07
  15  -7   5   11.28    1.04
  15  -7   6    1.20    0.64
  15  -7   6    1.61    0.54
  15   7   6    1.21    0.64
  15  -7   7    0.25    0.59
  15  -7   7    0.54    0.51
  15   7   7    1.25    0.60
  15  -7   8   -0.25    0.64
  15  -7   8   -0.24    0.47
  15  -7   9    0.75    0.83
 -15   9  11   14.50    1.66
 -15  -9  10   15.42    1.82
 -15   9  10   15.20    1.63
 -15  -9   9   18.02    1.88
 -15   9   9   16.46    1.61
 -15  -9   8    2.25    0.82
 -15   9   8    4.17    0.93
  15   9  -8    3.89    0.67
 -15  -9   7    0.30    0.64
  15  -9  -7   -0.25    0.36
  15   9  -7   -0.20    0.38
 -15   9   7    1.18    0.65
 -15  -9   6   53.48    2.77
  15   9  -6   53.81    2.03
  15  -9  -6   51.88    1.94
 -15   9   6   53.12    2.63
 -15  -9   5    1.55    0.63
  15  -9  -5    1.35    0.35
  15   9  -5    1.47    0.41
 -15   9   5    0.36    0.49
 -15  -9   4    0.79    0.52
  15   9  -4    1.74    0.39
  15  -9  -4    2.17    0.42
 -15   9   4    1.15    0.59
  15   9  -3   47.08    2.15
  15   9  -3   48.92    1.70
 -15   9   3   45.75    2.32
 -15  -9   3   51.17    2.06
  15  -9  -3   46.63    1.57
  15   9  -2   25.15    1.46
  15   9  -2   29.55    1.26
 -15  -9   2   27.45    1.40
 -15   9   2   21.84    1.61
  15  -9  -1   53.45    2.35
  15   9  -1   51.77    1.98
  15  -9  -1   51.78    1.09
 -15   9   1   56.76    2.52
 -15  -9   1   51.89    1.82
  15  -9   0   29.48    1.75
  15   9   0   28.70    1.34
  15  -9   0   28.09    1.00
 -15   9   0   29.17    1.24
 -15   9   0   26.19    1.76
 -15  -9   0   28.39    1.19
 -15  -9   0   31.62    1.40
  15  -9   1   12.25    1.18
 -15   9  -1   12.38    1.23
  15   9   1   14.15    0.84
  15  -9   1   13.60    0.81
 -15   9  -1   15.25    0.94
 -15  -9  -1   14.14    0.98
 -15  -9  -1   13.88    0.71
  15  -9   2    1.69    0.60
 -15  -9  -2    1.09    0.16
 -15   9  -2    1.47    0.72
  15   9   2    1.82    0.30
  15  -9   2    1.64    0.37
 -15  -9  -2    1.43    0.43
 -15   9  -2    1.79    0.42
 -15   9  -3    1.04    0.58
  15  -9   3    0.82    0.53
 -15  -9  -3    0.43    0.32
 -15   9  -3    0.95    0.36
  15  -9   4    7.58    1.06
 -15   9  -4    7.60    1.10
  15   9   4    7.31    1.00
 -15   9  -4    5.88    0.75
  15  -9   5    0.32    0.54
  15   9   5    1.11    0.64
  15  -9   6    1.09    1.00
  15   9   6    0.47    0.63
  15  -9   7   -0.12    0.60
  15   9   7    0.41    0.58
  15  -9   8    0.39    0.64
  15  11 -10    0.77    0.57
 -15  11  10    2.39    0.83
 -15 -11   9    0.55    0.67
  15  11  -9    0.01    0.46
 -15  11   9   -0.16    0.67
 -15 -11   8   25.62    2.15
 -15  11   8   26.36    2.03
  15  11  -8   24.55    1.60
 -15 -11   7    1.66    0.73
  15  11  -7    3.25    0.63
 -15  11   7    2.08    0.72
 -15 -11   6   96.66    3.88
  15  11  -6  100.31    3.06
 -15  11   6  100.03    3.73
 -15 -11   5    9.26    1.19
  15  11  -5    9.63    0.90
  15 -11  -5    8.53    0.81
 -15  11   5    7.26    1.07
 -15 -11   4   81.01    3.22
  15 -11  -4   82.39    2.46
  15  11  -4   83.19    2.57
 -15  11   4   78.45    3.19
 -15  11   3    0.03    0.47
 -15 -11   3   -0.07    0.50
  15  11  -3    0.34    0.37
  15  11  -3    0.49    0.28
  15 -11  -3    0.28    0.30
 -15  11   2    6.17    0.96
  15 -11  -2    7.26    0.96
  15  11  -2    6.33    0.78
  15  11  -2    6.61    0.70
 -15 -11   2    7.10    0.77
  15 -11  -1   16.61    1.40
  15  11  -1   15.66    1.08
  15 -11  -1   14.85    0.45
 -15 -11   1   15.09    0.99
 -15  11   1   15.94    1.43
  15 -11   0   23.81    1.67
 -15  11   0   25.01    1.78
  15  11   0   24.23    1.20
 -15  11   0   26.84    1.33
  15 -11   0   23.53    0.91
 -15 -11   0   24.24    1.07
 -15 -11   0   25.88    1.40
  15 -11   1    1.56    0.63
 -15  11  -1    0.79    0.54
  15  11   1    0.74    0.25
 -15  11  -1    1.01    0.35
 -15 -11  -1    0.09    0.30
 -15 -11  -1    0.83    0.23
 -15  11  -2    3.71    0.86
  15 -11   2    2.24    0.70
 -15  11  -2    3.55    0.61
  15 -11   3   -0.29    0.53
 -15  11  -3    0.45    0.60
 -15  11  -3    0.88    0.44
 -15  11  -4   15.16    1.50
  15 -11   4   13.14    1.43
 -15  11  -4   12.63    1.09
  15 -11   5    0.78    0.62
 -15  11  -5    1.49    0.54
  15 -11   6    0.97    0.78
  15  11   6    2.22    0.72
 -15  11  -6    0.72    0.47
  15 -11   7    0.80    0.82
 -15  11  -7    0.42    0.54
  15  13 -10    7.52    1.10
 -15  13  10    9.61    1.32
 -15 -13   9    7.96    1.38
  15  13  -9    7.47    1.07
 -15  13   9    8.83    1.25
 -15 -13   8    3.37    0.99
 -15  13   8    3.62    0.90
  15  13  -8    3.41    0.73
 -15 -13   7    0.09    0.66
 -15  13   7    0.74    0.56
  15  13  -7    0.74    0.48
 -15 -13   6   30.88    2.25
  15  13  -6   29.72    1.73
 -15  13   6   27.07    1.99
 -15  13   5   -0.48    0.60
  15  13  -5   -0.10    0.35
 -15 -13   5   -0.20    1.01
 -15  13   4    0.01    0.51
 -15 -13   4   -0.84    0.66
  15  13  -4    0.13    0.39
 -15  13   3    8.87    1.16
  15 -13  -3   10.03    1.15
 -15 -13   3   11.95    1.22
  15  13  -3   11.72    1.00
  15 -13  -3   11.89    0.96
  15 -13  -2   28.71    1.88
 -15 -13   2   29.54    1.75
  15  13  -2   25.83    1.49
  15  13  -2   27.50    1.49
 -15 -13   2   29.65    1.52
 -15  13   2   28.75    1.97
  15 -13  -1   35.74    2.13
  15  13  -1   37.28    1.64
 -15  13   1   36.34    2.24
 -15 -13   1   39.64    1.59
  15 -13   0    4.95    0.89
 -15  13   0    4.43    0.88
  15 -13   0    5.24    0.45
 -15  13   0    5.44    0.72
 -15 -13   0    5.57    0.52
  15 -13   1    6.34    1.02
 -15  13  -1    5.60    1.04
 -15  13  -1    5.21    0.71
  15 -13   2    3.89    1.51
 -15  13  -2    4.51    0.91
 -15  13  -2    5.09    0.75
  15 -13   3    3.63    0.80
 -15  13  -3    3.73    0.93
 -15  13  -3    4.33    0.74
  15 -13   4    3.29    0.93
 -15  13  -4    2.10    0.80
 -15  13  -4    3.19    0.68
  15 -13   5    0.90    0.63
 -15  13  -5    0.43    0.47
  15 -13   6    1.83    0.83
 -15  13  -6    1.62    0.62
 -15  13  -7    0.27    0.59
 -15  13  -8    0.91    0.71
  15  15  -9    1.66    0.67
 -15  15   9    0.32    0.57
 -15 -15   8    1.82    0.89
 -15  15   8    2.43    0.72
  15  15  -8    2.60    0.70
 -15 -15   7    6.58    1.23
 -15  15   7    6.26    1.05
  15  15  -7    7.15    0.97
 -15  15   6   -0.20    0.56
 -15 -15   6   -0.39    0.71
  15  15  -6   -0.16    0.47
  15 -15  -5   13.50    1.38
 -15 -15   5   14.51    1.59
  15  15  -5   15.65    1.31
 -15  15   5   15.04    1.52
 -15  15   4    1.31    0.62
  15 -15  -4    1.89    0.71
  15  15  -4    1.77    0.55
 -15 -15   4    2.15    0.72
 -15  15   3    4.35    0.93
  15 -15  -3    4.09    0.85
  15  15  -3    3.91    0.71
 -15 -15   3    4.63    0.84
 -15  15   2    4.24    0.90
  15 -15  -2    4.67    0.83
  15  15  -2    4.81    0.76
 -15 -15   2    5.32    0.84
 -15  15   1   23.75    1.89
  15 -15  -1   19.00    1.65
  15 -15   0    7.92    1.15
 -15  15   0    4.47    0.89
 -15  15   0    6.63    0.83
 -15  15  -1    6.83    1.13
  15 -15   1    5.88    1.07
 -15  15  -1    6.40    0.83
 -15  15  -2    4.10    0.96
  15 -15   2    2.72    0.80
 -15  15  -2    2.82    0.62
 -15  15  -3    9.69    1.39
  15 -15   3    7.42    1.19
 -15  15  -3    9.54    1.11
  15 -15   4    2.43    0.80
 -15  15  -4    3.68    0.99
 -15  15  -4    1.23    0.63
 -15  15  -5    1.15    0.65
 -15  15  -6    1.08    0.56
 -15  15  -7    0.16    0.68
  15 -17  -8    1.35    0.78
  15  17  -8    0.14    0.57
  15 -17  -7   39.81    2.46
 -15 -17   7   36.62    2.65
  15  17  -7   41.32    2.38
 -15  17   7   39.05    2.53
 -15  17   6    0.44    0.61
  15 -17  -6    0.92    0.67
 -15 -17   6   -0.15    0.81
  15  17  -6   -0.19    0.52
  15 -17  -5   39.35    2.38
 -15 -17   5   37.76    2.53
  15  17  -5   38.28    2.16
 -15  17   5   38.21    2.45
 -15  17   4   -0.28    0.54
  15 -17  -4    1.26    0.68
  15  17  -4    0.77    0.46
 -15 -17   4    1.84    0.83
 -15  17   3    1.26    0.71
  15 -17  -3    0.43    0.60
  15  17  -3    1.32    0.56
 -15 -17   3    0.96    0.60
  15 -17  -2    0.79    0.60
 -15  17   2    0.99    0.71
  15 -17  -1    5.07    0.91
 -15  17   1    6.12    1.26
 -15  17   0    0.63    0.63
  15 -17   0    0.32    0.57
 -15  17   0   -0.20    0.46
  15 -17   1    1.05    0.61
 -15  17  -1   -0.24    0.53
 -15  17  -1    0.53    0.55
 -15  17  -2    0.55    0.53
 -15  17  -3    6.02    0.96
 -15  17  -4    1.18    0.64
 -15  17  -5    4.96    0.95
 -15 -19   6    1.21    0.83
 -15 -19   5    5.29    1.24
  15  19  -5    5.31    0.95
  15  19  -4    0.73    0.57
  15  19  -3    4.58    0.83
 -15  19  -1    0.15    0.54
 -15  19  -2    0.76    0.56
 -15  19  -3    2.06    0.77
 -16   0  11    1.69    0.74
 -16   0  10    1.34    0.61
 -16   0   9    3.11    0.85
 -16   0   8   53.36    2.63
 -16   0   7    0.44    0.49
 -16   0   6    2.77    0.69
 -16   0   5    1.28    0.28
 -16   0   5    0.94    0.45
 -16   0   4  145.48    2.89
 -16   0   4  145.20    3.92
  16   0  -3    1.86    0.63
 -16   0   3    1.29    0.32
 -16   0   3    1.52    0.53
  16   0  -2  171.34    4.64
 -16   0   2  171.83    3.41
 -16   0   2  173.67    4.24
  16   0  -2  178.38    4.25
 -16   0   1    2.51    0.40
  16   0  -1    3.49    0.59
 -16   0   1    2.97    0.58
  16   0   0    0.77    0.34
 -16   0   0    1.40    0.47
  16   0   0    0.72    0.37
 -16   0  -1    1.06    0.41
  16   0   1    1.39    0.39
 -16   0  -1    1.29    0.17
  16   0   1    1.48    0.45
  16   0   2   20.86    1.23
  16   0   2   21.58    1.29
 -16   0  -2   21.79    1.30
  16   0   2   20.67    1.25
  16   0   3    1.14    0.41
 -16   0  -3    1.33    0.41
  16   0   3    1.82    0.49
  16   0   3    1.65    0.42
  16   0   4    0.90    0.40
 -16   0  -4    1.56    0.49
  16   0   4    1.34    0.46
  16   0   4    1.81    0.48
  16   0   5   -0.17    0.33
  16   0   5   -0.43    0.50
  16   0   5    0.58    0.42
  16   0   6   -0.37    0.42
  16   0   6    0.00    0.49
  16   0   7    0.45    0.40
  16   0   7   -0.50    0.70
  16   0   8   16.12    1.56
 -16   2  11    5.28    1.17
 -16  -2  11    5.50    1.03
 -16  -2  10    7.11    1.09
 -16   2  10    3.63    0.95
 -16  -2   9   51.17    2.68
 -16   2   9   50.34    2.66
 -16  -2   8   48.94    2.51
 -16   2   8   49.44    2.54
 -16  -2   7   62.39    2.72
 -16   2   7   63.32    2.79
 -16   2   6    0.75    0.52
 -16  -2   6    0.97    0.55
 -16   2   5   70.50    1.69
 -16  -2   5   70.05    2.69
 -16   2   5   68.35    2.76
 -16   2   4    8.18    0.52
  16   2  -4    8.64    0.41
  16  -2  -4    7.05    0.31
 -16  -2   4    7.48    0.66
 -16  -2   4    7.73    0.89
 -16   2   4    7.82    0.93
  16   2  -3    3.18    0.62
 -16  -2   3    3.31    0.47
 -16   2   3    2.11    0.30
 -16   2   3    2.58    0.60
 -16  -2   3    3.44    0.64
  16  -2  -3    2.05    0.52
  16   2  -2   48.30    2.27
 -16  -2   2   47.08    1.69
 -16   2   2   48.27    1.40
  16  -2  -2   50.00    2.17
 -16   2   2   50.25    2.17
 -16  -2   2   45.94    1.97
  16   2  -1    0.67    0.48
 -16  -2   1    0.70    0.31
 -16  -2   1    1.12    0.47
  16  -2  -1    0.69    0.70
 -16   2   1    0.20    0.40
 -16  -2   0   12.60    0.91
  16  -2   0   11.32    0.79
  16   2   0   11.85    0.92
 -16   2   0   12.40    1.05
  16  -2   0   12.93    1.09
 -16  -2   0   12.39    0.97
  16  -2   1   21.71    1.16
 -16  -2  -1   21.64    1.22
 -16   2  -1   21.70    0.62
 -16  -2  -1   21.93    0.72
  16   2   1   22.52    1.29
  16   2   1   21.15    1.19
 -16   2  -1   20.43    1.33
 -16  -2  -1   25.11    1.30
  16  -2   1   23.22    1.43
  16   2   2   12.30    0.89
 -16   2  -2   11.67    1.02
  16  -2   2   11.54    0.99
  16  -2   2   12.81    0.95
 -16  -2  -2   11.75    0.63
  16   2   2   11.30    0.99
 -16  -2  -2   10.74    0.85
  16   2   2   11.32    0.86
  16  -2   2   11.16    1.01
  16   2   3    9.88    0.81
 -16  -2  -3    9.68    0.81
  16  -2   3    8.18    0.88
 -16   2  -3    7.44    0.89
  16   2   3   10.02    0.98
  16  -2   3    9.54    0.91
  16   2   3   10.58    0.85
  16  -2   3    8.87    0.99
  16  -2   4    2.92    0.60
  16   2   4    2.35    0.46
 -16   2  -4    2.76    0.67
 -16  -2  -4    4.05    0.60
  16   2   4    4.42    0.75
  16  -2   4    3.07    0.63
  16  -2   4    2.67    0.57
  16   2   4    3.51    0.60
  16  -2   5    0.20    0.37
  16   2   5   -0.09    0.33
  16   2   5   -0.57    0.48
  16  -2   5   -0.21    0.43
  16   2   5   -0.37    0.36
  16  -2   6    1.74    0.55
  16   2   6    2.19    0.49
  16   2   6    2.14    0.66
  16  -2   6    2.61    0.64
  16  -2   7    0.25    0.48
  16   2   7   -0.53    0.57
  16  -2   7    0.19    0.50
  16  -2   8    1.76    0.63
  16   2   8    0.58    0.56
  16  -2   8    1.49    0.62
 -16   4  11    4.15    0.87
 -16  -4  11    4.53    0.95
 -16   4  10   12.24    1.42
 -16  -4  10   11.86    1.41
 -16   4   9   12.08    1.39
 -16  -4   9   16.09    1.51
 -16  -4   8   55.34    2.67
 -16   4   8   53.06    2.68
 -16  -4   7   98.70    3.48
 -16   4   7   95.76    3.58
 -16   4   6   62.46    1.31
 -16  -4   6   61.44    2.61
 -16   4   6   62.00    2.73
 -16   4   5   40.90    0.90
  16  -4  -5   42.58    1.25
  16   4  -5   42.72    1.33
 -16  -4   5   42.94    2.06
 -16   4   5   43.15    2.19
 -16  -4   4    3.26    0.52
  16  -4  -4    4.61    0.32
  16   4  -4    3.18    0.34
 -16   4   4    4.24    0.73
 -16  -4   4    3.51    0.66
  16   4  -3   93.95    3.26
  16   4  -3  101.18    1.82
 -16  -4   3   98.78    2.72
 -16   4   3   96.47    3.26
 -16  -4   3   96.07    2.97
  16   4  -2    1.35    0.47
 -16  -4   2    2.77    0.53
 -16  -4   2    1.83    0.52
 -16   4   2    2.33    0.62
  16   4  -1    3.53    0.64
 -16  -4   1    4.19    0.59
 -16   4   1    4.14    0.70
 -16  -4   1    4.33    0.61
 -16   4   0    3.17    0.64
  16   4   0    3.39    0.63
  16  -4   0    3.34    0.44
 -16  -4   0    3.27    0.51
 -16  -4   0    3.36    0.30
  16  -4   0    3.99    0.71
 -16  -4   0    4.00    0.58
 -16   4  -1    5.47    0.79
  16  -4   1    7.17    0.83
  16   4   1    7.98    0.83
 -16  -4  -1    7.21    0.51
 -16   4  -1    6.55    0.41
  16  -4   1    5.68    0.62
 -16  -4  -1    7.10    0.67
  16  -4   1    5.57    0.83
  16  -4   2   34.21    1.78
  16   4   2   31.87    1.35
 -16   4  -2   33.54    1.81
  16   4   2   33.26    1.58
  16  -4   2   35.33    1.53
 -16  -4  -2   32.97    1.20
  16   4   2   33.70    1.73
 -16  -4  -2   31.84    1.36
 -16   4  -2   35.99    1.18
  16   4   3   18.35    1.00
 -16   4  -3   15.37    1.27
 -16  -4  -3   17.73    0.97
  16  -4   3   16.10    1.29
 -16  -4  -3   17.44    0.95
  16  -4   3   16.55    1.14
  16   4   3   16.14    1.28
  16   4   3   14.91    0.89
  16  -4   4    1.48    0.53
 -16   4  -4    1.41    0.52
  16   4   4    1.32    0.37
  16   4   4    1.03    0.53
  16  -4   4    1.67    0.49
  16   4   4    0.87    0.31
 -16   4  -5    0.68    0.46
  16  -4   5    0.22    0.44
  16   4   5    0.76    0.27
  16   4   5    0.12    0.44
  16  -4   5    0.54    0.44
  16  -4   6   -0.08    0.44
  16   4   6    0.37    0.61
  16  -4   6   -0.95    0.57
  16  -4   7    1.22    0.60
  16   4   7    0.84    0.64
  16  -4   7    0.76    0.54
  16  -4   8    0.77    0.71
  16   4   8    1.07    0.68
  16  -4   8    0.05    0.48
 -16   6  11    8.99    1.31
 -16  -6  10    0.81    0.77
 -16   6  10   -0.01    0.59
 -16  -6   9    7.66    1.33
 -16   6   9    6.87    1.12
 -16  -6   8    4.27    0.98
 -16  -6   8    4.85    0.88
 -16   6   8    3.66    0.86
 -16  -6   7   -0.88    0.72
 -16  -6   7    0.23    0.49
 -16   6   7   -0.17    0.58
  16  -6  -6    1.94    0.38
  16   6  -6    1.01    0.32
 -16  -6   6    1.05    0.55
 -16   6   6    1.75    0.66
  16   6  -5   59.90    1.80
  16  -6  -5   63.32    1.73
 -16   6   5   62.09    2.76
 -16  -6   5   59.19    2.47
  16   6  -4    1.21    0.27
  16  -6  -4    1.72    0.28
 -16   6   4    2.62    0.70
 -16  -6   4    1.16    0.46
  16   6  -3  178.83    4.65
  16   6  -3  187.06    3.29
 -16  -6   3  182.78    4.17
 -16  -6   3  179.92    4.28
 -16   6   3  182.27    4.78
  16   6  -2    2.52    0.63
 -16  -6   2    3.25    0.59
 -16  -6   2    2.93    0.56
 -16   6   2    3.43    0.73
  16   6  -1   35.65    1.76
 -16   6   1   38.40    2.03
 -16  -6   1   38.89    1.62
 -16   6   0    0.87    0.55
  16  -6   0    1.26    0.51
  16   6   0    1.38    0.44
  16  -6   0    1.14    0.28
 -16   6   0    1.19    0.22
 -16  -6   0    0.85    0.27
 -16  -6   0    1.42    0.40
 -16   6  -1    1.11    0.56
  16  -6   1    0.98    0.48
  16   6   1    1.34    0.38
  16  -6   1    1.53    0.35
 -16   6  -1    1.77    0.30
 -16  -6  -1    1.82    0.36
 -16  -6  -1    1.67    0.34
  16  -6   2   10.35    1.07
 -16   6  -2    8.60    1.01
  16   6   2   13.39    0.94
 -16   6  -2   12.51    0.78
  16  -6   2   12.07    0.89
 -16  -6  -2   12.74    0.83
 -16  -6  -2   12.08    0.74
  16   6   3   12.34    0.73
 -16   6  -3   14.72    1.32
  16  -6   3   15.29    1.33
 -16  -6  -3   11.99    0.67
  16   6   3   13.39    0.87
 -16  -6  -3   14.14    0.95
  16  -6   3   14.98    1.09
  16   6   3   15.43    1.27
 -16   6  -3   14.16    0.91
  16  -6   4    0.73    0.52
 -16   6  -4    0.71    0.50
  16   6   4    0.43    0.48
 -16  -6  -4    0.66    0.35
  16  -6   4    1.19    0.49
  16   6   4    0.92    0.25
 -16   6  -5    2.33    0.73
  16  -6   5    1.84    0.69
  16   6   5    1.95    0.72
  16  -6   5    2.68    0.66
  16  -6   6    0.31    0.56
  16   6   6    0.79    0.57
  16  -6   6   -0.06    0.41
  16  -6   7    0.84    0.61
  16   6   7    0.95    0.58
  16  -6   7   -0.33    0.53
  16  -6   8    0.86    0.72
  16  -6   8    0.19    0.49
  16  -6   9   -0.89    0.73
 -16   8  11    1.36    0.76
 -16  -8  10    8.73    1.41
 -16   8  10   11.52    1.41
 -16  -8   9   47.03    2.99
 -16   8   9   44.41    2.63
 -16  -8   8   41.21    2.68
 -16   8   8   38.30    2.40
  16   8  -8   42.43    1.93
 -16  -8   7   70.27    3.33
  16  -8  -7   72.08    2.36
 -16   8   7   68.99    3.14
  16   8  -7   70.66    2.40
 -16  -8   6   30.71    2.12
  16   8  -6   32.06    1.48
  16  -8  -6   31.35    1.41
 -16   8   6   30.41    2.02
 -16  -8   5   -0.02    0.52
  16  -8  -5    0.84    0.28
 -16  -8   5    0.28    0.42
 -16   8   5   -0.37    0.61
  16   8  -5    1.36    0.37
  16  -8  -4    7.34    0.58
  16   8  -4    7.82    0.67
 -16  -8   4    9.42    0.96
 -16   8   4    8.08    1.03
  16   8  -3   21.98    1.50
  16   8  -3   20.98    1.02
 -16  -8   3   21.10    1.35
 -16   8   3   20.63    1.58
  16   8  -2    3.16    0.64
 -16   8   2    2.73    0.69
 -16  -8   2    2.39    0.52
  16   8  -1    6.13    0.79
 -16   8   1    6.40    0.95
 -16  -8   1    7.14    0.72
 -16   8   0    9.54    1.10
  16  -8   0   10.17    1.05
  16   8   0   10.32    0.88
  16  -8   0   10.02    0.63
 -16   8   0   10.23    0.67
 -16  -8   0   10.09    0.76
 -16  -8   0   11.04    0.78
  16  -8   1   16.14    1.36
 -16   8  -1   14.70    1.35
  16   8   1   15.99    0.98
 -16  -8  -1   16.84    1.01
  16  -8   1   16.08    0.91
 -16   8  -1   17.78    0.94
 -16  -8  -1   14.93    0.80
  16  -8   2    8.73    1.20
 -16   8  -2    7.91    1.04
  16   8   2    9.20    0.67
  16  -8   2    7.63    0.72
 -16   8  -2    8.13    0.72
 -16  -8  -2    7.97    0.75
 -16  -8  -2    8.85    0.51
  16   8   3    7.43    0.44
 -16   8  -3    7.02    1.01
  16  -8   3    7.89    1.00
 -16   8  -3    8.09    0.74
 -16  -8  -3    8.24    0.79
  16  -8   3    9.05    0.84
  16  -8   4    6.04    0.97
 -16   8  -4    4.29    0.93
  16  -8   4    5.10    0.73
  16   8   4    5.11    0.90
 -16   8  -4    4.84    0.64
 -16   8  -5   -0.37    0.60
  16  -8   5    0.25    0.55
  16  -8   5    1.00    0.48
  16   8   5   -0.08    0.48
  16  -8   6   -1.16    0.67
  16  -8   6    0.86    0.52
  16   8   6   -0.42    0.50
  16  -8   7    0.52    0.64
  16  -8   7    0.48    0.52
  16   8   7    0.89    0.61
  16  -8   8    0.28    0.57
  16  -8   8    0.71    0.53
 -16  10  10    3.50    0.93
  16  10 -10    3.63    0.78
 -16 -10   9   24.63    2.21
 -16  10   9   21.70    1.90
  16  10  -9   20.80    1.54
 -16 -10   8   26.75    2.23
 -16  10   8   29.22    2.14
  16  10  -8   30.52    1.74
 -16 -10   7   13.65    1.55
  16  10  -7   13.65    1.11
 -16  10   7   14.72    1.49
 -16 -10   6    1.38    0.68
  16 -10  -6    2.05    0.48
  16  10  -6    2.34    0.50
 -16  10   6    2.62    0.74
 -16 -10   5    3.65    0.86
  16  10  -5    4.55    0.61
 -16  10   5    3.21    0.77
  16 -10  -5    3.02    0.48
 -16 -10   4   50.84    2.53
  16 -10  -4   53.81    1.83
  16  10  -4   50.77    1.88
 -16  10   4   52.16    2.60
 -16 -10   4   52.32    2.28
 -16  10   3    1.26    0.65
  16  10  -3    1.37    0.53
  16  10  -3    1.54    0.42
 -16 -10   3    0.94    0.50
  16  10  -2  101.42    3.12
 -16 -10   2  101.17    2.90
 -16  10   2   95.56    3.50
  16 -10  -1   22.37    1.60
  16  10  -1   26.64    1.44
  16 -10  -1   21.70    0.59
 -16 -10   1   27.87    1.33
 -16  10   1   25.49    1.80
 -16  10   0    3.25    0.83
  16 -10   0    4.41    0.84
  16  10   0    3.42    0.49
  16 -10   0    2.51    0.33
 -16  10   0    3.43    0.51
 -16 -10   0    3.60    0.56
 -16 -10   0    3.13    0.43
 -16  10  -1    3.73    0.87
  16 -10   1    4.09    0.77
  16  10   1    3.84    0.49
 -16  10  -1    4.35    0.55
  16 -10   1    4.58    0.52
 -16 -10  -1    3.88    0.60
 -16 -10  -1    3.99    0.40
  16 -10   2   10.23    1.19
 -16  10  -2    9.32    1.18
 -16  10  -2   11.81    0.93
 -16 -10  -2   12.28    1.00
  16 -10   2   12.99    0.89
  16 -10   3    1.56    0.70
 -16  10  -3    2.95    0.80
  16 -10   3    1.95    0.44
 -16  10  -3    2.38    0.49
  16 -10   4    2.27    0.74
 -16  10  -4    1.70    0.78
 -16  10  -4    1.38    0.47
  16 -10   5   -0.24    0.60
  16  10   5   -0.04    0.52
 -16  10  -5    0.03    0.39
  16 -10   6    2.97    0.86
  16  10   6    1.95    0.68
 -16  10  -6    1.39    0.57
  16 -10   7    0.87    0.72
  16  12 -11    0.14    0.62
  16  12 -10   -0.13    0.54
 -16  12  10    0.71    0.70
 -16 -12   9    7.77    1.35
 -16  12   9    8.29    1.26
  16  12  -9    8.85    1.11
 -16 -12   8   12.83    1.64
  16  12  -8   11.86    1.17
 -16  12   8   12.06    1.41
 -16 -12   7    8.12    1.32
 -16  12   7    7.91    1.18
  16  12  -7    8.89    0.99
 -16 -12   6    0.12    0.72
 -16  12   6    2.47    0.73
  16  12  -6    2.80    0.54
 -16  12   5    0.64    0.51
 -16 -12   5    0.74    0.94
  16  12  -5    0.66    0.42
 -16 -12   4   48.65    2.55
  16  12  -4   49.40    2.01
  16 -12  -4   49.36    1.94
 -16  12   4   53.31    2.69
 -16  12   3    4.47    0.87
  16 -12  -3    4.52    0.86
 -16 -12   3    2.12    0.67
  16  12  -3    2.28    0.47
 -16 -12   3    2.80    0.63
  16  12  -2   59.58    2.32
  16 -12  -2   59.04    2.71
 -16 -12   2   60.76    2.22
 -16  12   2   55.60    2.75
  16  12  -1   10.08    0.90
 -16  12   1   11.93    1.33
  16 -12  -1   10.00    1.16
 -16 -12   1   11.73    0.88
 -16  12   0    3.40    0.82
  16 -12   0    2.13    0.68
  16 -12   0    2.30    0.32
 -16  12   0    3.37    0.53
 -16 -12   0    3.25    0.62
 -16 -12   0    2.71    0.41
  16 -12   1    0.12    0.58
 -16  12  -1    1.11    0.64
  16 -12   1    0.98    0.31
 -16  12  -1    0.33    0.33
 -16  12  -2   11.86    1.37
  16 -12   2   11.02    1.26
 -16  12  -2   12.80    1.05
 -16  12  -3    0.77    0.69
  16 -12   3    1.93    0.81
 -16  12  -3    1.33    0.48
 -16  12  -4    0.92    0.72
  16 -12   4   -0.52    0.57
 -16  12  -4    1.13    0.51
  16 -12   5   -0.13    0.66
 -16  12  -5    0.51    0.44
  16 -12   6    0.73    0.71
 -16  12  -6   -0.17    0.50
 -16  12  -7   -0.97    0.69
  16  14 -10    3.11    0.83
  16  14  -9   18.38    1.61
 -16  14   9   15.69    1.69
 -16 -14   8   45.26    3.01
  16  14  -8   47.19    2.42
 -16  14   8   49.96    2.85
 -16 -14   7   41.90    2.76
  16  14  -7   41.01    2.17
 -16  14   7   43.14    2.59
 -16  14   6    4.17    0.92
  16  14  -6    4.55    0.75
 -16 -14   6    3.71    0.94
 -16  14   5    0.68    0.53
  16  14  -5    0.84    0.45
 -16 -14   5   -0.91    0.79
 -16  14   4    2.86    0.82
  16 -14  -4    2.71    0.81
  16  14  -4    1.76    0.51
 -16 -14   4    1.83    0.65
 -16  14   3    6.32    1.05
  16 -14  -3    6.13    1.03
 -16 -14   3    6.93    1.01
  16  14  -3    7.45    0.86
 -16  14   2    5.98    1.10
  16 -14  -2    6.39    0.99
 -16 -14   2    5.13    0.72
 -16  14   1    0.80    0.61
  16 -14  -1    0.87    0.64
 -16 -14   1    1.04    0.40
  16 -14   0    3.41    0.81
 -16  14   0    2.30    0.76
 -16  14   0    3.01    0.58
 -16  14  -1   12.38    1.44
  16 -14   1   13.12    1.42
 -16  14  -1   12.39    1.07
  16 -14   2    1.91    0.69
 -16  14  -2    0.98    0.65
 -16  14  -2    2.01    0.56
 -16  14  -3   15.77    1.68
  16 -14   3   15.82    1.61
 -16  14  -3   16.79    1.33
  16 -14   4    3.78    0.92
 -16  14  -4    2.71    0.91
 -16  14  -4    3.25    0.73
 -16  14  -5    1.68    0.68
 -16  14  -6   -1.19    0.63
  16  16  -8    2.81    0.78
 -16  16   7    2.53    0.78
  16  16  -7    2.01    0.70
 -16 -16   7    3.00    0.95
 -16  16   6    4.18    0.91
  16 -16  -6    4.55    0.90
 -16 -16   6    4.36    1.12
  16  16  -6    3.28    0.76
  16 -16  -5   16.90    1.60
 -16 -16   5   15.03    1.63
  16  16  -5   18.24    1.43
 -16  16   5   18.30    1.73
 -16  16   4    0.42    0.55
  16 -16  -4    0.49    0.69
  16  16  -4   -0.44    0.49
 -16 -16   4    1.31    0.77
 -16  16   3   50.71    2.81
  16 -16  -3   52.21    2.76
  16  16  -3   48.09    2.26
 -16 -16   3   50.42    2.59
 -16  16   2    0.88    0.73
  16 -16  -2    1.09    0.72
  16 -16  -1   10.20    1.29
 -16  16   1   10.17    1.35
 -16  16   0    1.13    0.63
  16 -16   0    0.49    0.57
 -16  16   0    0.67    0.47
  16 -16   1    2.19    0.78
 -16  16  -1    2.25    0.70
 -16  16  -1    3.12    0.67
  16 -16   2    2.09    0.84
 -16  16  -2    2.35    0.87
 -16  16  -2    2.51    0.65
 -16  16  -3    4.35    0.84
 -16  16  -4    0.10    0.50
 -16  16  -5    0.59    0.67
  16  18  -7    5.08    0.94
 -16 -18   6    8.38    1.37
  16  18  -6    7.73    1.10
 -16 -18   5    9.63    1.44
  16  18  -5   10.03    1.17
 -16 -18   4   -0.65    0.70
  16  18  -4    0.92    0.54
  16  18  -3   40.03    2.19
 -16  18  -1    2.48    0.71
 -16  18  -2    3.46    0.80
 -16  18  -3    2.54    0.76
 -17  -1  11    7.14    1.16
 -17   1  11    4.54    0.98
 -17  -1  10   75.48    3.46
 -17   1  10   81.76    3.58
 -17  -1   9    0.04    0.80
 -17   1   9    0.40    0.52
 -17   1   8   10.71    1.24
 -17  -1   8    8.88    1.19
 -17  -1   7   42.12    2.27
 -17   1   7   36.27    2.13
 -17  -1   6   23.84    1.66
 -17   1   6   20.92    1.58
 -17  -1   5   35.26    1.40
 -17   1   5   33.15    1.21
 -17  -1   5   31.27    1.85
 -17   1   5   32.78    1.91
 -17  -1   4   12.71    0.85
 -17   1   4   13.78    0.77
 -17  -1   4   12.79    1.19
 -17   1   4   11.70    1.16
 -17  -1   3   42.32    1.54
 -17   1   3   38.82    1.33
 -17   1   3   40.07    2.00
 -17  -1   3   42.80    2.01
  17   1  -2   18.64    1.47
 -17  -1   2   17.37    0.99
 -17   1   2   16.45    0.87
 -17  -1   2   19.38    1.32
  17  -1  -2   20.69    1.40
 -17   1   2   19.38    1.38
  17   1  -1    2.03    0.60
 -17  -1   1    1.66    0.39
  17   1  -1    1.68    0.49
 -17   1   1    2.74    0.63
  17  -1  -1    3.14    0.60
 -17  -1   1    2.13    0.57
 -17  -1   0   54.37    1.90
  17  -1   0   56.88    1.89
 -17   1   0   54.55    2.19
  17   1   0   54.18    2.11
  17  -1   0   52.16    2.16
 -17  -1   0   51.96    2.07
 -17  -1  -1    5.48    0.71
 -17   1  -1    6.90    0.80
  17   1   1    5.72    0.72
  17  -1   1    5.19    0.67
 -17  -1  -1    4.04    0.26
  17  -1   1    6.10    0.76
  17   1   1    5.18    0.67
  17   1   2   11.58    0.93
 -17   1  -2   11.30    1.03
  17  -1   2   10.43    0.96
  17  -1   2   11.25    0.96
  17   1   2   13.35    1.07
 -17  -1  -2   10.28    0.92
  17   1   2   10.55    0.92
  17  -1   2   10.89    1.02
  17  -1   3    1.33    0.43
 -17  -1  -3    1.51    0.48
 -17   1  -3    1.48    0.52
  17   1   3    0.82    0.36
  17   1   3    1.68    0.56
  17  -1   3    2.26    0.59
  17   1   3    1.29    0.44
  17  -1   3    1.16    0.46
  17  -1   4    1.10    0.46
  17   1   4    1.29    0.43
 -17   1  -4    0.89    0.48
 -17  -1  -4    0.47    0.43
  17   1   4    1.83    0.60
  17  -1   4    1.38    0.54
  17   1   4    0.70    0.36
  17  -1   4    1.19    0.46
  17  -1   5    0.83    0.44
  17   1   5    0.91    0.43
  17   1   5   -0.33    0.48
  17  -1   5    0.34    0.42
  17  -1   6    0.55    0.42
  17   1   6    0.79    0.38
  17   1   6    0.67    0.55
  17  -1   6    0.30    0.47
  17  -1   7    4.07    0.75
  17   1   7    2.60    0.73
  17  -1   7    4.74    0.86
  17   1   8    0.84    0.65
  17  -1   8    1.86    0.71
 -17   3  11   11.33    1.43
 -17  -3  11   10.10    1.40
 -17   3  10    3.68    0.88
 -17  -3  10    3.76    0.90
 -17   3   9    8.08    1.16
 -17  -3   9    7.10    1.09
 -17   3   8    5.71    1.00
 -17  -3   8    4.28    0.86
 -17  -3   7   33.16    2.01
 -17   3   7   32.08    2.04
 -17   3   6   51.25    1.33
 -17  -3   6   49.81    2.39
 -17   3   6   52.48    2.54
 -17   3   5  189.47    3.16
  17   3  -5  204.68    3.36
  17  -3  -5  198.31    3.16
 -17  -3   5  201.88    4.99
 -17   3   5  187.01    5.03
 -17   3   4  102.74    2.00
  17   3  -4  108.20    1.86
 -17  -3   4  104.02    2.79
 -17   3   4  101.70    3.45
 -17  -3   4  104.40    3.31
  17   3  -3   42.58    2.25
 -17  -3   3   42.92    1.70
 -17   3   3   45.15    2.19
 -17  -3   3   42.91    2.00
  17   3  -2    1.26    0.56
 -17  -3   2    1.35    0.37
 -17   3   2    1.36    0.48
 -17  -3   2    1.23    0.47
  17   3  -1    4.16    0.72
 -17  -3   1    3.06    0.51
 -17  -3   1    4.09    0.61
 -17   3   1    3.82    0.72
 -17   3   0    3.80    0.68
  17   3   0    4.27    0.70
 -17  -3   0    5.45    0.65
  17  -3   0    5.68    0.57
 -17  -3   0    4.69    0.64
  17  -3   1   16.08    1.21
  17   3   1   17.02    1.27
  17  -3   1   20.75    1.14
 -17  -3  -1   18.20    0.70
 -17   3  -1   17.24    0.54
  17   3   1   16.31    1.06
 -17  -3  -1   18.82    1.12
 -17   3  -1   17.78    1.32
 -17  -3  -2    1.27    0.43
  17   3   2    1.06    0.40
 -17   3  -2    1.89    0.60
  17  -3   2    0.94    0.51
  17   3   2    2.15    0.61
 -17  -3  -2    0.91    0.27
  17  -3   2    1.65    0.48
  17   3   2    1.02    0.41
  17  -3   3    1.15    0.56
 -17  -3  -3    1.36    0.39
 -17   3  -3    1.10    0.52
  17   3   3    1.66    0.39
  17   3   3    1.86    0.58
  17  -3   3    0.72    0.45
  17   3   3    1.83    0.41
  17  -3   4    3.65    0.71
  17   3   4    3.89    0.56
 -17   3  -4    4.92    0.79
 -17  -3  -4    3.10    0.53
  17   3   4    3.36    0.67
  17  -3   4    4.42    0.71
  17   3   4    4.59    0.58
 -17   3  -5    1.79    0.62
  17  -3   5    1.90    0.61
  17   3   5    1.23    0.37
  17   3   5    1.49    0.59
  17  -3   5    1.77    0.55
  17  -3   6    2.29    0.66
  17   3   6    0.63    0.53
  17  -3   6    1.61    0.54
  17  -3   7    1.74    0.66
  17   3   7    2.71    0.77
  17  -3   7    0.95    0.58
  17  -3   8   -0.30    0.55
  17  -3   8    0.42    0.54
 -17   5  11   40.80    2.66
 -17   5  10    0.30    0.56
 -17  -5  10    1.12    0.59
 -17  -5   9   67.56    3.16
 -17   5   9   67.61    3.23
 -17   5   8    0.82    0.65
 -17  -5   8    1.46    0.69
 -17  -5   7    6.12    0.96
 -17   5   7    8.42    1.12
  17  -5  -6   17.91    0.92
 -17  -5   6   16.93    1.42
  17   5  -6   16.11    0.91
 -17   5   6   18.30    1.55
  17  -5  -5   10.92    0.62
  17   5  -5   11.85    0.72
 -17   5   5    9.00    1.18
 -17  -5   5   10.27    1.08
 -17  -5   4    6.63    0.75
  17   5  -4    7.31    0.50
  17  -5  -4    6.20    0.39
 -17   5   4    7.27    1.00
 -17  -5   4    6.47    0.86
  17   5  -3    1.13    0.58
 -17  -5   3    2.04    0.49
 -17  -5   3    1.20    0.48
 -17   5   3    1.52    0.58
  17   5  -2    4.13    0.69
 -17  -5   2    3.49    0.56
 -17  -5   2    4.08    0.65
 -17   5   2    2.98    0.68
  17   5  -1   42.13    2.02
 -17  -5   1   42.09    1.83
 -17   5   1   38.66    2.04
 -17  -5   1   42.82    1.78
 -17   5   0    0.49    0.44
  17   5   0    1.48    0.52
  17  -5   0    1.27    0.32
 -17  -5   0    1.91    0.42
  17  -5   1   14.69    1.22
  17   5   1   13.52    1.08
  17  -5   1   14.81    0.94
 -17  -5  -1   14.27    0.76
 -17   5  -1   14.45    0.65
 -17   5  -1   15.34    1.30
 -17  -5  -1   14.15    0.92
  17   5   2    3.91    0.51
 -17  -5  -2    3.15    0.51
 -17   5  -2    3.76    0.76
  17  -5   2    4.07    0.78
  17   5   2    4.51    0.67
  17   5   2    3.98    0.67
 -17  -5  -2    4.29    0.48
  17  -5   2    3.96    0.59
 -17   5  -2    3.13    0.41
  17  -5   3    0.85    0.46
 -17   5  -3    1.88    0.60
 -17  -5  -3    0.75    0.32
  17   5   3    1.14    0.35
 -17  -5  -3    1.69    0.40
  17   5   3    1.36    0.55
  17  -5   3    1.08    0.41
  17   5   3    1.48    0.44
  17   5   4    0.90    0.31
  17  -5   4    1.58    0.60
 -17   5  -4    0.34    0.48
  17   5   4    0.31    0.44
 -17  -5  -4    1.10    0.39
  17  -5   4    1.03    0.48
  17  -5   5    2.15    0.65
 -17   5  -5    1.72    0.63
  17   5   5    3.64    0.81
  17  -5   5    1.39    0.57
  17  -5   6    0.39    0.51
  17   5   6   -0.20    0.51
  17  -5   6    0.21    0.41
  17  -5   7   -0.25    0.59
  17   5   7    0.24    0.53
  17  -5   7    0.04    0.49
  17  -5   8    0.32    0.71
  17  -5   8   -0.48    0.54
 -17  -7  10   -1.00    0.90
 -17  -7  10    0.43    0.60
 -17   7  10    0.44    0.68
 -17  -7   9   33.91    2.52
 -17  -7   9   33.21    2.24
 -17   7   9   35.33    2.38
 -17  -7   8    6.51    1.20
  17   7  -8    6.15    0.73
 -17  -7   8    5.78    0.99
 -17   7   8    6.24    1.06
 -17   7   7    2.12    0.74
  17   7  -7    1.44    0.41
 -17  -7   7    2.01    0.70
  17  -7  -6   53.97    1.77
  17   7  -6   52.84    1.84
 -17   7   6   49.03    2.60
 -17  -7   6   52.04    2.45
  17  -7  -5   47.57    1.52
  17   7  -5   44.47    1.58
 -17  -7   5   44.99    2.20
 -17   7   5   44.94    2.43
  17  -7  -4   19.28    0.85
  17   7  -4   22.56    1.02
 -17  -7   4   21.11    1.43
 -17   7   4   18.55    1.56
  17   7  -3    3.23    0.70
  17   7  -3    2.70    0.37
 -17   7   3    1.58    0.61
 -17  -7   3    2.79    0.59
  17   7  -2    3.30    0.65
 -17   7   2    3.20    0.72
 -17  -7   2    2.41    0.53
  17   7  -1   30.54    1.66
 -17   7   1   33.02    1.93
 -17  -7   1   27.60    1.40
 -17   7   0    3.75    0.76
  17  -7   0    5.20    0.81
  17   7   0    5.07    0.70
  17  -7   0    5.11    0.51
 -17   7   0    5.87    0.44
 -17  -7   0    5.31    0.61
 -17  -7   0    5.95    0.55
 -17   7  -1   20.96    1.55
  17  -7   1   18.97    1.45
  17   7   1   18.72    1.20
  17  -7   1   19.99    1.04
 -17  -7  -1   20.63    1.04
 -17   7  -1   21.48    0.93
 -17  -7  -1   17.15    0.96
  17  -7   2    1.22    0.57
 -17  -7  -2    1.10    0.32
 -17   7  -2    1.90    0.64
  17   7   2    1.57    0.41
 -17  -7  -2    0.93    0.33
  17  -7   2    1.97    0.47
 -17   7  -2    1.98    0.37
  17   7   3    0.21    0.24
 -17   7  -3    0.69    0.57
  17  -7   3   -0.02    0.50
 -17  -7  -3    0.46    0.21
  17   7   3    0.76    0.48
 -17  -7  -3    0.63    0.38
  17  -7   3    0.38    0.39
 -17   7  -3    0.35    0.30
 -17   7  -4    0.98    0.56
  17  -7   4    2.02    0.64
  17   7   4    1.58    0.59
  17  -7   4    1.90    0.56
 -17   7  -4    1.13    0.39
 -17   7  -5    4.27    0.94
  17  -7   5    4.60    0.93
  17   7   5    4.34    0.86
  17  -7   5    4.56    0.77
  17  -7   6    0.80    0.59
  17   7   6    0.22    0.49
  17  -7   6    1.17    0.58
  17  -7   7   -1.30    0.68
  17   7   7    0.16    0.57
  17  -7   7    0.23    0.53
  17  -7   8   -1.36    0.82
  17  -7   8    1.21    0.64
  17   9 -10   24.87    1.70
 -17   9  10   26.54    2.15
 -17  -9   9    1.92    0.85
 -17   9   9    1.17    0.69
  17   9  -9    1.35    0.49
 -17  -9   8   -0.39    0.91
  17   9  -8    0.63    0.42
 -17   9   8   -0.02    0.60
 -17  -9   7   23.78    2.05
  17   9  -7   29.42    1.55
 -17   9   7   30.76    2.14
 -17  -9   6   32.76    2.25
  17   9  -6   35.47    1.61
 -17  -9   6   36.57    2.09
 -17   9   6   33.07    2.17
  17   9  -5   54.28    1.92
  17  -9  -5   52.70    1.80
 -17  -9   5   50.22    2.35
 -17   9   5   50.46    2.62
  17  -9  -4   46.79    1.58
  17   9  -4   49.44    1.74
 -17  -9   4   49.20    2.23
 -17   9   4   41.60    2.33
 -17   9   3   10.30    1.18
  17   9  -3   12.39    0.83
 -17  -9   3   12.58    1.09
  17   9  -2   -0.15    0.41
 -17   9   2   -0.33    0.55
 -17  -9   2   -0.36    0.40
  17   9  -1    1.44    0.52
 -17   9   1    0.57    0.57
  17  -9  -1    1.16    0.52
 -17  -9   1    1.76    0.48
 -17   9   0   12.09    1.29
  17  -9   0   10.39    1.16
  17   9   0   11.13    0.94
  17  -9   0   11.30    0.67
 -17   9   0   11.00    0.72
 -17  -9   0   11.14    0.80
 -17  -9   0   10.95    0.83
 -17   9  -1    1.84    0.65
  17  -9   1    1.88    0.64
  17   9   1    1.01    0.36
  17  -9   1    1.52    0.35
 -17   9  -1    1.91    0.39
 -17  -9  -1    1.45    0.43
 -17  -9  -1    1.30    0.30
  17   9   2    2.47    0.34
  17  -9   2    2.22    0.69
 -17   9  -2    2.54    0.75
  17  -9   2    2.63    0.49
 -17   9  -2    2.83    0.50
 -17  -9  -2    2.82    0.54
 -17   9  -3   -0.36    0.64
  17  -9   3    0.24    0.52
  17  -9   3    0.94    0.41
 -17   9  -3    0.71    0.40
  17  -9   4    2.88    0.81
 -17   9  -4    2.92    0.86
  17  -9   4    3.47    0.67
 -17   9  -4    3.43    0.58
 -17   9  -5    0.26    0.58
  17  -9   5   -0.13    0.60
  17  -9   5    0.78    0.45
  17   9   5    0.00    0.44
 -17   9  -5    0.75    0.42
  17  -9   6    1.07    0.76
  17  -9   6    1.41    0.63
  17   9   6    0.26    0.51
  17  -9   7    0.00    0.56
  17  -9   7    0.98    0.55
  17  11 -11    0.68    0.59
  17  11 -10   47.63    2.47
 -17 -11   9   -0.90    0.85
  17  11  -9   -1.02    0.71
 -17  11   9   -0.88    0.71
 -17 -11   8   20.69    2.05
  17  11  -8   22.53    1.53
 -17  11   8   19.17    1.84
 -17 -11   7    6.09    1.19
  17  11  -7    4.26    0.69
 -17  11   7    5.20    0.99
 -17 -11   6    2.48    0.84
 -17  11   6    3.44    0.85
  17  11  -6    2.34    0.51
 -17 -11   5    2.35    0.73
  17  11  -5    1.74    0.48
 -17  11   5    0.98    0.62
 -17  11   4   11.39    1.34
  17  11  -4   12.23    0.96
 -17 -11   4   11.37    1.12
 -17  11   3    1.68    0.66
  17  11  -3    2.17    0.47
 -17 -11   3    1.73    0.56
  17  11  -2    4.27    0.72
 -17  11   2    4.26    0.90
  17 -11  -2    4.04    0.81
 -17 -11   2    3.62    0.62
  17  11  -1    7.43    0.83
 -17  11   1    8.73    1.15
  17 -11  -1    8.51    1.11
 -17 -11   1    7.77    0.75
  17 -11   0   50.55    2.52
 -17  11   0   53.04    2.70
  17 -11   0   50.35    1.38
 -17  11   0   53.80    1.84
 -17 -11   0   49.50    1.96
 -17 -11   0   47.44    1.58
  17 -11   1    1.47    0.67
 -17  11  -1    1.83    0.78
 -17  11  -1    1.42    0.40
  17 -11   1    1.51    0.37
 -17 -11  -1    2.17    0.61
 -17  11  -2    5.88    1.03
  17 -11   2    5.92    1.09
 -17  11  -2    5.54    0.69
  17 -11   2    6.77    0.69
  17 -11   3    1.81    0.68
 -17  11  -3    1.63    0.73
  17 -11   3    1.52    0.48
 -17  11  -3    2.09    0.55
  17 -11   4    0.74    0.68
 -17  11  -4    0.48    0.59
  17 -11   4    0.94    0.50
 -17  11  -4    0.15    0.39
  17 -11   5   -0.33    0.68
  17 -11   5   -1.09    0.53
 -17  11  -5   -0.39    0.51
  17 -11   6    0.59    0.88
  17 -11   6    0.17    0.54
 -17  11  -6    1.22    0.58
  17 -11   7   -0.53    0.54
  17  13 -10   23.79    1.85
  17  13  -9   -0.19    0.48
 -17 -13   8    0.67    0.67
  17  13  -8    0.35    0.63
 -17  13   8    0.83    0.64
 -17 -13   7   20.69    1.99
  17  13  -7   19.39    1.47
 -17  13   7   19.44    1.79
 -17  13   6    9.05    1.24
 -17 -13   6    7.45    1.21
  17  13  -6    8.00    0.92
 -17 -13   5   29.02    2.11
  17  13  -5   27.72    1.60
 -17  13   5   28.71    2.10
 -17  13   4    7.10    1.13
 -17 -13   4    6.86    1.06
  17  13  -4    7.65    0.85
 -17 -13   4    6.32    0.86
  17 -13  -3   16.63    1.51
  17  13  -3   17.23    1.19
 -17 -13   3   17.72    1.30
 -17  13   3   15.29    1.53
 -17  13   2    1.17    0.65
  17 -13  -2    1.03    0.59
 -17 -13   2    1.44    0.44
 -17  13   1    3.54    0.95
  17 -13  -1    2.27    0.73
 -17 -13   1    2.80    0.50
  17 -13   0    4.94    0.99
 -17  13   0    5.33    0.99
 -17  13   0    5.67    0.70
  17 -13   1    0.52    0.59
 -17  13  -1    0.61    0.66
 -17  13  -1    0.72    0.42
 -17  13  -2    0.77    0.60
  17 -13   2    0.06    0.59
 -17  13  -2    0.99    0.47
  17 -13   3   -0.10    0.66
 -17  13  -3    0.40    0.59
 -17  13  -3   -0.60    0.44
  17 -13   4    0.00    0.56
 -17  13  -4    1.60    0.81
 -17  13  -4    1.03    0.52
 -17  13  -5    1.20    0.61
  17  15  -9    9.25    1.22
  17  15  -8    0.77    0.56
 -17  15   7    1.16    0.70
 -17 -15   7   -0.56    0.82
  17  15  -7    0.24    0.47
 -17 -15   6   21.98    2.06
  17  15  -6   21.77    1.65
 -17  15   6   22.49    1.96
  17 -15  -5   24.27    1.90
 -17 -15   5   20.78    1.89
  17  15  -5   23.85    1.59
 -17  15   5   23.18    1.94
  17 -15  -4   19.10    1.70
 -17 -15   4   18.93    1.71
  17  15  -4   18.18    1.35
 -17  15   4   16.54    1.64
 -17  15   3    1.45    0.67
  17 -15  -3    1.99    0.70
  17  15  -3    2.10    0.56
 -17 -15   3    1.28    0.51
 -17  15   2   -0.20    0.63
  17 -15  -2   -0.79    0.62
  17 -15  -1    3.31    0.81
 -17  15   1    4.29    0.90
  17 -15   0    1.15    0.63
 -17  15   0    0.31    0.58
 -17  15   0    0.56    0.37
 -17  15  -1    7.80    1.20
  17 -15   1    8.15    1.21
 -17  15  -1    7.44    0.90
  17 -15   2   -0.67    0.69
 -17  15  -2    0.36    0.64
 -17  15  -2    1.27    0.59
 -17  15  -3    1.77    0.62
  17  17  -7   -0.20    0.52
  17  17  -6    2.54    0.72
 -17 -17   6    1.15    0.76
  17  17  -5    6.28    0.92
 -17 -17   5    5.17    1.14
  17  17  -4    2.85    0.68
 -17 -17   4    5.38    1.11
  17 -17  -3    0.07    0.62
 -17  17  -1    6.68    0.92
  17  19  -5    6.56    1.04
  17  19  -4   12.07    1.29
 -18   0  10    4.84    0.99
 -18   0   9    0.89    0.66
 -18   0   8  133.65    4.44
 -18   0   7    0.59    0.49
 -18   0   6   57.66    1.82
 -18   0   6   57.99    2.69
 -18   0   5    2.36    0.39
  18   0  -5    2.19    0.20
 -18   0   5    2.60    0.67
 -18   0   4   14.29    0.86
 -18   0   4   13.08    1.23
 -18   0   3    0.39    0.24
 -18   0   3    0.79    0.46
 -18   0   2   22.84    1.12
 -18   0   2   24.39    1.56
 -18   0   1    0.61    0.31
 -18   0   1   -0.81    0.51
  18   0  -1    0.55    0.44
 -18   0   0    3.55    0.65
  18   0   0    2.88    0.60
 -18   0  -1    1.16    0.43
  18   0   1    1.60    0.47
  18   0   1    2.18    0.52
  18   0   2   21.16    1.32
 -18   0  -2   20.27    1.34
  18   0   2   20.60    1.32
  18   0   2   21.31    1.35
  18   0   3    2.46    0.55
 -18   0  -3    1.79    0.54
  18   0   3    1.52    0.52
  18   0   3    1.03    0.39
  18   0   4    7.42    0.84
 -18   0  -4    7.43    0.83
  18   0   4    7.76    0.97
  18   0   4    7.27    0.85
  18   0   5   -0.38    0.42
  18   0   5    0.44    0.54
  18   0   6    2.40    0.57
  18   0   6    2.01    0.63
  18   0   7   -0.40    0.53
 -18   2  10    3.72    0.90
 -18  -2  10    4.00    0.94
 -18   2   9    5.44    0.99
 -18  -2   9    4.40    0.94
 -18  -2   8   20.15    1.69
 -18   2   8   17.88    1.65
 -18   2   7    2.84    0.77
 -18  -2   7    3.08    0.82
 -18   2   6   11.00    0.68
 -18   2   6   10.53    1.21
 -18  -2   6   11.25    1.17
 -18  -2   5    1.38    0.38
 -18   2   5    1.21    0.28
  18  -2  -5    0.61    0.14
  18   2  -5    0.69    0.18
 -18  -2   5    1.09    0.59
 -18   2   5    0.64    0.47
 -18  -2   4   23.55    1.22
 -18   2   4   22.02    0.90
 -18   2   4   22.18    1.62
 -18  -2   4   21.08    1.53
 -18  -2   3   18.03    1.07
 -18   2   3   16.41    0.80
 -18   2   3   16.24    1.35
 -18  -2   3   15.17    1.27
 -18  -2   2   38.72    1.60
 -18  -2   2   37.97    1.88
 -18   2   2   42.04    2.07
  18   2  -1   20.92    1.54
 -18  -2   1   19.96    1.16
 -18  -2   1   20.74    1.34
 -18   2   1   17.49    1.33
 -18   2   0    0.36    0.44
  18   2   0    1.43    0.71
 -18  -2   0    0.75    0.39
  18  -2   0    0.49    0.31
  18   2   0    0.59    0.33
 -18  -2   0    0.84    0.39
 -18  -2  -1    0.43    0.38
 -18   2  -1    0.18    0.43
  18  -2   1   -0.55    0.52
  18   2   1    0.32    0.36
  18  -2   1    0.53    0.35
 -18  -2  -1    0.49    0.13
  18   2   1    0.33    0.35
  18   2   2   10.92    0.91
 -18   2  -2   10.89    1.08
  18  -2   2   10.44    1.02
  18  -2   2   10.81    0.96
 -18  -2  -2    9.57    0.56
  18   2   2   11.38    1.04
  18   2   2    9.44    0.88
 -18  -2  -2   10.56    0.93
  18  -2   3    0.86    0.43
 -18  -2  -3    2.07    0.52
 -18   2  -3    1.20    0.50
  18   2   3    1.23    0.41
  18   2   3    2.33    0.62
  18  -2   3    1.69    0.52
  18   2   3    2.68    0.55
  18  -2   4    2.45    0.56
  18   2   4    2.78    0.52
 -18   2  -4    2.31    0.63
 -18  -2  -4    1.14    0.43
  18   2   4    2.77    0.67
  18  -2   4    2.23    0.58
  18  -2   5   -0.10    0.40
 -18   2  -5   -0.07    0.45
  18   2   5   -0.19    0.33
  18   2   5   -0.18    0.50
  18  -2   5   -0.45    0.51
  18  -2   6    1.00    0.55
  18   2   6    1.24    0.63
  18  -2   6    1.45    0.66
  18  -2   7   -0.25    0.51
  18   2   7    0.03    0.59
  18  -2   7    0.22    0.45
 -18   4  10   13.61    1.55
 -18  -4  10   12.81    1.47
 -18   4   9    2.41    0.76
 -18  -4   9    3.38    0.81
 -18   4   8    1.73    0.69
 -18  -4   8    2.79    0.82
 -18  -4   7   49.61    2.54
 -18   4   7   47.62    2.57
  18  -4  -6    1.65    0.30
 -18   4   6    1.60    0.19
  18   4  -6    2.67    0.39
 -18   4   6    0.75    0.51
 -18  -4   6    3.65    0.78
 -18  -4   5    2.62    0.53
  18  -4  -5    2.71    0.29
  18   4  -5    2.79    0.34
 -18  -4   5    3.64    0.74
 -18   4   5    2.80    0.70
  18   4  -4   33.24    0.90
 -18  -4   4   32.14    1.55
 -18   4   4   28.89    1.89
 -18  -4   4   30.79    1.79
 -18  -4   3   32.98    1.57
 -18   4   3   29.37    1.85
 -18  -4   3   32.69    1.76
  18   4  -2   29.61    1.82
 -18  -4   2   30.17    1.53
 -18   4   2   29.17    1.80
 -18  -4   2   30.54    1.65
 -18   4   1    3.27    0.73
  18   4  -1    3.91    0.74
 -18  -4   1    4.33    0.66
 -18  -4   1    2.53    0.54
 -18   4   0    8.55    0.99
  18   4   0    9.40    1.01
  18  -4   0   10.30    0.76
 -18  -4   0    9.63    0.87
 -18  -4  -1    0.96    0.38
 -18   4  -1    2.44    0.64
  18  -4   1    0.41    0.46
  18   4   1    1.33    0.52
 -18   4  -1    1.36    0.18
  18  -4   1    1.28    0.40
 -18  -4  -1    1.12    0.24
 -18  -4  -2    2.29    0.50
  18   4   2    0.88    0.38
 -18   4  -2    0.70    0.46
  18  -4   2    0.67    0.50
  18   4   2    1.66    0.53
  18   4   2    1.42    0.51
 -18  -4  -2    0.93    0.27
  18  -4   2    1.15    0.41
 -18   4  -2    1.08    0.28
  18   4   3   11.71    0.87
 -18   4  -3   11.30    1.15
 -18  -4  -3   11.01    0.85
  18  -4   3   10.38    1.11
  18   4   3   11.96    1.04
  18  -4   3   12.69    1.07
 -18  -4  -3   11.23    0.79
  18   4   3   11.98    1.17
  18   4   3   12.04    0.86
  18  -4   4    0.30    0.43
  18   4   4    0.52    0.32
 -18   4  -4    0.74    0.50
 -18  -4  -4    0.65    0.35
  18   4   4    1.30    0.62
  18  -4   4    0.39    0.42
  18  -4   5   -0.35    0.58
 -18   4  -5    0.96    0.61
  18   4   5    1.15    0.59
  18  -4   5   -0.02    0.41
  18  -4   6    1.25    0.62
  18   4   6    0.60    0.49
  18  -4   6    0.22    0.47
  18  -4   7    0.22    0.56
  18   4   7    1.03    0.57
  18  -4   7    0.50    0.47
 -18  -6  10    2.73    0.80
 -18   6  10    2.40    0.82
 -18  -6   9   23.81    1.94
 -18   6   9   24.28    1.99
  18   6  -8    2.00    0.44
 -18  -6   8    1.62    0.68
 -18   6   8    1.32    0.59
 -18   6   7   97.61    3.85
 -18  -6   7   96.66    3.63
  18   6  -7  106.57    2.78
  18   6  -6    3.50    0.46
 -18   6   6    4.05    0.89
 -18  -6   6    2.29    0.65
  18   6  -5   50.39    1.56
  18  -6  -5   46.55    1.36
 -18   6   5   47.95    2.54
 -18  -6   5   48.21    2.32
  18   6  -4   12.12    0.67
 -18   6   4    9.15    1.19
 -18  -6   4   10.75    1.08
 -18  -6   3   11.16    1.08
 -18   6   3   13.40    1.32
  18   6  -2    6.61    0.91
 -18   6   2    2.65    0.67
 -18  -6   2    5.60    0.73
  18   6  -1    6.51    0.87
 -18   6   1    5.96    0.93
 -18  -6   1    4.19    0.63
 -18   6   0   -0.23    0.46
  18  -6   0   -0.29    0.56
  18   6   0    0.19    0.38
  18  -6   0    0.55    0.28
 -18  -6   0    0.36    0.34
 -18   6  -1    2.61    0.72
  18  -6   1    1.47    0.55
 -18  -6  -1    1.70    0.40
  18   6   1    1.76    0.54
  18  -6   1    1.46    0.39
 -18   6  -1    1.92    0.29
 -18  -6  -1    2.54    0.39
  18   6   2    0.97    0.33
 -18  -6  -2    1.04    0.38
 -18   6  -2    2.63    0.72
  18  -6   2    1.46    0.58
  18   6   2    0.57    0.40
  18  -6   2    2.11    0.48
 -18  -6  -2    1.46    0.37
 -18   6  -2    1.30    0.33
  18   6   3    9.75    0.73
 -18  -6  -3    9.54    0.67
  18  -6   3    9.11    1.10
 -18   6  -3   10.79    1.22
 -18   6  -3   10.70    0.78
  18  -6   3   10.55    0.95
  18   6   3   12.45    1.27
  18  -6   4    1.31    0.63
 -18   6  -4    1.85    0.75
  18   6   4    1.93    0.66
  18  -6   4    0.87    0.45
 -18   6  -5    2.49    0.73
  18  -6   5    2.79    0.80
  18   6   5    1.87    0.64
  18  -6   5    2.72    0.66
  18  -6   6   -0.98    0.70
  18   6   6    0.73    0.59
  18  -6   6   -0.13    0.51
  18  -6   7    0.40    0.66
  18  -6   7    0.00    0.46
  18  -6   8   -1.27    0.87
 -18   8  10   13.02    1.58
 -18  -8   9    6.83    1.25
  18   8  -9    7.60    0.88
 -18  -8   9    6.55    1.11
 -18   8   9    5.72    1.08
  18   8  -8    0.60    0.43
 -18   8   8    1.46    0.80
 -18  -8   8    0.11    0.64
  18   8  -7    7.44    0.75
 -18   8   7    8.42    1.23
 -18  -8   7    8.58    1.13
 -18  -8   6    0.49    0.51
  18   8  -6   -0.04    0.32
  18   8  -5    0.41    0.33
 -18   8   5   -0.10    0.56
 -18  -8   5   -0.39    0.56
  18   8  -4   16.49    0.92
 -18  -8   4   16.82    1.33
 -18   8   4   14.77    1.44
 -18   8   3   36.84    2.16
 -18  -8   3   38.80    1.93
  18   8  -2   30.30    1.78
 -18   8   2   26.25    1.85
 -18  -8   2   32.33    1.64
  18   8  -1    9.61    1.01
  18  -8  -1   11.07    1.16
 -18   8   1   11.37    1.24
 -18  -8   1    9.01    0.85
 -18   8   0    8.52    1.10
  18  -8   0    7.48    1.01
  18   8   0    7.55    0.84
  18  -8   0    7.17    0.58
 -18  -8   0    7.57    0.71
 -18   8  -1    1.83    0.63
  18  -8   1    1.98    0.72
 -18  -8  -1    0.96    0.34
  18   8   1    1.89    0.44
 -18   8  -1    1.28    0.31
  18  -8   1    1.68    0.44
 -18  -8  -1    1.36    0.37
  18  -8   2    1.39    0.57
  18   8   2    1.03    0.30
 -18  -8  -2    1.45    0.31
 -18   8  -2    0.70    0.58
 -18   8  -2    1.01    0.33
  18  -8   2    1.68    0.44
 -18   8  -3    3.66    0.85
  18  -8   3    3.42    0.85
  18  -8   3    3.55    0.60
 -18   8  -3    2.89    0.47
 -18   8  -4    0.86    0.66
  18  -8   4    0.62    0.56
  18   8   4    1.12    0.60
  18  -8   4    0.52    0.42
 -18   8  -4    0.37    0.36
 -18   8  -5    0.27    0.57
  18  -8   5    0.81    0.56
  18   8   5    1.03    0.68
  18  -8   5    0.75    0.44
 -18   8  -5    0.55    0.36
  18  -8   6   -0.34    0.63
  18   8   6    0.98    0.54
  18  -8   6    0.84    0.61
  18  -8   7    0.00    0.64
  18  -8   7    0.74    0.55
  18  10 -10   -0.14    0.54
 -18 -10   9    1.92    0.90
  18  10  -9    1.78    0.51
 -18  10   9    2.00    0.68
 -18 -10   8   55.21    3.24
  18  10  -8   58.04    2.38
 -18  10   8   53.55    2.98
 -18 -10   7    1.34    0.83
  18  10  -7    1.24    0.49
 -18  10   7    0.34    0.56
 -18 -10   7    0.91    0.54
  18  10  -6   36.08    1.68
 -18 -10   6   32.76    2.03
 -18  10   6   34.17    2.27
  18  10  -5   18.57    1.14
 -18 -10   5   17.92    1.48
 -18  10   5   14.83    1.51
 -18  10   4    2.71    0.75
  18  10  -4    2.70    0.46
 -18 -10   4    2.62    0.65
 -18 -10   3   18.39    1.32
 -18  10   3   22.94    1.79
  18  10  -2   22.32    1.53
  18 -10  -2   25.11    1.78
 -18  10   2   20.42    1.72
 -18 -10   2   25.24    1.44
  18  10  -1    3.60    0.65
 -18  10   1    3.69    0.84
  18 -10  -1    3.57    0.71
 -18 -10   1    4.72    0.62
 -18  10   0    1.02    0.68
  18 -10   0    0.60    0.53
  18 -10   0    0.34    0.24
 -18 -10   0   -0.44    0.32
 -18  10  -1    1.07    0.70
  18 -10   1   -0.25    0.56
 -18  10  -1    0.43    0.29
  18 -10   1    0.17    0.27
  18 -10   2    8.67    1.16
 -18  10  -2   12.19    1.40
  18 -10   2   12.22    0.92
 -18  10  -2   13.46    0.95
  18 -10   3   -0.27    0.61
 -18  10  -3    0.95    0.78
  18 -10   3    0.30    0.36
 -18  10  -3    0.53    0.37
  18 -10   4    3.29    0.93
 -18  10  -4    3.67    0.93
  18 -10   4    3.55    0.68
 -18  10  -4    2.11    0.54
 -18  10  -5    0.70    0.58
  18 -10   5    0.21    0.59
  18 -10   5   -0.34    0.46
  18 -10   6    0.80    0.63
  18 -10   6    0.21    0.51
  18 -10   7    0.47    0.52
  18  12  -9    2.26    0.71
 -18 -12   8   36.97    2.69
  18  12  -8   41.20    2.13
 -18  12   8   37.18    2.52
 -18 -12   7   -1.06    0.77
 -18  12   7    1.02    0.72
  18  12  -7    0.33    0.39
 -18 -12   6   39.49    2.59
  18  12  -6   38.24    1.89
 -18  12   6   39.43    2.48
 -18  12   5    2.11    0.73
  18  12  -5    0.83    0.41
 -18 -12   5    0.67    0.56
 -18  12   4    2.21    0.76
  18  12  -4    2.59    0.54
 -18 -12   4    2.15    0.62
 -18  12   3    3.61    0.87
  18 -12  -3    4.08    0.86
 -18 -12   3    4.26    0.71
 -18  12   2    8.08    1.20
  18 -12  -2    6.55    1.01
 -18 -12   2    7.32    0.81
 -18  12   1   -0.56    0.71
  18 -12  -1    1.31    0.66
 -18 -12   1    0.49    0.36
 -18  12   0    0.63    0.70
  18 -12   0    0.39    0.57
 -18  12   0    1.63    0.45
  18 -12   1    1.49    0.66
 -18  12  -1    0.38    0.59
 -18  12  -1    0.90    0.40
 -18  12  -2   10.73    1.36
  18 -12   2   10.46    1.34
 -18  12  -2   10.00    0.91
  18 -12   3    0.35    0.58
 -18  12  -3   -0.94    0.73
 -18  12  -3    0.60    0.36
  18 -12   4    3.11    0.85
 -18  12  -4    3.47    0.94
  18 -12   4    4.80    0.72
  18 -12   5    0.05    0.45
  18 -12   6    1.08    0.60
  18  14  -8    2.84    0.76
 -18  14   7    4.42    1.04
  18  14  -7    4.03    0.76
 -18 -14   7    4.33    1.09
 -18  14   6    1.31    0.65
 -18 -14   6   -0.65    0.74
  18  14  -6    1.01    0.52
 -18  14   5    1.75    0.71
 -18 -14   5    3.25    1.00
  18  14  -5    2.87    0.62
 -18 -14   5    2.52    0.68
 -18  14   4    8.62    1.23
  18 -14  -4    8.29    1.18
  18  14  -4    8.74    0.94
 -18 -14   4    8.95    1.04
  18 -14  -3   17.28    1.58
 -18  14   3   16.50    1.66
 -18 -14   3   18.80    1.37
  18 -14  -2   19.25    1.68
 -18  14   2   21.62    1.88
  18 -14  -1   14.66    1.50
 -18  14   1   12.42    1.46
  18 -14   0    3.71    0.86
 -18  14   0    2.02    0.69
 -18  14  -1    0.29    0.61
  18 -14   1   -0.09    0.52
  18 -14   2    0.57    0.64
 -18  14  -2    1.10    0.63
  18  16  -7   32.75    2.05
 -18 -16   7   32.74    2.58
  18  16  -6    0.91    0.55
 -18 -16   6    1.00    0.85
  18  16  -5    4.28    0.81
 -18 -16   5    6.57    1.22
  18  16  -4    4.88    0.82
 -18 -16   4    6.15    1.16
 -18  16   3   10.58    1.45
  18 -16  -3   11.56    1.40
 -18  16   2    1.86    0.81
  18 -16  -2    2.91    0.81
  18  18  -4    2.59    0.73
 -19   1  10   10.03    1.36
 -19  -1  10    8.17    1.24
 -19  -1   9   17.39    1.70
 -19   1   9   16.07    1.61
 -19   1   8    3.54    0.84
 -19  -1   8    4.31    0.92
 -19  -1   7    0.64    0.54
 -19   1   7    1.54    0.70
 -19  -1   6   75.59    2.27
 -19   1   6   75.04    2.02
 -19  -1   6   73.56    3.09
 -19   1   6   67.34    3.01
  19   1  -6   76.18    1.67
 -19  -1   5    0.91    0.35
 -19   1   5    1.14    0.31
 -19  -1   5    1.62    0.60
 -19   1   5    0.81    0.63
 -19  -1   4  117.67    2.92
 -19   1   4  118.66    2.64
 -19  -1   4  117.88    3.78
 -19   1   4  121.99    3.90
 -19  -1   3    3.84    0.53
 -19   1   3    4.72    0.51
 -19   1   3    3.14    0.72
 -19  -1   3    3.98    0.76
 -19  -1   2   11.86    0.87
 -19   1   2   11.61    0.79
 -19  -1   2   10.49    1.08
 -19   1   2   11.92    1.15
 -19  -1   1    1.49    0.41
 -19  -1   1    1.40    0.48
 -19   1   1    0.02    0.44
 -19  -1   0    6.71    0.81
 -19   1   0    7.25    0.89
  19   1   0    7.77    0.88
  19  -1   1   13.50    1.15
  19   1   1   14.06    1.09
  19  -1   1   12.21    1.02
 -19  -1  -1   13.44    1.10
  19   1   1   11.27    1.01
 -19   1  -1   12.29    1.12
 -19  -1  -2    6.42    0.81
 -19   1  -2    8.15    0.96
  19   1   2    7.42    0.84
  19  -1   2    6.81    0.86
  19   1   2    6.29    0.83
  19  -1   2    7.77    0.88
 -19  -1  -2    5.96    0.41
  19   1   2    5.65    0.77
  19   1   3    0.52    0.35
  19  -1   3    0.58    0.37
 -19  -1  -3    1.10    0.46
 -19   1  -3    1.41    0.52
  19   1   3    0.95    0.50
  19  -1   3    1.16    0.50
  19   1   3    0.43    0.35
  19  -1   4    0.19    0.38
  19   1   4    1.35    1.32
 -19   1  -4    1.94    0.62
 -19  -1  -4    1.02    0.50
  19   1   4    0.52    0.47
  19  -1   4    0.80    0.47
  19  -1   5    0.44    0.43
  19   1   5   -0.18    0.37
  19   1   5   -0.33    0.60
  19  -1   5    1.14    0.62
  19  -1   6    1.18    0.54
  19   1   6    0.61    0.52
  19  -1   6    0.25    0.52
  19   1   7    0.69    0.58
  19  -1   7    0.54    0.53
 -19  -3  10   46.40    2.77
 -19   3  10   44.12    2.74
 -19  -3   9   36.78    2.37
 -19   3   9   35.73    2.41
 -19  -3   8   26.59    1.96
 -19   3   8   26.79    2.01
 -19  -3   7   20.93    1.73
 -19   3   7   18.94    1.65
  19   3  -6    7.77    0.54
 -19  -3   6    8.01    0.79
 -19   3   6    5.14    0.93
 -19  -3   6    6.41    1.00
 -19  -3   5    2.74    0.52
 -19   3   5    2.16    0.31
  19   3  -5    2.88    0.27
 -19  -3   5    4.29    0.84
 -19   3   5    1.89    0.69
 -19  -3   4    1.48    0.40
 -19   3   4    2.12    0.71
 -19  -3   4    0.92    0.48
 -19  -3   3   22.74    1.28
 -19   3   3   19.02    1.50
 -19  -3   3   21.40    1.49
 -19  -3   2    1.85    0.47
 -19  -3   2    1.66    0.55
 -19   3   2    2.16    0.63
 -19   3   1    2.92    0.68
  19   3  -1    5.06    0.88
 -19  -3   1    3.87    0.59
 -19  -3   1    3.67    0.68
  19   3   0   10.24    1.10
  19  -3   0   12.36    0.87
 -19   3   0   12.79    1.22
 -19  -3   0   12.50    1.03
  19  -3   1   10.72    1.06
  19   3   1   12.83    1.19
 -19  -3  -1    9.84    0.42
  19  -3   1   10.31    0.88
 -19   3  -1   11.96    1.17
 -19  -3  -1   11.72    0.96
  19  -3   2   12.45    1.17
  19   3   2   16.75    1.12
 -19   3  -2   13.64    1.22
  19  -3   2   14.04    1.09
 -19   3  -2   14.01    0.61
  19   3   2   13.89    1.17
  19   3   2   14.21    1.06
 -19  -3  -2   14.47    1.06
  19  -3   3    5.52    0.86
 -19  -3  -3    6.22    0.72
 -19   3  -3    6.28    0.91
  19   3   3    6.17    0.72
  19   3   3    6.87    0.92
  19  -3   3    6.63    0.87
  19  -3   4    1.03    0.59
  19   3   4   -0.21    0.34
 -19   3  -4   -0.32    0.47
 -19  -3  -4    0.01    0.36
  19   3   4    0.39    0.49
  19  -3   4    0.06    0.44
 -19   3  -5   -0.30    0.54
  19  -3   5    0.37    0.46
  19   3   5    0.58    0.59
  19  -3   5    0.74    0.54
  19  -3   6    0.00    0.47
  19   3   6    0.90    0.61
  19  -3   6    0.63    0.50
  19  -3   7   -1.01    0.70
  19  -3   7    0.57    0.54
 -19   5  10    6.87    1.19
 -19  -5  10    9.20    1.33
 -19   5   9    7.89    1.21
 -19  -5   9    9.40    1.31
  19   5  -8    8.99    0.81
 -19   5   8    7.41    1.16
 -19  -5   8    8.02    1.15
  19   5  -7    0.11    0.26
 -19  -5   7   -0.31    0.59
  19   5  -6    7.92    0.63
 -19   5   6    7.14    1.09
 -19  -5   6    8.07    1.06
  19   5  -5   96.73    2.09
 -19   5   5   92.58    3.61
 -19  -5   5   92.06    3.36
 -19  -5   4    2.38    0.68
 -19   5   4    4.08    0.85
 -19  -5   3   49.63    2.25
 -19   5   3   48.68    2.44
 -19   5   2    4.23    0.80
 -19  -5   2    4.39    0.72
  19   5  -1    1.73    0.56
 -19   5   1    1.36    0.65
 -19  -5   1    1.49    0.49
 -19   5   0    0.88    0.52
  19  -5   0    1.25    0.50
  19   5   0    1.09    0.49
  19  -5   0    2.13    0.42
 -19  -5   0    1.70    0.47
 -19  -5  -1    6.49    0.71
 -19   5  -1    6.40    0.96
  19  -5   1    6.16    0.89
  19   5   1    5.81    0.79
 -19   5  -1    5.26    0.30
  19  -5   1    6.66    0.68
 -19  -5  -1    5.21    0.44
 -19  -5  -2    1.77    0.42
  19   5   2    2.15    0.47
 -19   5  -2    2.32    0.66
  19  -5   2    1.91    0.62
  19   5   2    2.13    0.56
  19  -5   2    2.69    0.53
 -19   5  -2    2.28    0.33
  19   5   3    0.49    0.33
  19  -5   3    0.20    0.47
 -19   5  -3    0.66    0.62
 -19  -5  -3    0.61    0.36
  19   5   3    1.01    0.61
  19  -5   3    0.72    0.45
 -19   5  -3    0.56    0.38
  19  -5   4    1.37    0.61
 -19   5  -4    0.19    0.51
  19   5   4    0.04    0.54
  19  -5   4    0.00    0.42
  19  -5   5    1.62    0.68
 -19   5  -5    1.66    0.69
  19   5   5    1.57    0.65
  19  -5   5    0.42    0.47
  19  -5   6   -0.69    0.64
  19   5   6    0.83    0.55
  19  -5   6    0.72    0.55
  19  -5   7    0.83    0.74
  19  -5   7    1.66    0.70
 -19   7   9   28.37    2.20
 -19  -7   9   31.91    2.25
 -19   7   8   16.60    1.67
 -19  -7   8   18.12    1.65
  19   7  -8   18.77    1.21
  19   7  -7    1.05    0.38
 -19   7   7    0.42    0.61
 -19  -7   7    0.93    0.64
 -19   7   6    1.98    0.76
 -19  -7   6    1.05    0.57
  19   7  -6    1.78    0.39
  19   7  -5   58.72    1.76
 -19  -7   5   54.28    2.54
 -19   7   5   55.32    2.82
  19   7  -4    1.76    0.32
 -19   7   4    1.18    0.60
 -19  -7   4    3.20    0.72
 -19  -7   3   37.88    1.94
 -19   7   3   33.63    2.10
 -19   7   2   -0.10    0.56
 -19  -7   2    1.13    0.46
  19   7  -1    0.18    0.43
 -19   7   1    0.27    0.53
 -19  -7   1    0.45    0.35
 -19   7   0    9.99    1.17
  19  -7   0    9.21    1.08
  19   7   0   11.03    1.07
  19  -7   0   10.09    0.71
 -19  -7   0   10.70    0.86
 -19  -7  -1    5.80    0.63
 -19   7  -1    5.83    0.98
  19  -7   1    6.38    0.95
 -19   7  -1    6.38    0.47
  19  -7   1    5.34    0.61
  19  -7   2    3.88    0.84
  19   7   2    4.72    0.55
 -19  -7  -2    4.23    0.50
 -19   7  -2    4.03    0.84
 -19   7  -2    4.50    0.51
  19  -7   2    4.25    0.63
 -19   7  -3    2.64    0.73
  19  -7   3    1.97    0.72
  19  -7   3    2.14    0.52
 -19   7  -3    1.34    0.36
 -19   7  -4    1.30    0.69
  19  -7   4    1.04    0.76
  19   7   4    0.61    0.54
  19  -7   4    0.74    0.46
 -19   7  -5    2.32    0.77
  19  -7   5    0.66    0.72
  19   7   5    2.35    0.71
  19  -7   5    1.84    0.65
  19  -7   6    0.52    0.59
  19  -7   6   -0.37    0.59
  19  -7   7    1.61    0.80
  19  -7   7    0.83    0.54
 -19   9   9   21.83    1.99
 -19  -9   9   20.53    1.82
  19   9  -8   14.70    1.15
 -19  -9   8   15.29    1.56
 -19   9   8   17.88    1.85
  19   9  -7    9.69    0.89
 -19  -9   7   11.82    1.32
 -19   9   7   12.56    1.50
  19   9  -6    5.45    0.63
 -19   9   6    6.08    1.02
 -19  -9   6    4.99    0.93
  19   9  -5    0.52    0.30
 -19   9   5    1.05    0.62
 -19  -9   5    0.81    0.58
  19   9  -4   35.58    1.43
 -19   9   4   31.12    2.11
 -19  -9   4   32.09    1.87
 -19   9   3    1.22    0.67
 -19  -9   3    1.22    0.50
 -19   9   2    1.24    0.66
 -19  -9   2    1.57    0.52
  19   9  -1   11.05    1.09
 -19   9   1   10.23    1.25
  19  -9  -1   10.07    1.15
 -19  -9   1   11.64    0.95
 -19   9   0    5.34    0.97
  19  -9   0    4.64    0.91
  19  -9   0    5.48    0.50
 -19  -9   0    6.79    0.66
 -19   9  -1    5.92    1.01
  19  -9   1    4.90    0.93
 -19   9  -1    6.76    0.62
  19  -9   1    6.12    0.64
  19  -9   2    4.90    0.97
 -19   9  -2    3.94    0.93
  19  -9   2    4.90    0.64
  19  -9   3    1.83    0.70
 -19   9  -3    1.71    0.73
  19  -9   3    1.98    0.55
  19  -9   4    0.38    0.54
 -19   9  -4    0.48    0.59
  19  -9   4    0.45    0.39
 -19   9  -5   -0.50    0.54
  19  -9   5   -0.31    0.57
  19  -9   5    0.00    0.49
  19  -9   6    1.23    0.68
  19  -9   6    0.59    0.50
  19  -9   7    0.82    0.55
 -19 -11   8    1.80    0.88
 -19  11   8    1.99    0.76
 -19 -11   8    1.59    0.68
 -19 -11   7   -0.29    0.54
 -19  11   7    0.83    0.86
  19  11  -7    0.24    0.37
  19  11  -6   23.40    1.38
 -19 -11   6   20.44    1.67
 -19  11   6   17.85    1.70
 -19  11   5    1.25    1.12
  19  11  -5    2.87    0.53
 -19 -11   5    2.86    0.73
  19  11  -4   56.47    2.04
 -19 -11   4   54.18    2.46
 -19  11   4   49.28    2.75
 -19  11   3    3.34    0.83
 -19 -11   3    4.73    0.76
  19 -11  -2   29.29    2.02
 -19  11   2   30.20    2.12
 -19 -11   2   31.21    1.64
 -19  11   1   -0.19    0.60
  19 -11  -1    0.17    0.58
 -19 -11   1    0.75    0.37
 -19  11   0    3.27    0.92
  19 -11   0    2.85    0.82
  19 -11   1    3.13    0.85
 -19  11  -1    1.78    0.73
 -19  11  -2    7.47    1.22
  19 -11   2    5.87    1.05
  19 -11   3    0.40    0.59
 -19  11  -3   -1.57    0.76
 -19  11  -4    1.41    0.74
  19 -11   4   -0.45    0.59
  19 -11   5    1.17    0.58
  19 -11   6    1.22    0.66
 -19 -13   7    6.73    1.33
 -19 -13   7    6.40    1.05
 -19  13   6    3.37    0.86
 -19 -13   6    4.03    1.07
  19  13  -6    4.46    0.72
 -19 -13   6    2.50    0.72
 -19  13   5    1.71    0.68
  19  13  -5    2.12    0.55
 -19 -13   5    1.46    0.65
  19 -13  -4   17.50    1.62
  19  13  -4   19.07    1.27
 -19  13   4   17.36    1.66
 -19 -13   4   15.99    1.37
 -19  13   3    0.17    0.57
  19 -13  -3    0.11    0.51
 -19 -13   3    0.11    0.42
 -19  13   2    0.50    0.60
  19 -13  -2   -0.74    0.64
 -19  13   1    1.39    0.67
  19 -13  -1    1.53    0.65
  19 -13   0    6.21    1.04
 -19  13   0    9.69    1.36
  19 -13   1    4.18    0.88
 -19  13  -1    6.67    1.14
 -19  13  -2    1.49    0.66
  19 -13   2    2.11    0.75
 -19 -15   7    0.24    0.74
 -19 -15   6    2.09    0.89
 -19 -15   6    1.24    0.66
 -19 -15   5    8.11    1.17
 -19  15   3    6.85    1.19
  19 -15  -3    7.61    1.21
 -19  15   2    0.84    0.70
  19 -15  -2    1.36    0.69
 -19 -17   6    0.52    1.14
 -20   0   9    0.95    0.66
 -20   0   8    1.85    0.77
 -20   0   7    1.83    0.71
 -20   0   6   35.49    2.19
 -20   0   5    0.13    0.26
 -20   0   5   -0.37    0.61
 -20   0   4    1.49    0.39
 -20   0   4    1.21    0.64
 -20   0   3    0.52    0.31
 -20   0   3    0.53    0.49
 -20   0   2   33.78    1.44
 -20   0   2   37.51    2.02
 -20   0   1    0.03    0.40
 -20   0   0   15.23    1.25
 -20   0  -1    1.25    0.54
  20   0   1    0.57    0.42
 -20   0  -2    1.96    0.54
  20   0   2    0.32    0.39
  20   0   2    0.45    0.41
  20   0   3    0.41    0.44
 -20   0  -3    0.40    0.39
  20   0   3    0.32    0.42
  20   0   4    2.83    0.57
 -20   0  -4    1.88    0.58
  20   0   4    1.78    0.60
  20   0   5    0.17    0.44
  20   0   5   -0.71    0.59
  20   0   6    0.10    0.51
 -20   2   9    6.00    1.07
 -20  -2   9    6.77    1.12
 -20   2   8    7.70    1.20
 -20  -2   8    7.04    1.14
 -20  -2   7   31.97    2.14
 -20   2   7   30.16    2.12
 -20  -2   6   25.87    1.37
 -20  -2   6   23.38    1.79
 -20   2   6   25.57    1.90
 -20  -2   5   18.39    1.17
 -20  -2   5   19.59    1.58
 -20   2   5   19.57    1.64
 -20  -2   4    0.31    0.34
 -20   2   4    0.73    0.26
 -20   2   4    0.76    0.61
 -20  -2   4    0.77    0.52
 -20  -2   3   24.62    1.33
 -20   2   3   26.70    1.82
 -20  -2   3   25.74    1.68
 -20  -2   2    3.14    0.52
 -20  -2   2    3.06    0.67
 -20   2   2    4.19    0.80
 -20   2   1    0.96    0.51
 -20  -2   1    1.69    0.41
 -20  -2   1    1.77    0.55
 -20   2   0    7.44    0.97
 -20  -2   0    6.96    0.83
 -20  -2  -1    1.04    0.50
 -20   2  -1    1.24    0.52
  20  -2   1    1.17    0.52
  20  -2   1    1.36    0.48
  20   2   1   -0.05    0.39
 -20  -2  -2    2.25    0.56
 -20   2  -2    1.79    0.58
  20   2   2    3.30    0.61
  20  -2   2    2.57    0.64
  20   2   2    2.21    0.57
  20  -2   2    2.83    0.58
  20   2   2    1.91    0.53
  20   2   3    3.07    1.34
  20  -2   3    3.20    0.73
 -20  -2  -3    4.00    0.66
 -20   2  -3    2.27    0.64
  20   2   3    3.50    0.72
  20  -2   3    2.57    0.61
  20  -2   4    1.30    0.60
  20   2   4    0.53    0.35
 -20   2  -4    0.18    0.43
 -20  -2  -4    1.39    0.44
  20   2   4    0.47    0.48
  20  -2   4   -0.01    0.45
  20  -2   5    1.11    0.62
 -20   2  -5    0.69    0.52
  20   2   5    0.19    0.48
  20  -2   5   -0.09    0.52
  20  -2   6    0.33    0.48
  20   2   6    1.28    0.64
  20  -2   6   -0.31    0.53
  20  -2   7   -0.21    0.58
 -20   4   9    6.38    1.14
 -20  -4   9    6.27    1.11
 -20   4   8   10.82    1.37
 -20  -4   8   11.56    1.36
 -20   4   7    7.42    1.14
 -20  -4   7   10.08    1.27
 -20   4   6   26.10    1.97
 -20  -4   6   26.65    1.92
 -20   4   5   53.52    2.78
 -20  -4   5   61.71    2.78
 -20   4   4   24.30    1.82
 -20  -4   4   21.91    1.59
 -20   4   3   16.39    1.46
 -20  -4   3   14.78    1.28
 -20  -4   2    1.07    0.47
 -20   4   2    2.89    0.79
 -20  -4   1   18.79    1.32
 -20   4   1   16.44    1.44
  20   4   0    0.18    0.45
 -20   4   0    1.69    0.62
 -20  -4   0    1.13    0.46
 -20  -4  -1    1.08    0.44
 -20   4  -1    2.14    0.72
  20  -4   1    1.43    0.58
  20  -4   1    0.47    0.37
  20   4   1    1.49    0.59
 -20  -4  -2    0.69    0.38
  20   4   2    0.17    0.36
 -20   4  -2    0.43    0.51
  20  -4   2   -0.41    0.51
  20  -4   2    0.10    0.35
  20   4   3    1.04    0.40
  20  -4   3    1.73    0.66
 -20   4  -3    1.55    0.63
 -20  -4  -3    2.11    0.47
  20   4   3    0.71    0.50
  20  -4   3    1.59    0.55
  20  -4   4    3.34    0.75
 -20   4  -4    2.11    0.68
  20   4   4    2.44    0.67
  20  -4   4    4.57    0.82
 -20   4  -5    0.55    0.60
  20  -4   5    1.22    0.72
  20   4   5    0.31    0.50
  20  -4   5    1.12    0.58
  20  -4   6    0.32    0.58
  20   4   6    0.39    0.52
  20  -4   6   -0.18    0.56
  20  -4   7   -0.47    0.54
 -20  -6   9   10.83    1.41
 -20   6   9   11.03    1.44
 -20  -6   8    0.28    0.56
 -20   6   8    0.70    0.87
 -20   6   7    5.79    1.04
 -20  -6   7    5.77    0.99
 -20   6   6    2.53    1.04
 -20  -6   6    4.65    0.91
 -20   6   5    1.14    0.69
 -20  -6   5    1.75    0.69
 -20  -6   4    0.61    0.51
 -20   6   4    2.80    0.80
 -20  -6   3   23.21    1.58
 -20   6   3   20.61    1.70
 -20   6   2    2.58    0.78
 -20  -6   2    0.69    0.44
  20   6  -1   26.69    1.75
 -20  -6   1   28.57    1.56
 -20   6   1   28.69    1.90
 -20   6   0    1.53    0.68
  20  -6   0    0.99    0.49
  20   6   0    0.28    0.45
  20  -6   0    1.60    0.41
 -20  -6   0   -0.21    0.32
 -20  -6  -1    5.52    0.64
 -20   6  -1    7.18    1.03
  20  -6   1    4.94    0.86
  20  -6   1    4.89    0.62
 -20  -6  -2    1.29    0.39
  20   6   2    1.24    0.39
 -20   6  -2    1.02    0.61
  20  -6   2    0.83    0.51
  20  -6   2    0.42    0.34
  20  -6   3   -0.58    0.57
 -20   6  -3    0.67    0.59
  20  -6   3    0.28    0.39
  20  -6   4    0.39    0.56
 -20   6  -4    0.28    0.58
  20   6   4    1.84    0.67
  20  -6   4    1.01    0.77
  20  -6   5    0.03    0.62
 -20   6  -5    1.23    0.65
  20   6   5    0.95    0.57
  20  -6   5    0.38    0.47
  20  -6   6    0.03    0.64
  20  -6   6    0.50    0.49
  20  -6   7    2.36    0.86
  20  -6   7   -0.16    0.55
 -20  -8   9    1.58    0.64
 -20   8   8    8.69    1.26
 -20  -8   8   13.27    1.47
 -20  -8   7   30.32    2.10
 -20   8   7   31.67    2.30
 -20  -8   6   24.39    1.82
 -20   8   6   22.08    1.88
 -20  -8   5   32.84    2.03
 -20   8   5   32.32    2.19
 -20  -8   4   14.85    1.34
 -20   8   4   14.72    1.51
 -20   8   3    3.00    0.81
 -20  -8   3    3.01    0.68
 -20   8   2    4.70    0.93
 -20  -8   2    4.67    0.69
 -20   8   1    5.03    0.93
  20  -8  -1    4.28    0.88
 -20  -8   1    4.12    0.66
 -20   8   0    2.57    0.77
  20  -8   0    0.49    0.52
  20  -8   0    1.06    0.37
 -20  -8   0    1.32    0.40
 -20   8  -1    2.88    0.86
  20  -8   1    2.34    0.72
  20  -8   1    1.90    0.44
  20  -8   2    1.49    0.68
 -20   8  -2    1.46    0.67
  20  -8   2    1.37    0.47
 -20   8  -3    2.32    0.83
  20  -8   3    2.48    0.81
  20  -8   3    2.69    0.60
 -20   8  -4   -0.01    0.57
  20  -8   4   -0.15    0.60
  20  -8   4    0.12    0.47
 -20   8  -5    0.82    0.67
  20  -8   5    1.66    0.81
  20  -8   5    0.59    0.47
  20  -8   6   -0.23    0.55
  20  -8   6    0.54    0.58
  20  -8   7   -0.77    0.62
 -20 -10   8    1.80    0.66
 -20  10   7   13.73    1.55
 -20 -10   7   12.59    1.43
 -20 -10   6   15.96    1.52
 -20  10   6   15.09    1.58
 -20 -10   5    7.70    1.07
 -20  10   5    8.51    1.22
 -20  10   4    1.11    0.66
 -20 -10   4    1.38    0.61
 -20  10   3    0.52    0.59
 -20 -10   3    1.51    0.57
  20 -10  -2   13.12    1.41
 -20  10   2   13.66    1.47
 -20 -10   2   12.00    1.08
 -20  10   1    1.52    0.73
  20 -10  -1    0.59    0.56
 -20 -10   1    0.26    0.43
 -20  10   0   19.49    1.76
  20 -10   0   17.16    1.56
 -20  10  -1    6.19    1.10
  20 -10   1    3.81    0.88
  20 -10   2    2.88    0.85
 -20  10  -2    3.77    0.90
  20 -10   3   -0.03    0.51
 -20  10  -3    2.18    0.84
  20 -10   4    1.64    0.86
 -20  10  -4    1.96    0.88
 -20 -12   8    0.78    0.62
 -20 -12   7    5.72    1.03
 -20  12   6    5.49    1.09
 -20 -12   6    5.36    0.98
 -20  12   5    4.36    0.91
 -20 -12   5    3.55    0.84
 -20  12   4    1.60    0.73
 -20 -12   4    1.36    0.59
 -20  12   3    1.99    0.73
  20 -12  -3    1.01    0.65
 -20 -12   3    0.23    0.41
  20 -12  -2   16.58    1.61
 -20  12   2   19.95    1.80
 -20  12   1    1.85    0.74
  20 -12  -1    1.87    0.72
 -20  12   0    6.96    1.12
  20 -12   0    7.10    1.14
  20 -12   1    3.84    0.90
 -20  12  -1    4.54    1.04
 -20  12  -2    1.77    0.77
  20 -12   2    0.63    0.57
 -20 -14   7   15.17    1.57
 -20 -14   6   26.95    2.01
 -20 -14   5   21.53    1.74
 -20 -14   4    1.26    0.64
 -20  14   2    2.11    0.82
 -21  -1   9    5.64    1.06
 -21   1   9    8.57    1.26
 -21  -1   8   53.90    2.90
 -21   1   8   52.30    2.93
 -21  -1   7    0.42    0.62
 -21   1   7    1.06    0.67
 -21  -1   6    4.19    0.89
 -21   1   6    2.19    0.72
 -21  -1   5   20.60    1.73
 -21   1   5   19.86    1.67
 -21  -1   4   14.93    1.10
 -21   1   4   14.80    1.45
 -21  -1   4   16.36    1.49
 -21   1   3    6.70    0.63
 -21  -1   3    6.96    0.73
 -21  -1   3    6.51    0.96
 -21   1   3    5.53    0.89
 -21  -1   2    2.52    0.49
 -21   1   2    3.89    0.78
 -21  -1   2    2.23    0.67
 -21  -1   1    4.11    0.72
 -21   1   1    4.57    0.81
 -21   1   0    3.77    0.75
 -21  -1   0    3.87    0.69
 -21  -1  -1    0.16    0.44
 -21   1  -1    0.37    0.42
  21  -1   1    0.53    0.42
  21  -1   1    1.23    0.46
 -21  -1  -2    9.21    0.95
 -21   1  -2    9.24    1.04
  21   1   2    7.81    0.91
  21  -1   2    6.68    0.90
  21   1   2    8.38    0.97
  21  -1   2    8.43    0.94
  21   1   3    1.22    0.51
  21  -1   3    1.37    0.50
 -21   1  -3    0.31    0.45
 -21  -1  -3    0.95    0.50
  21   1   3    1.69    0.61
  21  -1   3    1.13    0.51
  21  -1   4    0.66    0.52
  21   1   4    0.84    0.43
 -21   1  -4    0.68    0.48
 -21  -1  -4   -0.22    0.41
  21   1   4    0.51    0.56
  21  -1   4    0.53    0.54
  21  -1   5    0.02    0.51
  21   1   5    0.17    0.50
  21  -1   5    0.92    0.59
  21   1   6    0.00    0.52
  21  -1   6    0.66    0.58
 -21   3   9    7.52    1.25
 -21  -3   9   10.68    1.40
 -21   3   8    1.85    0.77
 -21  -3   8    1.95    0.79
 -21  -3   7    2.69    0.85
 -21   3   7    2.00    0.67
 -21  -3   6    4.07    0.86
 -21   3   6    3.56    0.89
 -21   3   5   12.25    1.38
 -21  -3   5   15.38    1.46
 -21   3   4   22.68    1.75
 -21  -3   4   19.13    1.56
 -21  -3   3   62.08    2.69
 -21   3   3   61.48    2.82
 -21  -3   2   20.92    1.52
 -21   3   2   20.60    1.60
 -21   3   1    5.46    0.91
 -21  -3   1    4.47    0.75
 -21   3   0    0.66    0.52
 -21  -3   0    0.80    0.42
 -21  -3  -1    1.14    0.45
 -21   3  -1    1.17    0.68
  21  -3   1    0.82    0.48
  21  -3   1    1.16    0.44
 -21  -3  -2    1.39    0.48
 -21   3  -2    2.40    0.69
  21   3   2    0.89    1.25
  21  -3   2    0.58    0.48
  21  -3   2    0.96    0.47
  21   3   3    2.54    0.55
  21  -3   3    2.46    0.69
 -21   3  -3    2.67    0.70
 -21  -3  -3    3.02    0.59
  21   3   3    3.68    0.77
  21  -3   3    2.50    0.65
  21  -3   4    0.18    0.47
 -21   3  -4   -0.53    0.52
  21   3   4    0.17    0.49
  21  -3   4    0.95    0.55
  21  -3   5   -0.40    0.58
 -21   3  -5    0.49    0.63
  21   3   5   -0.08    0.52
  21  -3   5    0.18    0.52
  21  -3   6    1.01    0.57
 -21  -5   9   48.54    2.84
 -21   5   8    1.36    0.73
 -21  -5   8    0.79    0.65
 -21   5   7   36.92    2.43
 -21  -5   7   37.96    2.37
 -21  -5   6   -0.30    0.56
 -21   5   6   -0.73    0.68
 -21  -5   5    0.76    0.52
 -21   5   5    1.26    0.60
 -21   5   4    9.34    1.23
 -21  -5   4    9.18    1.13
 -21   5   3    5.52    0.99
 -21  -5   3    4.33    0.79
 -21   5   2    1.09    0.55
 -21  -5   2    1.96    0.58
 -21   5   1    0.56    0.59
 -21  -5   1    0.07    0.37
 -21   5   0    0.01    0.51
  21  -5   0    1.56    0.55
 -21  -5   0    1.21    0.44
 -21   5  -1    8.15    1.11
  21  -5   1    8.49    1.09
  21  -5   1   10.16    0.89
 -21  -5  -1    9.66    0.86
 -21  -5  -2    0.74    0.42
  21   5   2    0.58    0.35
 -21   5  -2    1.21    0.59
  21  -5   2    0.47    0.56
  21  -5   2    0.36    0.34
  21  -5   3    0.16    0.51
 -21   5  -3   -0.48    0.60
  21  -5   3    0.26    0.38
  21  -5   4    1.05    0.56
 -21   5  -4    0.60    0.72
  21   5   4    0.73    0.64
  21  -5   4    0.80    0.52
 -21   5  -5    0.51    0.67
  21  -5   5   -0.22    0.61
  21   5   5    0.27    0.53
  21  -5   5    0.01    0.48
  21  -5   6   -0.14    0.64
  21  -5   6   -0.09    0.51
 -21   7   8    1.28    0.59
 -21  -7   8    0.64    0.59
 -21   7   7   15.37    1.69
 -21  -7   7   16.07    1.58
 -21   7   6    3.41    0.91
 -21  -7   6    2.93    0.77
 -21  -7   5    2.11    0.69
 -21   7   5    3.31    0.87
 -21  -7   4   18.71    1.52
 -21   7   4   18.04    1.67
 -21   7   3   17.42    1.61
 -21  -7   3   17.20    1.38
 -21   7   2    0.68    0.58
 -21  -7   2    2.42    0.57
 -21   7   1    2.00    0.69
  21  -7  -1    2.26    0.71
 -21  -7   1    2.44    0.55
 -21   7   0   -0.29    0.60
  21  -7   0    0.03    0.51
 -21  -7   0   -0.49    0.35
 -21   7  -1    7.61    1.14
  21  -7   1    6.17    0.99
  21  -7   1    5.29    0.65
  21  -7   2    0.75    0.60
 -21   7  -2    0.80    0.63
  21  -7   2    2.14    0.55
 -21   7  -3    2.32    0.79
  21  -7   3    2.76    0.85
  21  -7   3    2.69    0.61
 -21   7  -4   -1.07    0.70
  21  -7   4   -0.45    0.67
  21  -7   4    0.95    0.48
 -21   7  -5   -0.64    0.66
  21  -7   5   -0.33    0.58
  21  -7   5   -0.39    0.57
  21  -7   6    0.59    0.67
  21  -7   6    0.23    0.52
 -21  -9   8   15.57    1.60
 -21   9   7    1.13    0.65
 -21  -9   7    1.36    0.65
 -21  -9   6    0.56    0.64
 -21   9   6   -1.07    0.69
 -21  -9   5   17.57    1.54
 -21   9   5   16.88    1.65
 -21   9   4   14.65    1.56
 -21  -9   4   19.02    1.51
 -21   9   3   17.52    1.65
 -21  -9   3   15.37    1.32
 -21   9   2    9.23    1.25
 -21  -9   2    8.45    0.95
 -21   9   1    1.18    0.64
  21  -9  -1    1.01    0.54
 -21  -9   1    2.33    0.55
 -21   9   0    2.29    0.83
  21  -9   0    2.39    0.76
 -21   9  -1    1.07    0.72
  21  -9   1    0.51    0.66
  21  -9   2    0.63    0.53
 -21   9  -2    2.54    0.77
 -21   9  -3    0.02    0.56
  21  -9   3    0.29    0.62
  21  -9   4    0.30    0.59
 -21   9  -4   -0.12    0.60
 -21 -11   8   35.55    2.43
 -21 -11   7   -0.42    0.61
 -21  11   6    9.88    1.40
 -21 -11   6    7.24    1.08
 -21  11   5    0.87    0.54
 -21 -11   5    1.67    0.70
 -21  11   4    4.71    1.02
 -21 -11   4    1.75    0.63
 -21  11   3    0.31    0.51
  21 -11  -3    0.63    0.59
 -21 -11   3    1.25    0.58
 -21  11   2    2.78    0.82
  21 -11  -2    4.51    0.90
 -21  11   1    1.88    0.73
  21 -11  -1    0.95    0.58
 -21  11   0   -1.00    0.64
  21 -11   0    0.87    0.60
  21 -11   1    1.91    0.71
 -21  11  -1    3.22    0.86
 -21  11  -2    7.94    1.25
  21 -11   2    8.07    1.19
 -21 -13   7    0.04    0.62
 -21 -13   6    0.17    0.64
 -21 -13   5   11.13    1.30
 -21 -13   4    4.41    0.84
 -22   0   8    6.16    1.09
 -22   0   7    0.49    0.53
 -22   0   6   68.25    3.20
 -22   0   5    0.84    0.64
 -22   0   4   18.42    1.64
 -22   0   3   -0.01    0.48
 -22   0   2   -0.11    0.51
 -22   0   1    0.00    0.44
 -22   0   0    8.05    1.00
 -22   0  -1    0.59    0.42
  22   0   1    1.08    0.52
 -22   0  -2    0.22    0.45
  22   0   2    2.57    0.65
  22   0   2    1.89    0.56
  22   0   3   -0.65    0.47
 -22   0  -3    0.87    0.53
  22   0   3    0.38    0.47
  22   0   4    1.06    0.54
 -22   0  -4    0.42    0.50
  22   0   4    1.47    0.64
  22   0   5    0.29    0.51
  22   0   6    0.12    0.53
 -22  -2   8    0.31    0.57
 -22   2   8    0.79    0.56
 -22  -2   7   -0.22    0.61
 -22   2   7    2.05    0.75
 -22   2   6   16.05    1.65
 -22  -2   6   16.19    1.59
 -22   2   5    1.83    0.75
 -22  -2   5    2.74    0.79
 -22   2   4    4.98    0.97
 -22  -2   4    4.85    0.92
 -22   2   3    0.10    0.52
 -22  -2   3    0.56    0.50
 -22   2   2   10.71    1.19
 -22  -2   2    8.78    1.06
 -22   2   1    2.35    0.68
 -22  -2   1    2.00    0.58
 -22   2   0    7.75    1.20
 -22  -2   0    7.71    0.91
 -22  -2  -1    2.81    0.62
 -22   2  -1    3.41    0.82
  22  -2   1    2.84    0.71
 -22  -2  -2    0.86    0.47
  22   2   2    0.76    0.41
  22  -2   2    0.40    0.45
  22  -2   2    0.29    0.40
  22   2   3    1.40    0.54
  22  -2   3    0.33    0.49
 -22   2  -3    0.80    0.50
 -22  -2  -3    1.31    0.51
  22   2   3    0.48    0.55
  22  -2   3    0.04    0.41
  22  -2   4    0.02    0.54
 -22   2  -4    0.26    0.48
  22   2   4    0.14    0.48
  22  -2   4    0.91    0.58
  22  -2   5    0.55    0.60
  22   2   5    0.11    0.53
  22  -2   5    0.21    0.48
  22  -2   6    0.50    0.86
 -22  -4   8    7.64    1.18
 -22   4   8    7.27    1.22
 -22   4   7    4.37    0.97
 -22  -4   7    4.25    0.94
 -22  -4   6    1.33    0.64
 -22   4   6    0.82    0.66
 -22   4   5   26.11    2.04
 -22  -4   5   28.75    2.00
 -22   4   4    0.14    0.59
 -22  -4   4    2.30    0.68
 -22   4   3    0.56    0.60
 -22  -4   3    1.06    0.59
 -22   4   2    4.39    0.85
 -22  -4   2    3.56    0.70
 -22   4   1    9.81    1.19
 -22  -4   1   10.64    1.07
 -22   4   0    4.47    0.88
  22  -4   0    5.38    0.88
 -22  -4   0    4.63    0.71
 -22  -4  -1    2.47    0.57
 -22   4  -1    0.73    0.54
  22  -4   1    1.73    0.69
  22  -4   1    1.34    0.45
 -22   4  -2   -0.01    0.57
  22   4   2    1.20    0.43
  22  -4   2    1.94    0.64
  22  -4   2    1.11    0.44
  22  -4   3    1.42    0.64
 -22   4  -3    1.54    0.69
  22  -4   3    0.33    0.48
  22  -4   4    0.23    0.56
 -22   4  -4    0.23    0.54
  22   4   4    0.34    0.48
  22  -4   4    0.28    0.52
 -22   4  -5    0.09    0.61
  22  -4   5    0.93    0.68
  22   4   5    1.32    0.64
  22  -4   5    0.89    0.59
  22  -4   6    1.56    0.73
 -22  -6   8    2.10    0.77
 -22   6   7   21.11    1.91
 -22  -6   7   18.11    1.70
 -22  -6   6   -0.02    0.57
 -22   6   6    0.85    0.56
 -22   6   5   50.09    2.80
 -22  -6   5   53.24    2.70
 -22   6   4    1.68    0.73
 -22  -6   4    0.63    0.65
 -22  -6   3    8.75    1.09
 -22   6   3    8.35    1.20
 -22   6   2    1.82    0.75
 -22  -6   2    2.90    0.67
 -22   6   1    5.42    0.99
 -22  -6   1    3.67    0.65
 -22   6   0    1.49    0.67
  22  -6   0    2.35    0.68
 -22  -6   0    1.83    0.53
 -22   6  -1    2.33    0.75
  22  -6   1    1.59    0.96
  22  -6   1    2.02    0.49
  22  -6   2   -0.32    0.56
 -22   6  -2    0.66    0.67
  22  -6   2    0.10    0.36
 -22   6  -3   -0.02    0.55
  22  -6   3   -0.07    0.55
  22  -6   3   -0.02    0.42
  22  -6   4   -0.45    0.61
 -22   6  -4    0.11    0.61
  22  -6   4    0.96    0.56
 -22   6  -5    0.82    0.65
  22  -6   5    0.50    0.63
  22  -6   5    0.76    0.61
  22  -6   6    0.91    0.86
  22  -6   6    0.62    0.61
 -22  -8   8    5.75    1.08
 -22   8   7    5.36    1.15
 -22  -8   7    5.26    1.03
 -22   8   6    0.50    0.65
 -22  -8   6    0.78    0.67
 -22  -8   5    3.76    1.07
 -22   8   5    5.82    1.08
 -22   8   4    0.03    0.54
 -22  -8   4    1.77    0.70
 -22   8   3    0.98    0.67
 -22  -8   3    0.54    0.51
 -22   8   2    2.93    0.86
 -22  -8   2    3.67    0.70
 -22   8   1    8.41    1.24
  22  -8  -1    6.68    0.99
 -22  -8   1    5.91    0.77
 -22   8   0    4.53    1.00
  22  -8   0    6.22    0.98
 -22   8  -1    2.15    0.85
  22  -8   1    1.19    0.64
  22  -8   2    1.24    0.69
 -22   8  -2    1.81    0.77
 -22   8  -3    0.39    0.58
  22  -8   3    0.58    0.59
  22  -8   4    0.84    0.55
 -22   8  -4    0.26    0.54
 -22 -10   7    1.36    0.68
 -22 -10   6   30.46    2.14
 -22  10   5   -0.15    0.51
 -22 -10   5    0.37    0.56
 -22  10   4   12.48    1.53
 -22 -10   4   10.51    1.21
 -22  10   3    6.73    1.19
 -22 -10   3    6.58    0.92
 -22  10   2    1.38    0.72
  22 -10  -2    1.73    0.68
 -22  10   1    2.22    0.74
  22 -10  -1    2.69    0.76
 -22  10   0    7.41    1.18
  22 -10   0    6.46    1.08
  22 -10   1    0.54    0.59
 -22  10  -1   -0.66    0.69
  22 -10   2   -0.43    0.62
 -22  10  -2    2.03    0.89
 -22 -12   7    0.32    0.54
 -22 -12   6   21.57    1.84
 -22 -12   5    0.75    0.67
 -22 -12   4   17.74    1.53
 -23  -1   8    5.99    1.13
 -23   1   8    5.86    1.14
 -23  -1   7    7.15    1.19
 -23   1   7    7.50    1.20
 -23  -1   6    2.57    0.90
 -23   1   6    3.78    0.96
 -23   1   5   -0.41    0.68
 -23  -1   5    0.31    0.57
 -23  -1   4   26.11    1.93
 -23   1   4   27.58    2.00
 -23   1   3    0.10    0.64
 -23  -1   3    1.75    0.69
 -23  -1   2   20.06    1.57
 -23   1   2   21.30    1.67
 -23  -1   1    1.32    0.58
 -23   1   1    2.00    0.63
 -23  -1   0    0.34    0.43
 -23   1   0    0.61    0.53
 -23  -1  -1    0.86    0.53
 -23   1  -1    0.01    0.48
  23   1   1    0.22    0.47
  23  -1   1    0.00    0.47
 -23  -1  -2    1.51    0.56
 -23   1  -2    0.97    0.55
  23   1   2    2.16    0.62
  23  -1   2    1.16    0.58
  23  -1   2    1.48    0.58
  23   1   3    0.64    0.48
  23  -1   3    0.06    0.47
 -23   1  -3    0.85    0.54
  23   1   3    1.66    0.66
  23  -1   3    2.13    0.66
  23  -1   4    0.00    0.50
  23   1   4    1.39    0.60
  23  -1   4   -0.12    0.50
  23   1   5    1.26    0.64
  23  -1   5    0.40    0.55
 -23  -3   8   30.53    2.29
 -23   3   7   21.36    1.95
 -23  -3   7   23.21    1.96
 -23   3   6   14.08    1.56
 -23  -3   6   13.04    1.45
 -23   3   5    6.35    1.08
 -23  -3   5    7.64    1.14
 -23   3   4    0.87    0.59
 -23  -3   4    1.71    0.66
 -23   3   3   -0.42    0.60
 -23  -3   3   -0.24    0.56
 -23   3   2    2.07    0.70
 -23  -3   2    1.00    0.52
 -23   3   1    6.02    1.01
 -23  -3   1    6.41    0.86
 -23  -3   0    1.58    0.56
 -23   3   0    1.50    0.63
  23  -3   0    1.13    0.69
  23   3   1    2.44    0.58
 -23  -3  -1    1.17    0.50
 -23   3  -1    0.68    0.55
  23  -3   1    1.37    0.64
 -23   3  -2    2.45    0.76
  23   3   2    0.81    0.43
  23  -3   2    0.63    0.55
  23  -3   2    1.45    0.54
  23  -3   3    0.56    0.55
 -23   3  -3    0.58    0.59
  23  -3   3   -0.26    0.44
  23  -3   4    0.50    0.61
 -23   3  -4    1.08    0.64
  23   3   4    0.30    0.53
  23  -3   4    0.47    0.54
  23  -3   5    1.24    0.61
 -23  -5   8    3.46    0.95
 -23  -5   7    6.83    1.16
 -23   5   7    4.89    1.09
 -23  -5   6    4.71    0.99
 -23   5   6    5.70    1.13
 -23   5   5    1.83    0.80
 -23  -5   5    0.05    0.60
 -23   5   4    1.78    0.74
 -23  -5   4    1.78    0.69
 -23   5   3   17.08    1.63
 -23  -5   3   18.11    1.52
 -23   5   2    2.55    0.84
 -23  -5   2    2.27    0.69
 -23   5   1    2.58    0.77
 -23  -5   1    4.31    0.77
 -23   5   0    1.10    0.64
  23  -5   0    1.89    0.71
 -23  -5   0    1.36    0.47
 -23   5  -1    0.72    0.67
  23  -5   1    0.28    0.59
  23  -5   2    0.19    0.55
 -23   5  -2    0.92    0.58
  23  -5   2    0.20    0.39
  23  -5   3    1.32    0.67
 -23   5  -3    1.07    0.70
  23  -5   3    0.55    0.52
  23  -5   4   -0.33    0.56
 -23   5  -4    0.87    0.68
  23  -5   4    0.17    0.52
  23  -5   5    0.08    0.66
 -23   5  -5    0.44    0.64
  23  -5   5    1.93    0.62
 -23  -7   7   18.14    1.75
 -23  -7   6    8.84    1.26
 -23   7   6    7.94    1.22
 -23   7   5    1.74    0.74
 -23  -7   5    1.02    0.67
 -23  -7   4    0.03    0.50
 -23   7   4    0.99    0.60
 -23   7   3   13.28    1.47
 -23  -7   3   14.29    1.35
 -23   7   2    2.67    0.84
 -23  -7   2    2.52    0.65
 -23   7   1    5.01    1.00
  23  -7  -1    3.76    0.83
 -23  -7   1    4.48    0.73
 -23   7   0   -0.02    0.56
  23  -7   0    1.07    0.62
 -23   7  -1    0.79    0.64
  23  -7   1   -1.35    0.69
  23  -7   2    0.19    0.53
 -23   7  -2    0.50    0.53
 -23   7  -3    0.02    0.56
  23  -7   3    0.20    0.55
 -23   7  -4    1.02    0.73
  23  -7   4   -0.16    0.58
 -23  -9   7    9.09    1.31
 -23  -9   6    7.89    1.23
 -23  -9   5    2.33    0.83
 -23   9   4    2.68    0.90
 -23  -9   4    0.62    0.56
 -23   9   3    2.21    0.83
 -23  -9   3    0.49    0.54
 -23   9   2    6.49    1.13
  23  -9  -2    7.30    1.11
 -23   9   1    1.46    0.75
  23  -9  -1    2.05    0.70
 -23   9   0    2.11    0.82
  23  -9   0    0.53    0.52
 -23   9  -1    1.44    0.73
  23  -9   1   -1.07    0.63
  23  -9   2    1.65    0.67
 -23   9  -2    1.06    0.65
 -23 -11   7   -0.53    0.61
 -23 -11   6   -0.04    0.59
 -23 -11   5    0.60    0.67
 -23 -11   4    7.45    1.10
 -24   0   7   -0.75    0.73
 -24   0   6    0.46    0.67
 -24   0   5   -0.07    0.60
 -24   0   4   10.89    1.33
 -24   0   3   -0.27    0.59
 -24   0   2    1.61    0.68
 -24   0   1   -0.13    0.51
 -24   0   0    5.69    0.90
 -24   0  -1    1.36    0.58
  24   0   1    1.03    0.55
 -24   0  -2    0.33    0.48
  24   0   2    1.02    0.54
  24   0   3    0.35    0.47
  24   0   3    1.35    0.67
  24   0   4   -0.91    0.56
 -24  -2   7    2.71    0.79
 -24   2   7    2.49    0.87
 -24   2   6    6.40    1.15
 -24  -2   6    5.51    1.00
 -24   2   5    7.96    1.26
 -24  -2   5    9.05    1.26
 -24   2   4    8.80    1.24
 -24  -2   4    7.63    1.18
 -24   2   3    0.82    0.56
 -24  -2   3    0.54    0.52
 -24   2   2   -0.09    0.54
 -24  -2   2    1.75    0.68
 -24   2   1    2.23    0.76
 -24  -2   1    3.35    0.77
 -24  -2   0    0.66    0.53
 -24   2   0    1.31    0.67
  24  -2   0    1.95    0.63
 -24  -2  -1    0.45    0.46
 -24   2  -1   -0.32    0.57
  24   2   1   -0.16    0.43
  24  -2   1    0.95    0.57
 -24   2  -2    0.33    0.54
  24   2   2    1.12    0.49
  24  -2   2    1.54    0.63
  24  -2   2    1.58    0.58
  24  -2   3    0.21    0.53
 -24   2  -3   -0.03    0.58
  24  -2   3    0.31    0.52
  24   2   4    0.45    0.55
  24  -2   4   -0.39    0.55
  24  -2   5    0.06    0.55
 -24  -4   7    1.38    0.80
 -24  -4   6    4.63    1.03
 -24   4   6    2.96    0.90
 -24   4   5    5.74    1.07
 -24  -4   5    4.19    0.96
 -24   4   4    6.31    1.09
 -24  -4   4    5.82    1.04
 -24   4   3   13.70    1.51
 -24  -4   3   15.46    1.44
 -24   4   2    0.50    0.54
 -24  -4   2    2.62    0.69
 -24   4   1    4.91    0.98
 -24  -4   1    2.92    0.67
 -24  -4   0    0.34    0.43
 -24   4   0    0.94    0.69
  24  -4   0    1.92    0.80
  24   4   1    2.94    0.64
 -24   4  -1    1.70    0.75
  24  -4   1    3.89    0.88
 -24   4  -2    1.49    0.70
  24  -4   2    0.44    0.54
  24  -4   3    0.37    0.57
 -24   4  -3   -0.70    0.58
  24  -4   3    0.30    0.46
  24  -4   4    0.31    0.61
 -24   4  -4    0.29    0.70
  24  -4   4    0.23    0.60
  24  -4   5    0.43    0.62
 -24  -6   7    3.24    0.86
 -24  -6   6    0.35    0.64
 -24  -6   5    3.05    0.87
 -24   6   5    3.69    0.88
 -24   6   4    0.63    0.63
 -24  -6   4    0.84    0.64
 -24   6   3    1.32    0.69
 -24  -6   3    0.93    0.60
 -24   6   2    1.28    0.65
 -24  -6   2   -0.08    0.44
 -24   6   1    3.37    0.87
  24  -6  -1    2.67    0.78
 -24  -6   1    3.58    0.73
 -24   6   0    1.34    0.70
  24  -6   0    0.46    0.57
 -24   6  -1    3.23    0.88
  24  -6   1    2.56    0.85
  24  -6   2    1.24    0.67
 -24   6  -2   -0.80    0.70
 -24   6  -3    0.43    0.64
  24  -6   3    0.33    0.52
 -24   6  -4   -0.45    0.58
  24  -6   4    0.08    0.69
 -24  -8   7    1.01    0.67
 -24  -8   6    4.32    0.98
 -24  -8   5   10.92    1.37
 -24   8   4    5.45    1.05
 -24  -8   4    4.93    0.96
 -24   8   3    5.98    1.06
 -24  -8   3    5.00    0.89
 -24   8   2    1.49    0.73
  24  -8  -2    1.28    0.67
 -24   8   1    2.10    0.79
  24  -8  -1    1.74    0.67
 -24   8   0    1.39    0.72
  24  -8   0    3.50    0.83
 -24   8  -1   -0.02    0.50
  24  -8   1    1.84    0.79
 -24   8  -2   -0.57    0.72
 -24 -10   6    1.63    0.72
 -24 -10   5    5.51    1.11
 -24 -10   4    6.74    1.09
 -25  -1   6   25.33    2.09
 -25   1   6   22.97    2.01
 -25  -1   5    1.72    0.74
 -25   1   5   -0.71    0.64
 -25   1   4    0.80    0.63
 -25  -1   4   -1.03    0.66
 -25   1   3    4.02    0.86
 -25  -1   3    5.62    1.02
 -25   1   2    5.64    0.98
 -25  -1   2    5.86    1.03
 -25   1   1    1.20    0.70
 -25  -1   1    1.97    0.73
 -25  -1   0    1.12    0.55
 -25   1   0    1.66    0.70
  25  -1   0    1.94    0.70
 -25  -1  -1    0.37    0.52
 -25   1  -1    0.34    0.51
  25   1   1   -0.21    0.48
  25  -1   1    0.27    0.49
 -25   1  -2   -0.07    0.58
  25  -1   2    0.10    0.50
  25  -1   3   -0.40    0.57
  25   1   4    1.08    0.61
  25  -1   4   -0.78    0.54
 -25  -3   7    4.77    1.04
 -25   3   6    1.32    0.71
 -25  -3   6    1.85    0.78
 -25   3   5    0.47    0.61
 -25  -3   5    2.37    0.88
 -25  -3   4    2.16    0.78
 -25   3   4    2.78    0.87
 -25  -3   3    1.04    0.69
 -25   3   3    1.26    0.68
 -25   3   2    2.74    0.83
 -25  -3   2    2.38    0.72
 -25   3   1    9.62    1.33
 -25  -3   1   10.52    1.15
 -25  -3   0    2.20    0.62
 -25   3   0    3.34    0.87
  25  -3   0    3.18    0.84
 -25   3  -1    0.30    0.54
  25  -3   1    1.31    0.62
 -25   3  -2    0.63    0.69
  25  -3   2   -0.40    0.58
  25  -3   3    0.53    0.60
 -25   3  -3    0.24    0.63
 -25  -5   7   26.06    2.17
 -25  -5   6    1.02    0.70
 -25   5   5    9.15    1.30
 -25  -5   5    9.91    1.31
 -25  -5   4   -0.57    0.61
 -25   5   4    0.71    0.52
 -25   5   3   -0.01    0.54
 -25  -5   3    0.56    0.59
 -25   5   2    3.07    0.85
 -25  -5   2    1.68    0.65
 -25   5   1    1.75    0.71
  25  -5  -1    1.52    0.67
 -25  -5   1    0.92    0.53
 -25   5   0    0.25    0.59
  25  -5   0    1.78    0.72
 -25   5  -1    0.04    0.57
  25  -5   1    0.75    0.64
  25  -5   2    0.54    0.59
 -25   5  -2   -0.48    0.58
 -25   5  -3    0.36    0.61
  25  -5   3    1.48    0.59
 -25  -7   6    0.75    0.67
 -25  -7   5    5.97    1.09
 -25  -7   4    0.30    0.61
 -25   7   3    1.19    0.70
 -25  -7   3    1.02    0.67
 -25   7   2    3.00    0.87
 -25   7   1    4.49    1.01
  25  -7  -1    4.73    1.00
 -25   7   0    0.95    0.62
  25  -7   0    0.29    0.57
 -25   7  -1    1.99    0.79
 -25  -9   6    6.47    1.18
 -25  -9   5    0.63    0.72
 -25  -9   4   -0.20    0.64
 -26   0   5    0.18    0.54
 -26   0   4   14.91    1.59
 -26   0   3    0.04    0.56
 -26   0   2    3.21    0.89
 -26   0   1    0.10    0.57
 -26   0   0   -0.17    0.55
  26   0   0   -0.73    0.60
 -26   0  -1    0.47    0.60
  26   0   1    0.14    0.50
 -26  -2   6    0.84    0.60
 -26   2   5    0.10    0.59
 -26  -2   5    0.45    0.64
 -26  -2   4    5.48    1.06
 -26   2   4    4.31    0.95
 -26  -2   3    1.45    0.70
 -26   2   3    1.10    0.67
 -26   2   2   -0.73    0.62
 -26  -2   2    0.99    0.68
 -26   2   1    1.08    0.72
 -26  -2   1    0.59    0.59
 -26  -2   0    1.70    0.67
 -26   2   0    0.93    0.61
  26  -2   0    1.39    0.66
 -26   2  -1    0.70    0.65
  26  -2   1    1.00    0.57
 -26   2  -2    1.17    0.73
  26  -2   2    0.00    0.56
 -26  -4   6    0.92    0.61
 -26  -4   5    2.77    0.87
 -26   4   4    1.12    0.72
 -26  -4   4   -0.47    0.65
 -26   4   3    4.89    0.99
 -26  -4   3    6.11    1.08
 -26   4   2    1.15    0.65
 -26  -4   2    0.39    0.63
 -26   4   1    0.66    0.59
  26  -4  -1    0.70    0.61
 -26  -4   1    0.47    0.54
 -26   4   0    0.38    0.54
  26  -4   0    0.92    0.67
 -26   4  -1    0.06    0.49
  26  -4   1    1.96    0.76
  26  -4   2    0.59    0.58
 -26   4  -2    0.17    0.54
 -26  -6   6    1.70    0.73
 -26  -6   5    5.81    1.14
 -26  -6   4    0.01    0.62
 -26  -6   3    5.96    1.04
 -26   6   1    0.64    0.62
 -26   6   0   -0.38    0.61
 -26  -8   6    1.33    0.80
 -26  -8   5    0.89    0.69
 -27  -1   5    1.85    0.83
 -27  -1   4    0.30    0.55
 -27   1   4    1.54    0.78
 -27  -1   3   -0.74    0.59
 -27   1   3   -0.34    0.55
 -27  -1   2    5.69    1.03
 -27   1   2    5.80    1.08
 -27  -1   1    1.07    0.70
 -27   1   1   -0.23    0.55
 -27   1   0    3.95    0.94
  27   1   0    2.86    1.16
  27  -1   0    1.96    0.84
  27  -1   1   -0.25    0.60
 -27  -3   5    4.85    1.01
 -27  -3   4    0.91    0.65
 -27   3   3    2.02    0.83
 -27  -3   3    1.51    0.67
 -27   3   2    2.89    0.78
 -27  -3   2    0.20    0.57
 -27   3   1    0.55    0.55
  27  -3  -1    1.01    0.73
 -27   3   0    0.51    0.62
  27  -3   0    0.30    0.57
 -27   3  -1    1.41    0.75
  27  -3   1    0.32    0.57
 -27  -5   5    1.11    0.69
 -27  -5   4    0.65    0.63
 -27  -5   3   -1.21    0.67
 -27  -7   5    3.29    0.99
 -28   0   3   -0.28    0.62
 -28   0   2    0.00    0.51
 -28   0   1    0.20    0.58
  28   0   0    0.46    0.59
 -28  -2   4   -0.11    0.64
 -28  -2   3    1.92    0.77
 -28  -2   2    2.76    0.86
 -28   2   1    0.28    0.58
 -28   2   0    1.16    0.75
 -28  -4   4   -0.20    0.74
 -28  -4   3    2.35    0.88
   0   0   0    0.00    0.00


TITL vvm-110_auto in C2/m
REM C2/m (#12 in standard setting)
CELL 0.71073  21.097750  18.060722  10.511310  90.0000 101.6553  90.0000
ZERR   55.00   0.000949   0.000501   0.000512   0.0000   0.0047   0.0000
LATT  7
SYMM -x, y,-z
SFAC C H N O Cd
UNIT 55.00 55.00 55.00 55.00 55.00
REM  CrysAlisPro recorded range (K): Min=290.3; max=290.6; aver:290.5
TEMP 17
TREF
HKLF 4
END
_computing_structure_solution     'SHELXT 2018/2 (Sheldrick, 2018)'
;
_shelx_hkl_checksum     658

