 
data_VT-15_4
 
_audit_creation_method            'SHELXL-2018/3'
_shelx_SHELXL_version_number      '2018/3'
_chemical_name_systematic         ?
_chemical_name_common             ?
_chemical_melting_point           ?
_chemical_formula_moiety          ?
_chemical_formula_sum
 'C2.78 H1.57 N1.39 O1.04 S0.17 Zn0.17' 
_chemical_formula_weight          88.13

loop_
 _atom_type_symbol
 _atom_type_description
 _atom_type_scat_dispersion_real
 _atom_type_scat_dispersion_imag
 _atom_type_scat_source
 'C'  'C'   0.0033   0.0016
 'International Tables Vol C Tables 4.2.6.8 and 6.1.1.4'
 'N'  'N'   0.0061   0.0033
 'International Tables Vol C Tables 4.2.6.8 and 6.1.1.4'
 'O'  'O'   0.0106   0.0060
 'International Tables Vol C Tables 4.2.6.8 and 6.1.1.4'
 'Zn'  'Zn'   0.2839   1.4301
 'International Tables Vol C Tables 4.2.6.8 and 6.1.1.4'
 'S'  'S'   0.1246   0.1234
 'International Tables Vol C Tables 4.2.6.8 and 6.1.1.4'
 'H'  'H'   0.0000   0.0000
 'International Tables Vol C Tables 4.2.6.8 and 6.1.1.4'
 
_space_group_crystal_system       monoclinic
_space_group_IT_number            14
_space_group_name_H-M_alt         'P 21/n'
_space_group_name_Hall            '-P 2yn'
 
_shelx_space_group_comment
;
The symmetry employed for this shelxl refinement is uniquely defined
by the following loop, which should always be used as a source of
symmetry information in preference to the above space-group names.
They are only intended as comments.
;
 
loop_
 _space_group_symop_operation_xyz
 'x, y, z'
 '-x+1/2, y+1/2, -z+1/2'
 '-x, -y, -z'
 'x-1/2, -y-1/2, z-1/2'
 
_cell_length_a                    8.2650(2)
_cell_length_b                    15.7132(3)
_cell_length_c                    14.3949(3)
_cell_angle_alpha                 90
_cell_angle_beta                  101.9660(10)
_cell_angle_gamma                 90
_cell_volume                      1828.84(7)
_cell_formula_units_Z             23
_cell_measurement_temperature     150(2)
_cell_measurement_reflns_used     ?
_cell_measurement_theta_min       ?
_cell_measurement_theta_max       ?
 
_exptl_crystal_description        ?
_exptl_crystal_colour             ?
_exptl_crystal_density_meas       ?
_exptl_crystal_density_method     ?
_exptl_crystal_density_diffrn     1.840          
_exptl_crystal_F_000              1020
_exptl_transmission_factor_min    ?
_exptl_transmission_factor_max    ?
_exptl_crystal_size_max           ?
_exptl_crystal_size_mid           ?
_exptl_crystal_size_min           ?
_exptl_absorpt_coefficient_mu     1.516
_shelx_estimated_absorpt_T_min    ?
_shelx_estimated_absorpt_T_max    ?
_exptl_absorpt_correction_type    ?
_exptl_absorpt_correction_T_min   ?
_exptl_absorpt_correction_T_max   ?
_exptl_absorpt_process_details    ?
_exptl_absorpt_special_details    ?
_diffrn_ambient_temperature       150(2)
_diffrn_radiation_wavelength      0.71073
_diffrn_radiation_type            MoK\a
_diffrn_source                    ?
_diffrn_measurement_device_type   ?
_diffrn_measurement_method        ?
_diffrn_detector_area_resol_mean  ?
_diffrn_reflns_number             20823
_diffrn_reflns_av_unetI/netI      0.0680
_diffrn_reflns_av_R_equivalents   0.0465
_diffrn_reflns_limit_h_min        -12
_diffrn_reflns_limit_h_max        12
_diffrn_reflns_limit_k_min        -24
_diffrn_reflns_limit_k_max        24
_diffrn_reflns_limit_l_min        -22
_diffrn_reflns_limit_l_max        19
_diffrn_reflns_theta_min          1.942
_diffrn_reflns_theta_max          33.157
_diffrn_reflns_theta_full         25.242
_diffrn_measured_fraction_theta_max   0.997
_diffrn_measured_fraction_theta_full  1.000
_diffrn_reflns_Laue_measured_fraction_max    0.997
_diffrn_reflns_Laue_measured_fraction_full   1.000
_diffrn_reflns_point_group_measured_fraction_max   0.997
_diffrn_reflns_point_group_measured_fraction_full  1.000
_reflns_number_total              6958
_reflns_number_gt                 4895
_reflns_threshold_expression      'I > 2\s(I)'
_reflns_Friedel_coverage          0.000
_reflns_Friedel_fraction_max      .
_reflns_Friedel_fraction_full     .
 
_reflns_special_details
;
 Reflections were merged by SHELXL according to the crystal
 class for the calculation of statistics and refinement.
 
 _reflns_Friedel_fraction is defined as the number of unique
 Friedel pairs measured divided by the number that would be
 possible theoretically, ignoring centric projections and
 systematic absences.
;
 
_computing_data_collection        ?
_computing_cell_refinement        ?
_computing_data_reduction         ?
_computing_structure_solution     'SHELXT 2018/2 (Sheldrick, 2018)'
_computing_structure_refinement 'SHELXL-2018/3 (Sheldrick, 2018)'
_computing_molecular_graphics     ?
_computing_publication_material   ?
_refine_special_details           ?
_refine_ls_structure_factor_coef  Fsqd
_refine_ls_matrix_type            full
_refine_ls_weighting_scheme       calc
_refine_ls_weighting_details
'w=1/[\s^2^(Fo^2^)+(0.0815P)^2^+3.1994P] where P=(Fo^2^+2Fc^2^)/3'
_atom_sites_solution_primary      ?
_atom_sites_solution_secondary    ?
_atom_sites_solution_hydrogens    geom
_refine_ls_hydrogen_treatment     mixed
_refine_ls_extinction_method      none
_refine_ls_extinction_coef        .
_refine_ls_number_reflns          6958
_refine_ls_number_parameters      131
_refine_ls_number_restraints      0
_refine_ls_R_factor_all           0.1014
_refine_ls_R_factor_gt            0.0684
_refine_ls_wR_factor_ref          0.1772
_refine_ls_wR_factor_gt           0.1590
_refine_ls_goodness_of_fit_ref    1.075
_refine_ls_restrained_S_all       1.075
_refine_ls_shift/su_max           0.000
_refine_ls_shift/su_mean          0.000
 
loop_
 _atom_site_label
 _atom_site_type_symbol
 _atom_site_fract_x
 _atom_site_fract_y
 _atom_site_fract_z
 _atom_site_U_iso_or_equiv
 _atom_site_adp_type
 _atom_site_occupancy
 _atom_site_site_symmetry_order  
 _atom_site_calc_flag
 _atom_site_refinement_flags_posn
 _atom_site_refinement_flags_adp
 _atom_site_refinement_flags_occupancy
 _atom_site_disorder_assembly
 _atom_site_disorder_group
Zn1 Zn 0.09588(4) 0.50650(2) 0.39340(3) 0.01358(10) Uiso 1 1 d . . . . .
S1 S 0.27512(9) 0.29303(5) 0.71394(6) 0.01614(16) Uiso 1 1 d . . . . .
O1 O 0.2240(3) 0.59908(17) 0.48978(18) 0.0216(5) Uiso 1 1 d . . . . .
H1 H 0.295(6) 0.5852(17) 0.508(3) 0.032 Uiso 1 1 calc R U . . .
O2 O 0.1180(3) 0.43670(16) 0.60253(17) 0.0195(5) Uiso 1 1 d . . . . .
O3 O 0.2202(3) 0.41332(16) 0.47197(17) 0.0193(5) Uiso 1 1 d . . . . .
O4 O 0.3891(3) 0.17473(16) 0.87142(17) 0.0219(5) Uiso 1 1 d . . . . .
O5 O 0.5032(3) 0.07899(16) 0.78795(17) 0.0192(5) Uiso 1 1 d . . . . .
O6 O 0.1627(3) 0.41842(16) -0.07119(18) 0.0222(5) Uiso 1 1 d . . . . .
N1 N 0.1801(3) 0.57143(18) 0.28864(19) 0.0160(5) Uiso 1 1 d . . . . .
N2 N 0.2609(3) 0.60166(17) 0.15800(19) 0.0147(5) Uiso 1 1 d . . . . .
N3 N 0.4677(3) 0.59005(18) -0.19533(19) 0.0163(5) Uiso 1 1 d . . . . .
N4 N 0.4810(4) 0.5664(2) -0.3432(2) 0.0234(6) Uiso 1 1 d . . . . .
N5 N 0.1709(3) 0.46172(19) 0.0131(2) 0.0187(5) Uiso 1 1 d . . . . .
N6 N 0.2503(3) 0.45878(19) -0.1305(2) 0.0194(5) Uiso 1 1 d . . . . .
N7 N 0.2769(4) 0.6763(2) 0.2086(2) 0.0236(6) Uiso 1 1 d . . . . .
N8 N 0.5861(4) 0.64525(19) -0.2132(2) 0.0206(6) Uiso 1 1 d . . . . .
C1 C 0.4340(4) 0.1492(2) 0.7985(2) 0.0160(6) Uiso 1 1 d . . . . .
C2 C 0.4004(4) 0.2065(2) 0.7137(2) 0.0156(5) Uiso 1 1 d . . . . .
C3 C 0.4600(4) 0.2011(2) 0.6311(2) 0.0176(6) Uiso 1 1 d . . . . .
H3 H 0.531824 0.157433 0.618471 0.021 Uiso 1 1 calc R U . . .
C4 C 0.4016(4) 0.2682(2) 0.5676(2) 0.0170(6) Uiso 1 1 d . . . . .
H4 H 0.430165 0.274847 0.507447 0.020 Uiso 1 1 calc R U . . .
C5 C 0.2990(4) 0.3226(2) 0.6027(2) 0.0159(6) Uiso 1 1 d . . . . .
C6 C 0.2052(4) 0.3967(2) 0.5547(2) 0.0142(5) Uiso 1 1 d . . . . .
C7 C 0.2013(4) 0.5402(2) 0.2065(2) 0.0160(6) Uiso 1 1 d . . . . .
H7 H 0.178013 0.483435 0.185284 0.019 Uiso 1 1 calc R U . . .
C8 C 0.2272(4) 0.6542(2) 0.2859(3) 0.0236(7) Uiso 1 1 d . . . . .
H8 H 0.224359 0.693044 0.336098 0.028 Uiso 1 1 calc R U . . .
C10 C 0.2627(4) 0.5294(2) 0.0060(2) 0.0149(5) Uiso 1 1 d . . . . .
C11 C 0.3143(4) 0.5973(2) 0.0709(2) 0.0143(5) Uiso 1 1 d . . . . .
C12 C 0.4162(4) 0.6569(2) 0.0462(2) 0.0159(6) Uiso 1 1 d . . . . .
H12 H 0.453994 0.702094 0.089090 0.019 Uiso 1 1 calc R U . . .
C13 C 0.4686(4) 0.6542(2) -0.0422(2) 0.0167(6) Uiso 1 1 d . . . . .
H13 H 0.541259 0.697083 -0.055805 0.020 Uiso 1 1 calc R U . . .
C14 C 0.4179(4) 0.5921(2) -0.1075(2) 0.0143(5) Uiso 1 1 d . . . . .
C15 C 0.3126(4) 0.5270(2) -0.0831(2) 0.0150(5) Uiso 1 1 d . . . . .
C17 C 0.5886(4) 0.6287(2) -0.3023(2) 0.0213(6) Uiso 1 1 d . . . . .
H17 H 0.659494 0.657786 -0.335869 0.026 Uiso 1 1 calc R U . . .
C18 C 0.4076(4) 0.5439(2) -0.2743(2) 0.0215(6) Uiso 1 1 d . . . . .
H18 H 0.324410 0.501436 -0.279143 0.026 Uiso 1 1 calc R U . . .
 
_geom_special_details
;
 All esds (except the esd in the dihedral angle between two l.s. planes)
 are estimated using the full covariance matrix.  The cell esds are taken
 into account individually in the estimation of esds in distances, angles
 and torsion angles; correlations between esds in cell parameters are only
 used when they are defined by crystal symmetry.  An approximate (isotropic)
 treatment of cell esds is used for estimating esds involving l.s. planes.
;
 
loop_
 _geom_bond_atom_site_label_1
 _geom_bond_atom_site_label_2
 _geom_bond_distance
 _geom_bond_site_symmetry_2
 _geom_bond_publ_flag
Zn1 O2 1.992(2) 3_566 ?
Zn1 O3 1.999(2) . ?
Zn1 O5 2.053(2) 4_565 ?
Zn1 N1 2.058(3) . ?
Zn1 O1 2.134(3) . ?
S1 C2 1.710(3) . ?
S1 C5 1.717(3) . ?
O2 C6 1.262(4) . ?
O3 C6 1.251(4) . ?
O4 C1 1.249(4) . ?
O5 C1 1.267(4) . ?
O6 N5 1.380(4) . ?
O6 N6 1.383(4) . ?
N1 C7 1.325(4) . ?
N1 C8 1.361(5) . ?
N2 C7 1.343(4) . ?
N2 N7 1.372(4) . ?
N2 C11 1.414(4) . ?
N3 C18 1.353(4) . ?
N3 N8 1.371(4) . ?
N3 C14 1.408(4) . ?
N4 C18 1.314(5) . ?
N4 C17 1.372(5) . ?
N5 C10 1.322(4) . ?
N6 C15 1.317(4) . ?
N7 C8 1.310(5) . ?
N8 C17 1.313(4) . ?
C1 C2 1.496(4) . ?
C2 C3 1.380(4) . ?
C3 C4 1.412(5) . ?
C4 C5 1.372(4) . ?
C5 C6 1.487(4) . ?
C10 C11 1.424(4) . ?
C10 C15 1.427(4) . ?
C11 C12 1.356(4) . ?
C12 C13 1.427(4) . ?
C13 C14 1.360(4) . ?
C14 C15 1.433(4) . ?
 
loop_
 _geom_angle_atom_site_label_1
 _geom_angle_atom_site_label_2
 _geom_angle_atom_site_label_3
 _geom_angle
 _geom_angle_site_symmetry_1
 _geom_angle_site_symmetry_3
 _geom_angle_publ_flag
O2 Zn1 O3 131.82(10) 3_566 . ?
O2 Zn1 O5 96.75(10) 3_566 4_565 ?
O3 Zn1 O5 90.48(10) . 4_565 ?
O2 Zn1 N1 103.68(10) 3_566 . ?
O3 Zn1 N1 124.42(10) . . ?
O5 Zn1 N1 85.05(10) 4_565 . ?
O2 Zn1 O1 89.95(10) 3_566 . ?
O3 Zn1 O1 90.22(10) . . ?
O5 Zn1 O1 170.34(10) 4_565 . ?
N1 Zn1 O1 86.61(10) . . ?
C2 S1 C5 91.51(16) . . ?
C6 O2 Zn1 148.2(2) . 3_566 ?
C6 O3 Zn1 123.4(2) . . ?
C1 O5 Zn1 126.2(2) . 4_666 ?
N5 O6 N6 112.3(2) . . ?
C7 N1 C8 103.6(3) . . ?
C7 N1 Zn1 126.7(2) . . ?
C8 N1 Zn1 129.6(2) . . ?
C7 N2 N7 110.1(3) . . ?
C7 N2 C11 129.9(3) . . ?
N7 N2 C11 119.9(3) . . ?
C18 N3 N8 109.5(3) . . ?
C18 N3 C14 129.9(3) . . ?
N8 N3 C14 120.5(3) . . ?
C18 N4 C17 103.2(3) . . ?
C10 N5 O6 104.7(3) . . ?
C15 N6 O6 104.6(3) . . ?
C8 N7 N2 102.2(3) . . ?
C17 N8 N3 102.4(3) . . ?
O4 C1 O5 126.9(3) . . ?
O4 C1 C2 117.1(3) . . ?
O5 C1 C2 116.0(3) . . ?
C3 C2 C1 128.9(3) . . ?
C3 C2 S1 112.0(2) . . ?
C1 C2 S1 119.1(2) . . ?
C2 C3 C4 112.1(3) . . ?
C5 C4 C3 112.4(3) . . ?
C4 C5 C6 128.3(3) . . ?
C4 C5 S1 112.0(2) . . ?
C6 C5 S1 119.7(2) . . ?
O3 C6 O2 126.6(3) . . ?
O3 C6 C5 117.4(3) . . ?
O2 C6 C5 116.0(3) . . ?
N1 C7 N2 109.2(3) . . ?
N7 C8 N1 114.8(3) . . ?
N5 C10 C11 130.6(3) . . ?
N5 C10 C15 109.0(3) . . ?
C11 C10 C15 120.4(3) . . ?
C12 C11 N2 121.6(3) . . ?
C12 C11 C10 117.6(3) . . ?
N2 C11 C10 120.8(3) . . ?
C11 C12 C13 122.2(3) . . ?
C14 C13 C12 122.1(3) . . ?
C13 C14 N3 122.1(3) . . ?
C13 C14 C15 117.2(3) . . ?
N3 C14 C15 120.7(3) . . ?
N6 C15 C10 109.4(3) . . ?
N6 C15 C14 130.2(3) . . ?
C10 C15 C14 120.4(3) . . ?
N8 C17 N4 114.9(3) . . ?
N4 C18 N3 110.1(3) . . ?
 
_refine_diff_density_max    4.122
_refine_diff_density_min   -3.183
_refine_diff_density_rms    0.171

_shelx_res_file
;
TITL VT-15_4_a.res in P2(1)/n
    VT-15_4.res
    created by SHELXL-2018/3 at 13:24:07 on 29-Mar-2023
REM Old TITL VT-15_4 in P2(1)/n
REM SHELXT solution in P2(1)/n: R1 0.192, Rweak 0.007, Alpha 0.033
REM <I/s>   0.417 for  148 systematic absences,  Orientation as input
REM Formula found by SHELXT:  C23 N4 O4 Zn
CELL  0.71073   8.2650  15.7132  14.3949   90.000  101.966   90.000
ZERR   23.000   0.0002   0.0003   0.0003    0.000    0.001    0.000
LATT  1
SYMM 1/2-X, 1/2+Y, 1/2-Z
SFAC C N O Zn S H
UNIT 64 32 24 4 4 36
ACTA
TEMP -123.150
L.S. 10
BOND
LIST 6
FMAP 2
PLAN 20
WGHT    0.081500    3.199400
FVAR       0.34580
ZN1   4    0.095876    0.506500    0.393397    11.00000    0.01358
S1    5    0.275118    0.293029    0.713935    11.00000    0.01614
O1    3    0.223952    0.599079    0.489780    11.00000    0.02161
AFIX 148
H1    6    0.295348    0.585186    0.508444    11.00000   -1.50000
AFIX   0
O2    3    0.118009    0.436704    0.602527    11.00000    0.01951
O3    3    0.220248    0.413324    0.471968    11.00000    0.01931
O4    3    0.389083    0.174730    0.871419    11.00000    0.02185
O5    3    0.503197    0.078988    0.787953    11.00000    0.01918
O6    3    0.162679    0.418415   -0.071193    11.00000    0.02217
N1    2    0.180098    0.571429    0.288638    11.00000    0.01605
N2    2    0.260892    0.601663    0.158001    11.00000    0.01465
N3    2    0.467728    0.590050   -0.195331    11.00000    0.01625
N4    2    0.481010    0.566368   -0.343198    11.00000    0.02340
N5    2    0.170915    0.461719    0.013099    11.00000    0.01867
N6    2    0.250345    0.458777   -0.130463    11.00000    0.01935
N7    2    0.276898    0.676273    0.208583    11.00000    0.02359
N8    2    0.586137    0.645254   -0.213203    11.00000    0.02059
C1    1    0.434008    0.149233    0.798527    11.00000    0.01603
C2    1    0.400444    0.206503    0.713680    11.00000    0.01559
C3    1    0.459959    0.201136    0.631135    11.00000    0.01764
AFIX  43
H3    6    0.531824    0.157433    0.618471    11.00000   -1.20000
AFIX   0
C4    1    0.401607    0.268181    0.567649    11.00000    0.01702
AFIX  43
H4    6    0.430165    0.274847    0.507447    11.00000   -1.20000
AFIX   0
C5    1    0.299017    0.322599    0.602735    11.00000    0.01590
C6    1    0.205164    0.396665    0.554733    11.00000    0.01417
C7    1    0.201280    0.540232    0.206513    11.00000    0.01599
AFIX  43
H7    6    0.178013    0.483435    0.185284    11.00000   -1.20000
AFIX   0
C8    1    0.227248    0.654238    0.285861    11.00000    0.02358
AFIX  43
H8    6    0.224359    0.693044    0.336098    11.00000   -1.20000
AFIX   0
C10   1    0.262669    0.529402    0.006005    11.00000    0.01486
C11   1    0.314347    0.597299    0.070929    11.00000    0.01430
C12   1    0.416236    0.656946    0.046164    11.00000    0.01590
AFIX  43
H12   6    0.453994    0.702094    0.089090    11.00000   -1.20000
AFIX   0
C13   1    0.468615    0.654166   -0.042185    11.00000    0.01673
AFIX  43
H13   6    0.541259    0.697083   -0.055805    11.00000   -1.20000
AFIX   0
C14   1    0.417917    0.592064   -0.107542    11.00000    0.01432
C15   1    0.312595    0.527021   -0.083105    11.00000    0.01497
C17   1    0.588604    0.628747   -0.302294    11.00000    0.02133
AFIX  43
H17   6    0.659494    0.657786   -0.335869    11.00000   -1.20000
AFIX   0
C18   1    0.407579    0.543894   -0.274255    11.00000    0.02154
AFIX  43
H18   6    0.324410    0.501436   -0.279143    11.00000   -1.20000
REM #####
REM #####
AFIX   0
HKLF 4




REM  VT-15_4_a.res in P2(1)/n
REM wR2 = 0.1772, GooF = S = 1.075, Restrained GooF = 1.075 for all data
REM R1 = 0.0684 for 4895 Fo > 4sig(Fo) and 0.1014 for all 6958 data
REM 131 parameters refined using 0 restraints

END

WGHT      0.0815      3.1990

REM Highest difference peak  4.122,  deepest hole -3.183,  1-sigma level  0.171
Q1    1   0.1468  0.5078  0.3985  11.00000  0.05    4.12
Q2    1   0.0405  0.5044  0.3869  11.00000  0.05    3.68
Q3    1   0.3261  0.2974  0.7204  11.00000  0.05    2.07
Q4    1   0.2227  0.2884  0.7054  11.00000  0.05    1.91
Q5    1   0.2223  0.6802  0.1938  11.00000  0.05    1.38
Q6    1   0.3265  0.6693  0.2230  11.00000  0.05    1.29
Q7    1   0.1760  0.6568  0.2755  11.00000  0.05    1.18
Q8    1   0.3383  0.1752  0.8624  11.00000  0.05    1.00
Q9    1   0.4426  0.1761  0.8787  11.00000  0.05    0.99
Q10   1   0.2757  0.6483  0.3012  11.00000  0.05    0.96
Q11   1   0.2773  0.4201  0.4765  11.00000  0.05    0.96
Q12   1   0.5594  0.0822  0.7937  11.00000  0.05    0.90
Q13   1   0.4474  0.0803  0.7871  11.00000  0.05    0.85
Q14   1   0.1668  0.4032  0.4728  11.00000  0.05    0.83
Q15   1   0.5008  0.5990 -0.3437  11.00000  0.05    0.83
Q16   1   0.0773  0.4155  0.5979  11.00000  0.05    0.78
Q17   1   0.5349  0.6533 -0.2238  11.00000  0.05    0.76
Q18   1   0.1832  0.6263  0.5348  11.00000  0.05    0.75
Q19   1   0.1272  0.5720  0.2800  11.00000  0.05    0.75
Q20   1   0.5241  0.6082 -0.3247  11.00000  0.05    0.74
;
_shelx_res_checksum   71144

_shelx_hkl_file
;
   1   0   0    0.00    0.40
   1   0   0    0.20    0.40
  -1   0   0    0.30    0.50
  -2   0   0 1107.49   27.20
  -2   0   0 1123.79   26.80
   2   0   0 1138.39   27.50
   2   0   0 1129.99   26.70
  -3   0   0   -0.10    0.90
   3   0   0   -1.50    0.90
   3   0   0    1.30    1.20
  -3   0   0   -1.80    1.20
   4   0   0   30.80    4.30
  -4   0   0   24.70    3.50
   4   0   0   27.20    3.90
  -4   0   0   32.50    4.30
  -5   0   0    2.10    2.00
   5   0   0    1.00    2.10
   6   0   0 1239.68   39.20
  -6   0   0 1328.87   38.50
  -7   0   0    0.60    3.20
   7   0   0   -3.80    2.80
  -8   0   0    3.90    4.50
   8   0   0   -1.50    3.50
   9   0   0   -4.70    4.10
  -9   0   0   -3.80    4.90
  10   0   0  347.67   32.80
 -10   0   0  291.87   20.40
  11   0   0    0.20    6.60
 -11   0   0   13.30    9.00
  12   0   0   26.80   11.30
   1  -1   0  694.13   16.70
  -1  -1   0  702.43   16.70
  -1  -1   0  695.63   17.00
  -1   1   0  704.73   15.30
   1   1   0  698.23   16.90
   1   1   0  715.83   16.80
  -1   1   0  689.13   16.60
   2  -1   0  447.76   12.10
  -2  -1   0  439.16   13.30
  -2  -1   0  460.85   13.80
   2  -1   0  461.05   13.60
   2   1   0  445.76   13.40
  -2   1   0  461.85   13.60
   2   1   0  452.15   13.60
  -2   1   0  448.06   12.20
   3  -1   0 1057.49   26.60
   3  -1   0 1110.49   28.90
  -3  -1   0 1065.49   30.90
  -3  -1   0 1061.89   28.40
  -3   1   0 1046.70   26.80
   3   1   0 1067.69   28.20
   3   1   0 1110.19   29.00
  -3   1   0 1078.09   28.60
  -4  -1   0   16.90    3.30
   4  -1   0   14.90    2.90
   4  -1   0   20.90    3.70
  -4  -1   0   11.90    2.90
  -4   1   0   13.00    3.10
   4   1   0   20.10    3.60
  -4   1   0   14.60    3.10
   4   1   0   18.40    3.90
   5  -1   0  236.18   13.00
   5  -1   0  242.08   11.20
  -5  -1   0  262.17   13.10
   5   1   0  251.57   13.20
  -5   1   0  245.58   11.80
  -6  -1   0    1.80    2.80
   6  -1   0    0.20    3.00
   6  -1   0    1.70    2.20
  -6   1   0    2.00    2.70
   6   1   0   -0.40    2.10
   7  -1   0    5.00    4.00
  -7  -1   0    1.00    3.20
   7   1   0    4.30    4.00
  -7   1   0    1.60    3.30
   8  -1   0  166.88   14.10
  -8  -1   0  144.19   12.90
  -8   1   0  172.88   12.90
   8   1   0  161.08   13.70
   9  -1   0   34.90    9.10
  -9  -1   0   55.19   10.40
  -9   1   0   54.19    9.80
   9   1   0   50.29    9.90
 -10  -1   0    3.20    6.30
 -10   1   0    9.10    7.00
 -11  -1   0   40.50   11.20
  11  -1   0   31.10    9.60
  11   1   0   57.19   12.60
 -11   1   0   34.80   11.30
  12  -1   0  -12.10    8.70
  12   1   0    2.40   10.50
 -12   1   0   -1.00   13.70
   1  -2   0  313.07    9.10
  -1  -2   0  301.07    9.00
   1   2   0  309.97    9.10
  -1   2   0  317.57    9.20
   1   2   0  299.87    9.40
   2  -2   0   28.50    1.90
  -2  -2   0   31.10    3.40
   2  -2   0   32.10    3.10
  -2  -2   0   33.50    3.10
   2   2   0   28.40    3.00
  -2   2   0   31.00    3.00
  -2   2   0   29.30    2.10
   2   2   0   25.50    2.90
   3  -2   0  115.59    7.00
  -3  -2   0  127.79    7.50
  -3  -2   0  132.99    7.20
   3  -2   0  130.89    5.70
  -3   2   0  130.09    5.90
  -3   2   0  132.59    7.40
   3   2   0  118.09    7.10
   3   2   0  121.79    7.20
  -4  -2   0  276.17   12.60
   4  -2   0  244.18   11.80
   4  -2   0  258.67    9.90
  -4  -2   0  251.87   11.80
   4   2   0  246.88   11.80
  -4   2   0  243.78   11.70
   4   2   0  267.27   12.50
  -4   2   0  251.47   10.20
   5  -2   0  220.88   12.40
   5  -2   0  237.38   10.40
  -5  -2   0  259.77   13.50
   5   2   0  244.28   13.20
  -5   2   0  235.08   11.00
  -6  -2   0   11.80    3.90
   6  -2   0   19.30    5.50
   6  -2   0   24.80    4.80
   6   2   0   10.20    3.70
  -6   2   0   15.30    3.40
   7  -2   0    3.20    3.40
  -7  -2   0   15.80    4.40
  -7   2   0   14.20    4.10
   7   2   0    2.60    3.70
   8  -2   0   -2.70    3.40
  -8  -2   0    0.70    3.70
   8   2   0   -7.70    3.20
  -8   2   0   -2.90    3.20
   9  -2   0   -2.00    4.80
  -9  -2   0    2.30    5.50
  -9   2   0    1.50    4.90
   9   2   0   -0.10    4.60
 -10  -2   0   81.59   12.70
 -10   2   0   62.19   11.40
  10   2   0   77.89   16.80
  11  -2   0   -4.90    6.80
  11   2   0   -2.10    6.60
  12  -2   0   35.10   12.10
 -12  -2   0   57.59   14.40
 -12   2   0   28.30   10.70
  12   2   0   34.90   11.70
   0  -3   0   -0.60    0.50
  -1  -3   0 1617.64   37.60
   1   3   0 1616.24   37.40
   1   3   0 1629.84   36.80
  -1   3   0 1646.84   36.90
   2  -3   0 1832.22   38.50
   2  -3   0 1901.91   43.40
  -2  -3   0 1856.21   44.70
  -2  -3   0 1833.62   42.90
   2   3   0 1866.51   43.40
  -2   3   0 1867.51   43.30
  -2   3   0 1839.42   38.70
   2   3   0 1866.21   44.00
   3  -3   0  321.87   12.30
  -3  -3   0  301.07   12.80
  -3  -3   0  315.87   12.20
   3  -3   0  310.27    9.10
  -3   3   0  300.97   12.20
  -3   3   0  319.77    9.40
   3   3   0  286.97   12.40
   3   3   0  310.77   12.50
  -4  -3   0    9.90    3.00
   4  -3   0   13.40    3.40
   4  -3   0   15.60    2.30
  -4  -3   0   14.60    3.90
   4   3   0    9.60    2.80
  -4   3   0    6.20    2.60
  -4   3   0   13.60    2.50
   4   3   0   10.10    3.10
  -5  -3   0  255.37   13.90
   5  -3   0  219.28   12.70
   5  -3   0  246.88   10.20
   5   3   0  261.27   13.90
  -5   3   0  261.67   11.00
   6  -3   0  113.59    8.90
  -6  -3   0  113.69   10.10
   6  -3   0  123.69   10.30
  -6   3   0  101.59    7.60
   6   3   0  107.19    9.80
   7  -3   0  147.19   12.10
  -7   3   0  169.08   10.70
   7   3   0  187.98   13.60
  -8  -3   0   -0.50    4.80
   8  -3   0    9.80    4.40
  -8   3   0    5.00    4.20
   8   3   0    3.40    3.60
   9  -3   0  103.09   12.70
  -9  -3   0   87.19   12.20
  -9   3   0   97.39   10.90
   9   3   0   87.09   12.30
  10  -3   0   40.50   10.50
 -10  -3   0   47.10   10.90
 -10   3   0   45.80    8.80
  10   3   0   59.79   12.40
 -11  -3   0   75.09   13.30
  11  -3   0   35.60   10.80
  11   3   0   43.10   11.70
 -11   3   0   53.69   10.40
  12  -3   0    8.50   10.40
 -12  -3   0  -16.30   11.80
  12   3   0  -12.90    9.60
 -12   3   0   -1.20   12.60
   0  -4   0   63.09    3.60
   0   4   0   65.39    3.50
   1  -4   0   52.09    2.10
  -1  -4   0   48.30    3.90
  -1   4   0   51.49    2.00
   1   4   0   65.69    4.10
   1   4   0   50.29    3.80
  -1   4   0   50.29    3.80
  -2  -4   0   11.60    2.70
   2  -4   0   15.00    2.60
  -2  -4   0   11.80    2.40
   2   4   0   10.60    2.40
  -2   4   0   14.60    2.60
   2   4   0   16.00    3.00
  -3  -4   0  201.98   10.50
   3  -4   0  185.18    5.60
  -3  -4   0  192.88    9.30
   3  -4   0  200.18    9.70
  -3   4   0  181.98    5.80
  -3   4   0  185.78    9.50
   3   4   0  196.08   10.20
  -4  -4   0  613.74   22.40
  -4  -4   0  597.54   20.70
   4  -4   0  638.04   21.50
   4  -4   0  619.74   16.20
  -4   4   0  620.54   16.70
   4   4   0  657.93   22.30
   4   4   0  571.54   21.30
  -4   4   0  614.74   21.30
  -5  -4   0   97.59    8.80
   5  -4   0   87.19    5.40
   5  -4   0  101.39    8.10
   5   4   0   79.69    7.80
  -5   4   0   85.29    5.60
  -6  -4   0  239.18   15.10
   6  -4   0  221.18   10.20
   6  -4   0  228.58   13.80
  -6   4   0  233.48   10.90
   6   4   0  224.98   14.40
   7  -4   0    0.20    3.30
   7  -4   0    1.50    3.40
  -7  -4   0    2.50    4.00
   7   4   0    2.80    3.80
  -7   4   0    1.10    2.70
  -8  -4   0   28.50    8.00
   8  -4   0   23.80    7.00
   8   4   0   27.80    7.50
  -8   4   0   28.40    6.00
   9  -4   0   29.80    9.30
  -9  -4   0   44.40   10.10
   9   4   0   33.60    8.20
  -9   4   0   33.30    7.20
 -10  -4   0   61.79   12.50
  10  -4   0   65.69   12.20
 -10   4   0   66.89   13.00
  10   4   0   47.90   11.40
 -11  -4   0   -0.30    9.30
  11  -4   0   -1.90    9.00
  11   4   0    0.60    7.00
 -11   4   0   -5.50    7.80
 -12  -4   0  -15.30   12.00
  12  -4   0    5.70   10.60
  12   4   0   11.90   10.10
   0  -5   0    4.70    1.30
   0   5   0    3.30    1.00
  -1  -5   0 1031.50   26.70
   1  -5   0 1007.80   22.50
  -1   5   0  995.30   22.30
   1   5   0  986.40   26.20
  -2  -5   0  490.65   17.10
   2  -5   0  483.75   16.20
   2   5   0  488.45   16.80
   2   5   0  511.95   16.50
  -2   5   0  484.55   16.20
  -3  -5   0  264.57   11.30
   3  -5   0  262.87   11.60
  -3  -5   0  260.37   12.70
   3   5   0  280.27   12.40
   3   5   0  227.88   11.70
  -3   5   0  254.47   11.60
  -4  -5   0   -0.10    1.90
   4  -5   0    2.40    1.00
   4  -5   0   -0.90    1.70
   4   5   0    0.30    1.70
  -4   5   0    0.20    0.80
  -5  -5   0 1959.30   54.59
   5  -5   0 1988.40   44.10
   5  -5   0 1970.90   52.69
   5   5   0 1956.20   53.29
  -5   5   0 1943.81   44.70
  -6  -5   0   -2.00    2.90
   6  -5   0    1.00    2.10
   6  -5   0   -0.80    2.20
   6   5   0   -2.30    2.70
  -6   5   0    1.40    1.90
  -7  -5   0    1.80    4.20
   7  -5   0   -0.10    3.20
  -7   5   0    1.70    2.30
   7   5   0   -1.90    2.90
  -8  -5   0   -4.90    4.60
   8  -5   0    2.30    3.90
  -8   5   0    1.70    3.30
   8   5   0   -0.80    3.90
  -9  -5   0    1.10    6.40
   9  -5   0   11.70    6.40
   9   5   0    6.20    4.60
  -9   5   0   12.80    4.90
  10  -5   0    9.30    6.70
 -10  -5   0   -5.40    7.50
  10   5   0   -3.70    5.80
 -10   5   0    7.40    5.60
  11  -5   0  128.89   17.50
 -11  -5   0  136.09   18.50
  11   5   0  138.19   17.20
 -11   5   0  132.79   13.30
 -12  -5   0    5.00   12.40
  12  -5   0    0.40   10.80
   0  -6   0  117.49    5.90
   0   6   0  108.89    5.60
  -1  -6   0  113.89    6.70
   1  -6   0  100.19    4.40
  -1   6   0   99.79    4.20
   1   6   0  107.19    6.40
  -2  -6   0  190.28   10.00
   2   6   0  176.48    9.10
  -2   6   0  171.48    9.00
  -3  -6   0  641.44   20.90
   3  -6   0  660.83   21.70
  -3  -6   0  672.73   23.30
   3   6   0  637.24   21.80
   3   6   0  670.53   22.70
  -3   6   0  646.64   21.60
   4  -6   0  668.13   23.10
  -4  -6   0  664.33   24.80
   4   6   0  642.04   23.50
   5  -6   0   25.40    2.20
   5  -6   0   29.30    5.20
  -5  -6   0   26.10    5.90
   5   6   0   33.80    6.20
  -5   6   0   28.00    2.50
  -6  -6   0  694.23   28.70
   6  -6   0  641.34   17.50
   6   6   0  643.24   26.70
  -6   6   0  668.63   18.50
   7  -6   0   -0.30    2.40
  -7  -6   0    2.90    3.70
   7  -6   0   -0.90    3.70
  -7   6   0   -0.20    2.40
   7   6   0    3.00    3.60
  -8  -6   0   -8.80    4.20
   8  -6   0    1.00    4.00
   8   6   0    0.90    4.20
  -8   6   0    3.60    3.30
  -9  -6   0   48.20   10.20
   9  -6   0   67.69   11.70
   9   6   0   58.89   11.40
  -9   6   0   63.99    8.00
 -10  -6   0   63.49   13.70
  10  -6   0   31.10    9.60
 -10   6   0   51.49    9.20
  10   6   0   46.00   10.20
  11  -6   0   23.10   10.00
 -11  -6   0   15.00   11.90
  11   6   0   22.20   10.20
 -12  -6   0   13.40   12.80
  12  -6   0   -3.10   15.40
  12   6   0   -0.60   10.90
   0   7   0   11.40    2.10
  -1  -7   0   68.79    5.50
   1  -7   0   67.49    3.90
   1   7   0   75.79    5.50
  -1   7   0   73.59    3.80
  -2  -7   0  162.58    9.70
   2   7   0  163.58    9.90
   2   7   0  172.58    9.30
  -2   7   0  152.98    8.90
  -3  -7   0    5.60    2.70
   3   7   0   12.70    3.90
  -3   7   0    5.90    2.90
  -4  -7   0    4.00    2.90
   4  -7   0   -1.10    1.70
   4   7   0    1.50    2.20
   5  -7   0  281.47   15.00
  -5  -7   0  281.17   16.40
   5   7   0  261.67   15.40
   6  -7   0   40.00    6.80
  -6  -7   0   24.80    6.80
  -6   7   0   27.90    2.40
   6   7   0   35.40    6.70
  -7  -7   0  179.88   15.20
   7  -7   0  168.78   13.40
   7  -7   0  156.48    7.80
   7   7   0  180.48   14.20
  -7   7   0  171.88    7.20
   8  -7   0   31.50    4.70
   8  -7   0   30.50    7.90
  -8  -7   0   39.40    8.50
  -8   7   0   26.80    5.90
   8   7   0   43.90    9.40
   9  -7   0   81.59   12.40
  -9  -7   0   63.09   12.00
  -9   7   0   90.29    6.80
   9   7   0   94.99   13.10
  10  -7   0    6.60    7.10
 -10  -7   0    7.20    9.30
 -10   7   0   10.40    7.50
  10   7   0    8.10    7.30
 -11  -7   0    3.00   10.00
  11  -7   0    2.00    8.20
  11   7   0   -1.00    8.70
   0   8   0  201.18    8.90
   1  -8   0  421.36   12.60
  -1  -8   0  407.76   15.60
  -1   8   0  411.26   12.10
   1   8   0  377.86   14.80
   2  -8   0  246.18    6.50
  -2  -8   0  250.87   12.80
   2   8   0  228.68   11.80
  -2   8   0  246.28    6.40
   2   8   0  258.27   12.40
  -2   8   0  251.57   12.20
  -3  -8   0   -0.90    2.20
   3   8   0   -0.70    1.40
  -4  -8   0  460.05   21.20
   4  -8   0  485.25   19.90
   4   8   0  487.95   20.60
  -5  -8   0   17.40    7.90
   5  -8   0   22.50    5.60
   5   8   0   20.10    5.20
  -6  -8   0  352.66   20.80
   6  -8   0  333.97   18.10
   6   8   0  347.67   19.50
  -7  -8   0   84.89   10.60
   7  -8   0   60.59    8.80
   7   8   0   63.29    9.80
   8  -8   0   12.70    5.50
  -8  -8   0    0.60    5.70
   8   8   0    8.70    5.60
   9  -8   0   18.60    7.40
  -9  -8   0   23.30    9.70
   9   8   0   40.60   13.30
 -10  -8   0   35.40   11.30
  10  -8   0   48.20   12.00
  10   8   0   36.20   10.80
 -11  -8   0   21.20   11.80
  11  -8   0   -1.20    8.40
  11   8   0    4.00   10.10
   0  -9   0    0.00    1.60
  -1  -9   0  235.48   11.60
   1  -9   0  226.18    9.00
  -1   9   0  222.88    8.60
  -2  -9   0  140.79    9.70
   2  -9   0  156.78    5.20
   2   9   0  152.68    9.80
   2   9   0  146.39    9.70
  -3  -9   0   25.10    5.50
   3   9   0   32.10    5.00
  -4  -9   0  159.88   12.40
   4   9   0  159.08   11.50
   5  -9   0  230.68   14.30
  -5  -9   0  247.38   16.60
   5   9   0  243.98   15.50
  -6  -9   0   25.30    6.90
   6  -9   0   30.80    6.20
   6   9   0   30.30    7.10
   7  -9   0   43.40    8.30
  -7  -9   0   27.30    8.10
   7   9   0   41.30    8.30
   8  -9   0   13.50    7.50
  -8  -9   0    6.20    5.30
   8   9   0    3.60    5.50
   9  -9   0    9.90    7.30
  -9  -9   0   24.30    9.70
   9   9   0    4.80    7.00
 -10  -9   0   12.50    9.50
  10  -9   0   14.50    7.70
  10   9   0    0.00    7.90
  11  -9   0   36.00   11.20
 -11  -9   0   36.90   12.10
  11   9   0   58.99   13.10
   0 -10   0  999.60   28.60
   0  10   0  991.70   27.60
  -1 -10   0    1.60    2.10
   1 -10   0    1.30    1.60
  -1  10   0   -1.90    1.30
   1  10   0    0.60    2.30
  -2 -10   0   68.59    7.30
   2 -10   0   67.89    3.60
  -2  10   0   72.69    3.50
   2  10   0   85.19    7.70
  -3 -10   0    4.50    3.30
   3  10   0    2.30    2.40
  -4 -10   0    1.90    3.70
  -5 -10   0   23.60    6.70
   5  10   0   29.80    6.30
   6 -10   0  166.08   13.30
  -6 -10   0  163.28   14.80
   6  10   0  170.88   14.40
  -7 -10   0    4.80    5.20
   7 -10   0    8.40    3.80
   7  10   0    0.60    4.10
  -8 -10   0    3.80    4.60
   8 -10   0  -13.00    5.40
   8  10   0    3.20    5.40
  -9 -10   0    4.50    8.00
   9 -10   0   17.00    7.70
   9  10   0    5.70    6.30
 -10 -10   0   62.69   14.30
  10 -10   0   39.90   10.60
  10  10   0   34.30   10.50
  11 -10   0   -7.00    9.00
 -11 -10   0   -7.60   10.60
  11  10   0   -8.20    9.40
   0 -11   0   -2.30    1.60
   0  11   0   -0.20    2.20
  -1 -11   0  585.74   22.00
   1 -11   0  604.34   18.60
  -1  11   0  586.64   17.70
  -2 -11   0  170.28   11.80
   2 -11   0  172.48    6.70
   2  11   0  180.08   11.80
  -2  11   0  189.78    6.60
  -3 -11   0   20.40    6.00
   3  11   0   20.20    4.90
  -4 -11   0  101.09   11.00
   4  11   0  112.19   10.30
  -5 -11   0  410.66   22.80
   5  11   0  405.26   21.60
  -6 -11   0    1.90    5.20
   6  11   0    0.00    4.00
  -7 -11   0   46.70   10.80
   7  11   0   39.00    9.90
   8 -11   0   54.49   10.60
   8  11   0   48.00   10.50
  -9 -11   0   93.89   15.30
   9 -11   0   94.49   14.00
   9  11   0  114.79   15.80
  10 -11   0   30.80   10.50
 -10 -11   0   60.09   14.60
  10  11   0   35.70   12.00
 -11 -11   0    7.60   13.00
  11 -11   0   29.70   22.00
  11  11   0   20.10   13.10
   0 -12   0  622.84   21.50
   0  12   0  575.34   20.10
  -1 -12   0  251.87   13.40
   1 -12   0  227.58   10.50
  -1  12   0  209.38    9.70
   2 -12   0  258.87    9.10
  -2 -12   0  254.07   15.00
  -2  12   0  253.47    8.70
  -3 -12   0  134.19   11.80
   3  12   0  138.09   11.40
  -4 -12   0  177.28   14.30
   4  12   0  188.78   14.30
  -5 -12   0    7.80    5.90
   5  12   0    5.30    4.30
  -6 -12   0    6.90    5.50
   6  12   0   15.20    5.90
  -7 -12   0  178.68   17.40
   7  12   0  182.78   16.20
  -8 -12   0    8.00    5.90
   8  12   0   -0.90    5.30
  -9 -12   0    3.40    7.30
   9  12   0   19.90    8.70
 -10 -12   0   44.30   13.40
  10  12   0   54.19   13.60
   0 -13   0    0.20    2.50
  -1 -13   0  141.79   10.70
   1 -13   0  152.08    8.80
  -2 -13   0    0.10    3.00
   2 -13   0    5.00    2.10
  -2  13   0    1.80    1.70
   2  13   0    0.80    2.80
  -3 -13   0   93.29   10.50
   3  13   0  100.89   10.30
  -4 -13   0  112.99   11.80
   4  13   0  108.89   11.50
  -5 -13   0   45.10    9.60
   5  13   0   34.00    7.60
  -6 -13   0  295.57   21.60
   6  13   0  267.67   19.50
  -7 -13   0   34.10   10.40
   7  13   0   46.00   10.40
  -8 -13   0   -7.80    6.10
   8  13   0   -3.40    6.40
  -9 -13   0   67.69   15.10
   9  13   0   74.69   14.70
 -10 -13   0  -15.90    9.70
  10  13   0   -7.00    9.60
   0 -14   0  349.77   16.10
  -1 -14   0  285.67   15.80
   1 -14   0  278.37   12.80
  -2 -14   0  404.16   20.50
   2 -14   0  383.66   12.70
  -2  14   0  381.66   12.20
   2  14   0  373.86   19.90
  -3 -14   0   26.10    7.30
   3  14   0   22.70    7.00
  -4 -14   0  106.49   13.00
   4  14   0  115.49   11.90
  -5 -14   0   65.69   11.10
   5  14   0   66.69   11.00
  -6 -14   0   82.99   12.20
   6  14   0   92.69   12.50
  -7 -14   0   50.19   11.50
   7  14   0   59.69   11.90
  -8 -14   0    1.30    7.70
   8  14   0   12.80    8.20
  -9 -14   0   11.90   10.60
   9  14   0    6.70    8.90
 -10 -14   0   23.80   11.60
  10  14   0    1.50   12.00
   0 -15   0    4.00    3.50
  -1 -15   0  330.97   17.70
   1 -15   0  337.17   14.70
   2 -15   0   53.09    4.70
  -2 -15   0   72.79    9.20
   2  15   0   58.99    8.90
  -2  15   0   58.99    6.10
  -3 -15   0    8.50    5.00
   3  15   0    1.20    3.90
  -4 -15   0   35.40    8.20
   4  15   0   39.50    8.80
  -5 -15   0  215.98   19.20
   5  15   0  295.87   21.00
  -6 -15   0   10.90    7.00
   6  15   0   17.20    7.90
  -7 -15   0    2.30    6.90
   7  15   0    8.00    6.50
  -8 -15   0   53.49   13.60
   8  15   0   89.49   15.20
  -9 -15   0   -1.20    9.30
   9  15   0    3.70    9.40
   0 -16   0   73.69    8.40
   1 -16   0    7.00    3.30
  -1 -16   0    2.50    3.80
  -2 -16   0  186.58   14.30
   2  16   0  190.08   15.10
  -3 -16   0  235.38   17.60
   3  16   0  264.57   18.30
  -4 -16   0  303.07   20.80
   4  16   0  320.17   21.20
  -5 -16   0    6.30    5.80
   5  16   0    8.10    5.70
  -6 -16   0   -0.80    6.60
   6  16   0    2.10    9.00
  -7 -16   0    0.50    6.60
   7  16   0    1.80    7.30
  -8 -16   0    5.50    9.00
   8  16   0   10.90    8.20
  -9 -16   0   -4.20   14.50
   9  16   0   11.00   19.90
   0 -17   0    2.00    3.70
  -1 -17   0  108.59   11.80
   1 -17   0  104.99    8.50
  -2 -17   0  142.09   13.20
   2  17   0  172.68   15.30
  -3 -17   0   16.90    7.30
   3  17   0   16.00    6.70
  -4 -17   0   24.00    7.80
   4  17   0   35.80    9.30
  -5 -17   0   66.89   13.70
   5  17   0   83.99   13.20
  -6 -17   0   -8.30    6.50
   6  17   0    6.20    6.00
  -7 -17   0   19.60    9.40
   7  17   0   29.00   10.80
  -8 -17   0   23.10   11.20
   8  17   0   19.00   10.60
   0 -18   0   11.40    4.80
   1 -18   0   25.30    5.60
  -1 -18   0   22.30    6.80
   1  18   0   23.70    7.20
  -2 -18   0   13.40    6.60
   2  18   0   20.70    6.70
  -3 -18   0   12.10    6.10
   3  18   0   20.70    8.00
  -4 -18   0   86.79   13.90
   4  18   0  116.99   14.20
  -5 -18   0   14.00    8.00
   5  18   0    3.60    6.40
  -6 -18   0   81.99   14.70
   6  18   0   92.19   15.60
  -7 -18   0   24.80   11.60
   7  18   0   41.70   11.70
   8  18   0   -3.90   11.10
   0 -19   0   -3.90    4.30
  -1 -19   0   25.40    6.60
  -2 -19   0   81.49   12.60
   2  19   0  149.79   15.50
  -3 -19   0   16.30    7.90
   3  19   0    7.70    6.20
  -4 -19   0   13.30    7.60
   4  19   0    9.00    6.90
  -5 -19   0  124.19   16.60
   5  19   0   98.59   15.60
  -6 -19   0   11.00    9.20
   6  19   0    4.20    8.50
  -7 -19   0   22.80   11.50
   7  19   0   28.60   11.30
  -1 -20   0   16.40    7.10
   1  20   0    7.50    6.70
  -2 -20   0   -4.50    6.70
   2  20   0   -3.00    5.60
  -3 -20   0  106.49   15.50
   3  20   0  157.88   17.20
  -4 -20   0    5.70    7.20
   4  20   0    3.10    6.10
  -5 -20   0   11.20    8.20
   5  20   0   -4.40    7.40
  -6 -20   0   82.09   15.40
   6  20   0   99.39   18.10
   1 -21   0   -0.40    6.00
   1  21   0    0.00    6.70
  -2 -21   0   66.99   13.30
   2  21   0   74.59   13.50
  -3 -21   0    6.30   14.70
   3  21   0   12.20    8.50
  -4 -21   0   -8.30    7.80
   4  21   0   -2.20    8.30
  -5 -21   0   -1.40    9.40
   5  21   0    9.00    8.90
  -6 -21   0   15.90   11.70
   6  21   0   13.40   11.80
   0  22   0   19.80    8.90
   1  22   0   74.29   14.40
   2  22   0   -3.00    6.60
  -3 -22   0   13.20    9.80
   3  22   0   25.50    9.30
  -4 -22   0   23.30   11.40
   4  22   0   43.20   11.20
  -5 -22   0   11.00   10.80
   5  22   0   23.10   11.70
   0  23   0   -2.40    7.40
  -1 -23   0   -9.10    8.80
   1  23   0   23.70   10.00
   2  23   0   34.60   11.10
   3  23   0    0.50   10.20
   0  24   0   67.09   14.80
   1  24   0   20.80    9.60
  12   0  -1   -6.60    8.60
 -11   0   1   43.20   10.20
  11   0  -1   45.10   10.30
 -10   0   1   -8.20    5.80
  10   0  -1   -6.30    5.60
  -9   0   1  474.45   23.80
   9   0  -1  457.05   25.10
   8   0  -1   -1.80    3.50
  -8   0   1   -1.10    3.80
  -7   0   1   99.29    9.50
   7   0  -1   97.59   11.60
  -6   0   1    1.40    2.60
   6   0  -1    1.80    2.50
  -5   0   1   78.79    6.70
  -5   0   1   85.09    8.50
   5   0  -1   80.29    7.20
  -4   0   1    2.40    1.20
   4   0  -1   -1.50    1.20
   4   0  -1   -0.50    1.50
  -4   0   1    1.20    1.80
  -3   0   1   77.09    5.10
   3   0  -1   81.29    6.30
  -3   0   1   74.79    5.00
   3   0  -1   78.89    5.10
   2   0  -1   -0.50    0.60
  -2   0   1    0.30    0.90
  -2   0   1    0.50    0.60
   2   0  -1    0.00    0.90
  -1   0   1 2081.99   43.10
   1   0  -1 2034.20   43.10
  -1   0   1 2062.89   43.80
   1   0  -1 2061.99   43.80
  -1   0  -1 2099.39   44.80
   1   0   1 2086.39   45.50
  -1   0  -1 2089.19   45.20
   1   0   1 2119.49   45.40
   2   0   1   -0.70    0.70
  -2   0  -1    0.40    0.80
   2   0   1   -0.70    0.80
  -2   0  -1    2.00    1.20
   3   0   1  235.58    9.40
  -3   0  -1  243.18   10.50
  -3   0  -1  246.38   10.00
   3   0   1  239.98   10.60
   4   0   1   -0.60    1.60
  -4   0  -1    0.80    2.00
  -4   0  -1    0.60    1.60
   4   0   1    0.40    1.70
  -5   0  -1  453.95   17.90
   5   0   1  446.66   18.90
   6   0   1    3.30    3.10
  -6   0  -1   -3.70    2.20
  -7   0  -1  524.95   23.00
   7   0   1  578.94   25.60
   8   0   1    2.20    4.10
  -8   0  -1   -0.80    7.00
   9   0   1    0.50    4.80
  -9   0  -1    5.80    6.10
 -10   0  -1   -4.80    6.20
  10   0   1    0.10    6.20
 -11   0  -1    4.40    9.70
  11   0   1   -1.40    7.50
  12   0   1  -12.30    9.40
 -12  -1   1   28.10   12.40
  12  -1  -1   37.50   11.70
  12   1  -1   55.09   13.60
  11  -1  -1    5.90    6.70
 -11  -1   1    1.80    8.20
  11   1  -1    5.90    6.80
 -11   1   1  -10.50    7.50
  10  -1  -1  145.79   15.80
 -10  -1   1  157.98   15.70
  10   1  -1  127.99   14.90
 -10   1   1  143.69   14.50
   9  -1  -1    8.50    6.30
  -9  -1   1   19.20    7.40
   9   1  -1   22.10    7.20
  -9   1   1   31.20    6.90
  -8  -1   1  172.48   14.10
   8  -1  -1  182.28   14.40
  -8   1   1  168.28   12.90
   8   1  -1  170.38   13.90
   7  -1  -1   43.70    7.90
  -7  -1   1   36.10    6.70
  -7   1   1   35.20    6.40
   7   1  -1   45.30    7.30
   6  -1  -1  543.45   20.30
   6  -1  -1  579.74   22.80
  -6  -1   1  570.34   22.40
  -6   1   1  552.94   20.90
   6   1  -1  542.55   22.50
  -5  -1   1  314.27   14.40
   5  -1  -1  298.97   12.70
   5  -1  -1  280.67   13.90
  -5   1   1  271.97   15.30
   5   1  -1  302.17   14.30
  -5   1   1  302.77   13.00
  -4  -1   1  401.76   18.40
   4  -1  -1  385.06   14.80
  -4  -1   1  346.97   14.30
   4  -1  -1  366.16   13.20
   4   1  -1  354.86   14.40
  -4   1   1  357.76   14.40
   4   1  -1  365.36   14.20
  -4   1   1  360.46   13.30
   3  -1  -1    2.30    1.30
  -3  -1   1    2.00    1.50
  -3  -1   1    4.10    2.10
   3  -1  -1    3.50    1.30
  -3   1   1    5.50    1.70
  -3   1   1    3.90    1.70
   3   1  -1    1.20    1.00
   3   1  -1    1.60    1.60
  -2  -1   1   47.80    3.30
   2  -1  -1   53.49    3.20
   2  -1  -1   44.40    3.20
  -2  -1   1   49.30    3.70
   2   1  -1   47.70    3.40
  -2   1   1   48.30    3.00
   2   1  -1   50.79    3.70
  -2   1   1   40.80    3.00
   1  -1  -1  834.72   19.00
  -1  -1   1  877.01   19.40
   1  -1  -1  848.12   19.20
  -1  -1   1  865.41   20.40
  -1   1   1  852.71   19.00
   1   1  -1  847.02   19.40
   1   1  -1  849.52   20.30
  -1   1   1  878.31   19.30
   0  -1  -1  293.37    7.40
   0  -1   1  290.57    7.30
   0   1   1  288.37    7.00
   1  -1   1  228.78    6.20
  -1  -1  -1  226.88    7.40
  -1  -1  -1  231.98    7.40
   1  -1   1  228.28    7.50
  -1   1  -1  225.38    6.30
   1   1   1  232.78    7.40
  -1   1  -1  225.28    7.40
   1   1   1  236.48    7.50
  -2  -1  -1 1282.87   31.30
  -2  -1  -1 1294.37   31.40
   2  -1   1 1286.57   29.40
   2  -1   1 1291.17   31.60
   2   1   1 1295.87   31.00
   2   1   1 1290.97   31.50
  -2   1  -1 1299.97   31.50
  -2   1  -1 1289.47   29.70
   3  -1   1   53.69    3.90
   3  -1   1   54.09    4.80
  -3  -1  -1   46.20    4.60
  -3  -1  -1   52.99    4.60
  -3   1  -1   64.39    4.30
   3   1   1   45.70    4.20
   3   1   1   51.19    4.70
  -3   1  -1   50.99    4.70
  -4  -1  -1  171.08    9.50
  -4  -1  -1  148.69    8.90
   4  -1   1  165.78    9.70
   4  -1   1  145.09    7.70
   4   1   1  146.19    8.50
  -4   1  -1  155.68    8.30
   4   1   1  168.08    9.80
  -4   1  -1  150.78    9.30
   5  -1   1   13.40    4.30
  -5  -1  -1   14.00    3.90
  -5   1  -1   13.30    3.50
   5   1   1   13.80    4.00
   6  -1   1  130.69   10.90
  -6  -1  -1  159.98   11.00
   6  -1   1  150.18   10.70
  -6   1  -1  165.08   10.40
   6   1   1  151.98   11.90
   7  -1   1   83.69    9.60
  -7  -1  -1   55.89    8.50
   7   1   1   62.69    8.50
  -7   1  -1   71.39    8.10
   8  -1   1    3.90    4.10
  -8  -1  -1    0.40    4.90
  -8   1  -1    0.40    3.70
   8   1   1    0.70    3.60
  -9  -1  -1   91.19   12.40
   9  -1   1   82.79   11.90
   9   1   1   62.99   11.40
  -9   1  -1   74.99   11.00
 -10  -1  -1  127.19   15.60
  10  -1   1  133.49   15.80
 -10   1  -1  115.39   14.30
  10   1   1  131.39   15.20
  11  -1   1   58.89   13.00
 -11  -1  -1   63.79   13.50
 -11   1  -1   90.39   14.90
  11   1   1   56.09   12.50
  12  -1   1   -2.10    9.80
  12   1   1   32.10   13.20
 -12   1  -1    5.40   11.40
 -12  -2   1   15.00   11.10
  12  -2  -1   15.60    9.30
  12   2  -1   -3.40    9.00
 -12   2   1   -8.20   10.00
  11  -2  -1    5.30    7.30
 -11  -2   1    5.10    8.60
  11   2  -1    2.90    6.50
 -11   2   1    3.30    7.40
  10  -2  -1   24.40    8.00
 -10  -2   1   24.70    8.50
 -10   2   1   26.00    7.90
  10   2  -1   26.90    7.70
  -9  -2   1  339.87   21.30
   9  -2  -1  401.66   22.50
   9   2  -1  362.86   22.40
   8  -2  -1    0.90    4.20
  -8  -2   1    2.90    4.10
  -8   2   1    2.10    3.80
   8   2  -1    1.80    4.00
  -7  -2   1   20.20    5.70
   7  -2  -1   14.20    4.60
  -7   2   1   18.70    4.40
   7   2  -1   19.50    4.50
   6  -2  -1   17.50    4.00
  -6  -2   1   17.20    4.60
   6  -2  -1   14.80    4.20
  -6   2   1   30.60    4.60
   6   2  -1   26.20    5.30
   5  -2  -1  383.66   14.30
   5  -2  -1  393.36   16.80
  -5  -2   1  430.36   17.80
   5   2  -1  381.86   17.30
  -5   2   1  384.26   14.70
   5   2  -1  385.26   16.80
   4  -2  -1   78.99    6.20
   4  -2  -1   72.39    5.00
  -4  -2   1   67.49    5.80
  -4  -2   1   69.69    6.00
  -4   2   1   74.59    5.20
   4   2  -1   79.59    6.40
   3  -2  -1  513.55   14.50
  -3  -2   1  534.85   17.50
  -3  -2   1  505.65   16.20
   3  -2  -1  542.45   16.60
   3   2  -1  522.45   16.60
  -3   2   1  496.55   14.40
  -3   2   1  498.85   16.20
   3   2  -1  519.15   17.00
   2  -2  -1 1882.91   42.90
  -2  -2   1 1914.81   43.10
  -2  -2   1 1947.51   44.60
  -2   2   1 1894.21   43.10
  -2   2   1 1932.61   41.10
   2   2  -1 1868.21   44.10
   2   2  -1 1925.71   43.40
   1  -2  -1   10.70    1.40
   1  -2  -1   10.70    0.90
  -1  -2   1    9.40    1.70
  -1   2   1   11.30    0.90
  -1   2   1   14.60    1.60
   1   2  -1   10.90    1.50
   1   2  -1   11.30    1.70
   0  -2   1   22.10    1.60
   0  -2  -1   23.40    1.70
   0   2  -1   23.80    1.70
   0   2   1   23.10    1.90
  -1  -2  -1 3383.96   70.79
   1  -2   1 3355.16   68.09
  -1  -2  -1 3376.46   71.49
   1  -2   1 3341.57   70.99
  -1   2  -1 3339.27   70.99
   1   2   1 3305.07   70.89
   1   2   1 3260.57   70.99
  -1   2  -1 3364.46   68.29
  -2  -2  -1 9996.90  205.28
  -2  -2  -1 9973.50  205.88
   2  -2   1 9999.00  201.78
   2  -2   1 9966.00  205.48
   2   2   1 9888.91  205.58
  -2   2  -1 9942.41  205.48
   2   2   1 9927.71  205.38
  -2   2  -1 9805.22  202.08
  -3  -2  -1    5.80    1.90
   3  -2   1    3.50    1.60
   3  -2   1    4.40    1.50
  -3  -2  -1    3.50    1.80
   3   2   1    6.70    2.30
  -3   2  -1    5.80    1.60
  -3   2  -1    2.20    1.30
   3   2   1    4.30    2.00
  -4  -2  -1  166.58    9.60
  -4  -2  -1  166.78    9.80
   4  -2   1  180.38   10.20
   4  -2   1  164.98    7.60
   4   2   1  171.88   10.10
   4   2   1  171.68    9.40
  -4   2  -1  168.08    9.80
   5  -2   1  106.89    8.70
  -5  -2  -1  117.99    9.10
   5  -2   1  114.69    7.20
  -5   2  -1  131.39    7.90
   5   2   1  120.69    9.30
   6  -2   1   34.70    6.40
   6  -2   1   22.70    4.30
  -6  -2  -1   26.40    6.00
  -6   2  -1   26.40    4.80
   6   2   1   17.80    4.90
  -7  -2  -1  591.54   25.40
   7  -2   1  556.34   25.00
  -7   2  -1  544.05   22.00
   7   2   1  516.75   24.60
  -8  -2  -1    8.30    4.90
   8  -2   1    2.70    4.60
  -8   2  -1    2.50    3.70
   8   2   1   14.90    5.70
  -9  -2  -1   18.40    7.00
   9  -2   1   18.70    7.40
   9   2   1   20.50    7.50
  -9   2  -1   23.70    6.50
 -10  -2  -1    3.80    7.10
  10  -2   1   -6.00    5.70
 -10   2  -1   -3.60    6.60
  10   2   1   -3.60    6.00
 -11  -2  -1   50.69   13.00
  11  -2   1   48.90   11.70
  11   2   1   21.40    8.20
  12  -2   1    1.00    9.40
  12   2   1   13.70   11.60
 -12  -3   1   11.30   11.20
  12  -3  -1   15.10   11.00
 -12   3   1   -1.60    9.80
  12   3  -1    3.70    9.20
  11  -3  -1   -8.90    6.40
 -11  -3   1    6.30    8.70
  11   3  -1    8.20    8.90
 -11   3   1    5.90    7.50
  10  -3  -1  189.08   16.70
 -10  -3   1  182.48   18.00
 -10   3   1  192.48   14.90
  10   3  -1  154.58   17.40
   9  -3  -1   61.29    9.40
  -9  -3   1   32.60    9.00
   9   3  -1   23.80    7.30
  -9   3   1   26.10    6.70
   8  -3  -1  131.59   12.80
  -8  -3   1  117.09   12.10
  -8   3   1  113.79   10.20
   8   3  -1  130.89   12.90
   7  -3  -1   75.39    7.30
  -7  -3   1   72.99   10.60
   7  -3  -1   81.59    9.20
   7   3  -1   84.79    9.60
  -7   3   1   82.49    7.70
   6  -3  -1   28.00    5.30
  -6  -3   1   29.60    5.50
   6  -3  -1   18.30    3.90
  -6   3   1   18.70    3.90
   6   3  -1   20.20    5.10
  -5  -3   1   42.00    5.90
   5  -3  -1   41.90    4.50
   5  -3  -1   31.40    5.00
   5   3  -1   48.90    6.10
  -5   3   1   37.60    4.30
  -4  -3   1 1943.31   49.70
   4  -3  -1 1910.91   43.90
  -4  -3   1 1925.21   47.70
   4  -3  -1 1921.11   47.90
   4   3  -1 1837.92   48.50
   4   3  -1 1964.10   48.60
  -4   3   1 1924.51   44.20
  -4   3   1 1875.91   47.90
  -3  -3   1  169.88    8.20
   3  -3  -1  160.88    8.10
  -3  -3   1  167.68    9.10
   3  -3  -1  162.78    6.10
  -3   3   1  147.89    7.90
   3   3  -1  158.78    8.60
   3   3  -1  158.38    8.20
  -3   3   1  159.98    6.10
   2  -3  -1   10.70    2.00
  -2  -3   1   11.80    2.20
  -2  -3   1   13.50    2.50
   2  -3  -1   11.70    1.30
   2   3  -1   13.80    2.30
  -2   3   1   12.90    2.10
  -2   3   1   11.50    1.20
   2   3  -1   12.40    2.40
   1  -3  -1 1610.54   33.70
  -1  -3   1 1589.34   37.00
   1   3  -1 1602.14   36.90
  -1   3   1 1595.94   36.10
  -1   3   1 1614.84   33.60
   0  -3  -1  107.09    4.40
   0  -3   1  105.49    4.30
   0   3   1  110.69    4.40
   0   3  -1  110.59    4.90
   1  -3   1 1590.44   37.00
  -1  -3  -1 1611.44   37.50
  -1  -3  -1 1581.84   36.50
  -1   3  -1 1590.44   37.00
  -1   3  -1 1608.44   33.70
  -1   3  -1 1622.24   33.30
   1   3   1 1646.64   37.00
   1   3   1 1615.44   37.20
   2  -3   1 8357.86  175.08
  -2  -3  -1 8431.56  174.38
   2  -3   1 8445.16  169.48
  -2  -3  -1 8430.06  175.98
   2   3   1 8352.96  175.08
   2   3   1 8337.87  174.98
  -2   3  -1 8329.27  169.88
  -2   3  -1 8292.27  174.68
  -3  -3  -1  434.86   16.20
   3  -3   1  426.56   15.50
  -3  -3  -1  437.56   15.30
   3  -3   1  434.26   11.80
  -3   3  -1  431.06   12.20
   3   3   1  407.66   15.40
   3   3   1  434.36   15.90
  -3   3  -1  426.46   15.60
  -4  -3  -1   35.70    4.80
   4  -3   1   39.10    4.80
  -4  -3  -1   31.80    4.90
   4  -3   1   41.50    3.30
   4   3   1   36.00    4.90
   4   3   1   35.20    4.80
  -4   3  -1   30.30    4.60
  -4   3  -1   40.70    3.70
   5  -3   1   -2.50    2.10
   5  -3   1    0.20    1.70
  -5  -3  -1    0.60    2.30
   5   3   1    0.70    2.10
  -5   3  -1    0.90    1.70
   6  -3   1  477.25   21.40
   6  -3   1  483.65   17.60
  -6  -3  -1  473.05   21.70
   6   3   1  493.65   22.30
  -6   3  -1  470.35   17.80
   7  -3   1   91.49   10.00
  -7  -3  -1   82.19   10.20
   7   3   1   81.79    9.90
  -7   3  -1   94.99    8.10
   8  -3   1   83.29   10.70
  -8  -3  -1   58.69    9.40
   8   3   1   48.90    9.30
  -8   3  -1   61.09    8.20
   9  -3   1   16.00    7.40
  -9  -3  -1    1.60    6.60
  -9   3  -1    7.30    5.90
   9   3   1   10.30    6.30
  10  -3   1  -12.30    5.40
 -10  -3  -1  -11.50    6.50
  10   3   1    3.70    6.80
 -10   3  -1   -3.10    6.10
 -11  -3  -1   17.10   10.00
  11  -3   1   -1.20    7.80
 -11   3  -1   -0.90    8.20
  11   3   1   10.90    8.10
  12  -3   1  120.29   23.90
 -12  -3  -1  126.99   22.00
  12  -4  -1    3.60    9.80
 -12  -4   1   14.40   11.30
  12   4  -1   -4.70    8.60
  11  -4  -1    3.10    8.20
 -11  -4   1   25.50   10.30
  11   4  -1    5.60    7.70
 -11   4   1   -1.40    7.00
  10  -4  -1   48.10   12.90
 -10  -4   1   31.40   10.80
  10   4  -1   37.70   16.60
  -9  -4   1   60.89   11.50
   9  -4  -1   55.09    9.40
  -9   4   1   48.50    8.30
   9   4  -1   54.79   10.40
   8  -4  -1    6.70    5.10
  -8  -4   1    8.90    5.60
   8   4  -1   -2.20    4.30
  -8   4   1    4.30    3.60
  -7  -4   1    2.80    3.40
   7  -4  -1    2.10    3.20
  -7   4   1    5.60    2.90
   7   4  -1   -2.70    3.10
   6  -4  -1    4.50    2.90
  -6  -4   1    1.00    2.90
   6  -4  -1    6.00    3.80
   6   4  -1    7.20    3.50
  -6   4   1    2.20    2.00
  -5  -4   1  239.68   13.80
   5  -4  -1  235.58   12.80
   5  -4  -1  247.28    9.80
  -5   4   1  267.47   10.30
   5   4  -1  250.67   13.40
   4  -4  -1 1144.29   31.80
   4  -4  -1 1135.59   26.80
  -4  -4   1 1090.79   33.50
  -4  -4   1 1134.79   31.40
   4   4  -1 1113.19   32.30
  -4   4   1 1109.39   26.80
  -4   4   1 1073.89   31.50
   4   4  -1 1094.59   32.70
  -3  -4   1  662.63   20.20
  -3  -4   1  695.63   22.40
   3  -4  -1  671.13   20.50
  -3   4   1  675.63   16.10
   3   4  -1  662.13   20.80
   3   4  -1  641.14   21.30
  -3   4   1  690.63   20.80
   2  -4  -1    3.30    0.60
   2  -4  -1    3.90    0.70
  -2  -4   1    1.60    1.10
  -2  -4   1    0.70    1.10
   2   4  -1    1.00    1.40
  -2   4   1    2.20    1.30
   2   4  -1    3.70    1.80
  -1  -4   1  155.28    7.20
   1  -4  -1  169.28    5.20
  -1   4   1  166.38    5.00
   1   4  -1  161.08    7.20
   0  -4   1   12.40    1.80
   0  -4  -1   15.80    2.00
   0   4  -1   14.50    1.80
   0   4   1   14.50    1.80
   1  -4   1  314.07    8.00
  -1  -4  -1  329.57   11.50
  -1   4  -1  318.77   11.00
   1   4   1  317.17   10.70
   1   4   1  303.17   10.80
  -1   4  -1  317.57    8.10
  -2  -4  -1    0.40    1.30
   2  -4   1    2.10    0.50
   2  -4   1    2.60    1.20
  -2  -4  -1    1.50    1.70
  -2   4  -1    0.30    1.20
   2   4   1    2.10    1.40
  -2   4  -1    3.10    0.60
   2   4   1    2.10    1.20
   3  -4   1  664.83   15.50
  -3  -4  -1  622.04   20.50
   3  -4   1  656.63   21.10
  -3  -4  -1  646.94   21.80
  -3   4  -1  658.33   16.00
  -3   4  -1  706.73   24.00
   3   4   1  672.43   21.60
   3   4   1  600.74   21.00
   4  -4   1  407.06   16.90
   4  -4   1  418.46   12.20
  -4  -4  -1  438.56   18.20
  -4   4  -1  421.76   12.90
   4   4   1  412.46   17.30
   4   4   1  416.56   17.30
  -4   4  -1  439.06   19.80
   5  -4   1  616.74   17.80
   5  -4   1  604.34   23.00
  -5  -4  -1  663.83   25.00
   5   4   1  603.64   23.80
   6  -4   1   -0.40    3.00
   6  -4   1    1.30    2.30
  -6  -4  -1    2.20    3.30
  -6   4  -1    2.80    2.30
   6   4   1    1.20    3.10
  -7  -4  -1   13.10    4.90
   7  -4   1    1.40    3.70
   7   4   1    4.40    4.20
  -7   4  -1    2.60    3.10
  -8  -4  -1   60.39   10.10
   8  -4   1   46.70    9.10
   8   4   1   70.39   10.30
  -8   4  -1   60.69    8.00
   9  -4   1    5.20    5.30
  -9  -4  -1    2.30    6.00
  -9   4  -1    5.20    5.10
   9   4   1   -9.30    4.90
 -10  -4  -1   22.60    9.10
  10  -4   1   20.20    9.10
  10   4   1   14.40    7.40
 -10   4  -1   24.30    7.60
 -11  -4  -1   93.39   17.50
  11  -4   1   66.39   14.40
 -11   4  -1   52.79   10.50
  11   4   1   44.20   12.20
 -12  -4  -1   19.70   12.80
  12   4   1   14.90   13.10
 -12  -5   1   23.00   12.80
  12  -5  -1   41.00   12.80
  12   5  -1    4.10   10.10
  11  -5  -1   -0.60    7.40
 -11  -5   1   -8.30    8.50
  11   5  -1   -2.00    7.50
 -11   5   1    3.40    7.00
  10  -5  -1   43.10   12.10
 -10  -5   1   62.59   13.00
 -10   5   1   34.10    7.70
  10   5  -1   21.70    9.00
  -9  -5   1    1.80    5.90
   9  -5  -1    3.80    5.10
  -9   5   1    7.30    4.80
   9   5  -1    0.10    4.80
   8  -5  -1  263.37   17.70
  -8  -5   1  257.07   18.30
   8   5  -1  288.37   18.70
  -8   5   1  271.17   13.20
  -7  -5   1   11.20    4.50
   7  -5  -1    6.50    3.50
  -7   5   1   16.30    3.60
   7   5  -1   14.20    4.40
   6  -5  -1  151.28    7.60
   6  -5  -1  143.09   11.00
  -6  -5   1  143.79   12.30
  -6   5   1  138.59    7.40
   6   5  -1  137.59   11.30
  -5  -5   1   -2.50    2.20
   5  -5  -1   -0.80    1.30
   5  -5  -1    0.40    1.80
  -5   5   1    0.70    1.30
   5   5  -1   -3.20    1.90
   4  -5  -1  427.86   11.30
   4  -5  -1  421.66   16.50
  -4  -5   1  428.16   18.30
  -4  -5   1  384.16   15.90
  -4   5   1  375.16   15.90
   4   5  -1  417.46   17.10
  -4   5   1  411.26   11.20
  -3  -5   1   94.49    6.50
   3  -5  -1   87.39    2.80
  -3  -5   1   92.09    7.30
   3  -5  -1   91.69    3.10
   3  -5  -1   93.59    6.40
  -3   5   1   93.09    6.50
   3   5  -1   94.29    7.10
   3   5  -1   92.29    6.60
   2  -5  -1    2.70    0.60
  -2  -5   1    0.70    1.30
   2  -5  -1    2.10    0.60
   2   5  -1    1.20    1.40
  -2   5   1    1.40    1.30
   2   5  -1    1.80    1.40
   1  -5  -1  276.47    8.20
  -1  -5   1  280.07   10.80
   1   5  -1  283.87   10.70
  -1   5   1  282.47    8.00
   0  -5  -1  142.09    6.50
   0  -5   1  154.98    6.40
   0   5  -1  147.89    6.20
   0   5   1  149.29    6.30
   1  -5   1  172.68    5.60
   1   5   1  188.88    8.20
   1   5   1  182.78    8.10
  -1   5  -1  180.88    5.70
  -1   5  -1  176.68    8.20
   2  -5   1 1258.77   32.70
  -2  -5  -1 1260.47   33.70
  -2  -5  -1 1214.98   31.70
   2   5   1 1220.98   32.90
  -2   5  -1 1240.28   32.70
   2   5   1 1244.28   32.70
   3  -5   1  152.68    3.90
   3  -5   1  148.49    8.70
  -3  -5  -1  157.68    9.60
  -3  -5  -1  138.59    8.30
  -3   5  -1  156.98    9.10
   3   5   1  130.59    8.60
  -3   5  -1  142.39    4.30
   3   5   1  141.89    8.80
  -4  -5  -1 1183.88   36.10
   4  -5   1 1149.58   26.20
   4  -5   1 1175.68   34.50
   4   5   1 1162.18   34.90
  -4   5  -1 1162.18   27.10
   5  -5   1    1.70    2.40
   5  -5   1    0.10    1.50
  -5  -5  -1    1.50    2.80
  -5   5  -1    1.60    1.70
   5   5   1    0.60    2.90
   6  -5   1  148.79   13.80
   6  -5   1  151.58    7.50
  -6  -5  -1  155.58   12.80
  -6   5  -1  156.08    8.40
   6   5   1  151.88   12.30
  -7  -5  -1   63.29    9.30
   7  -5   1   44.50    7.90
   7   5   1   43.00    8.10
  -7   5  -1   44.00    5.30
   8  -5   1  278.07   18.50
  -8  -5  -1  227.98   17.70
   8   5   1  239.08   18.00
  -8   5  -1  259.17   13.20
  -9  -5  -1   -6.60    4.90
   9  -5   1   -4.70    5.10
   9   5   1   -0.70    5.10
  -9   5  -1   -3.40    4.50
  10  -5   1   50.59   11.00
  10   5   1   48.40   11.90
 -10   5  -1   56.89   10.00
 -11  -5  -1    6.00   10.50
  11  -5   1    1.90    9.50
  11   5   1   16.70    9.10
 -11   5  -1   -0.70   12.10
  12  -5   1    8.60   10.40
 -12  -5  -1   44.50   14.60
  12   5   1   11.80   12.20
 -12  -6   1   -4.60   11.80
  12  -6  -1  -14.90    9.50
  12   6  -1   15.80   14.90
  11  -6  -1   29.30    9.60
 -11  -6   1   17.70   11.00
  11   6  -1   13.00    9.10
 -10  -6   1    6.80    8.60
  10  -6  -1    1.20    5.90
  10   6  -1    3.40    6.40
 -10   6   1    0.90    5.00
   9  -6  -1   50.09   10.00
  -9  -6   1   33.30    9.60
   9  -6  -1   37.90    7.30
   9   6  -1   37.60   10.00
  -9   6   1   50.79    6.80
   8  -6  -1   14.80    5.70
  -8  -6   1   25.90    7.40
   8   6  -1   30.40    8.20
  -8   6   1   20.80    4.60
  -7  -6   1  105.29   11.40
   7  -6  -1  117.49   10.80
   7  -6  -1   97.59    6.50
   7   6  -1  103.89   10.60
  -7   6   1   99.69    6.80
   6  -6  -1  108.29    5.70
   6  -6  -1  105.39    9.80
  -6  -6   1  131.69   13.90
   6   6  -1  111.49   11.90
  -6   6   1  114.49    6.10
   5  -6  -1 1061.59   24.90
   5  -6  -1 1060.49   33.20
  -5  -6   1 1150.98   36.80
   5   6  -1 1040.70   34.10
  -5   6   1 1068.69   25.10
   4  -6  -1   36.80    5.00
  -4  -6   1   29.10    5.30
   4  -6  -1   38.90    1.60
   4  -6  -1   35.30    1.80
   4   6  -1   33.60    5.00
   3  -6  -1  460.35   16.80
  -3  -6   1  462.25   18.50
  -3   6   1  464.65   17.00
   3   6  -1  466.15   17.30
   3   6  -1  442.46   17.70
  -2  -6   1   94.49    7.10
   2  -6  -1  110.19    3.60
  -2   6   1  109.29    3.30
   2   6  -1  107.09    6.80
  -2   6   1   93.39    6.50
  -1  -6   1  178.08    8.70
   1  -6  -1  184.48    6.70
  -1   6   1  184.88    6.40
   1   6  -1  173.18    8.30
   0  -6  -1  650.73   18.30
   0  -6   1  645.74   17.80
   0   6  -1  624.94   17.50
   0   6   1  630.44   17.70
  -1  -6  -1 1461.35   36.90
   1  -6   1 1454.65   32.30
  -1   6  -1 1476.75   32.30
   1   6   1 1406.16   36.00
  -1   6  -1 1443.86   36.80
  -2  -6  -1  505.55   18.30
   2   6   1  495.55   17.50
  -2   6  -1  522.75   18.00
  -3  -6  -1  645.74   22.90
  -3  -6  -1  603.54   20.40
   3  -6   1  648.84   21.60
   3   6   1  631.24   21.70
  -3   6  -1  601.94   21.30
   3   6   1  615.34   21.80
   4  -6   1  213.08   11.70
  -4  -6  -1  175.98   11.80
   4  -6   1  174.08    4.50
  -4   6  -1  168.78    4.90
   4   6   1  184.08   11.50
   5  -6   1  431.66   11.40
   5  -6   1  426.76   19.40
  -5  -6  -1  432.26   20.70
  -5   6  -1  416.06   12.10
   5   6   1  458.25   20.40
   6  -6   1   77.79    4.80
   6  -6   1   77.69    8.80
  -6  -6  -1   78.69    9.40
  -6   6  -1   74.49    5.00
   6   6   1   88.99    9.70
   7  -6   1  137.79   12.30
  -7  -6  -1  123.89   12.90
   7  -6   1  118.19    7.00
  -7   6  -1  123.29    7.50
   7   6   1  131.49   12.60
  -8  -6  -1   27.20    7.70
   8  -6   1   31.00    8.20
   8   6   1   38.60    9.30
  -8   6  -1   16.80    4.40
   9  -6   1   -1.60    5.50
  -9  -6  -1   -4.00    5.80
   9   6   1    0.80    5.70
 -10  -6  -1    0.60    7.90
  10  -6   1   -3.60    7.00
 -10   6  -1   -2.10    5.60
  10   6   1    0.10    6.70
 -11  -6  -1   59.29   15.20
  11  -6   1   59.49   13.00
  11   6   1   60.19   13.50
 -12  -7   1    2.00   12.70
  12   7  -1   -0.10   11.40
 -11  -7   1    4.00   10.60
  11  -7  -1   19.50   10.70
  11   7  -1    5.60    9.40
  10  -7  -1   29.00    9.60
 -10  -7   1   41.00   10.70
  10   7  -1   40.40    9.70
 -10   7   1   44.90    7.10
  -9  -7   1    5.00    6.60
   9  -7  -1   15.30    5.60
   9   7  -1   12.00    7.20
  -9   7   1    5.40    3.60
   8  -7  -1    3.30    3.40
   8  -7  -1    2.30    3.90
  -8  -7   1    8.20    6.00
   8   7  -1    4.70    4.30
  -8   7   1    0.00    2.70
   7  -7  -1    9.80    4.80
   7  -7  -1    7.10    2.40
  -7  -7   1    6.50    4.60
   7   7  -1    1.50    4.00
  -7   7   1   11.00    2.40
  -6  -7   1   37.60    7.30
   6  -7  -1   37.60    2.70
   6  -7  -1   42.00    2.50
   6  -7  -1   59.29    8.90
   6   7  -1   36.10    6.50
  -5  -7   1    5.50    3.20
   5  -7  -1    5.10    2.90
   5   7  -1    6.90    3.60
   4  -7  -1  706.33   24.00
  -4  -7   1  688.13   25.90
   4   7  -1  648.64   24.10
  -3  -7   1  108.89    8.70
   3   7  -1  104.79    8.90
  -3   7   1  113.69    7.90
   3   7  -1  110.79    8.10
   2  -7  -1   29.30    2.00
  -2  -7   1   29.80    4.20
  -2   7   1   30.60    4.30
   2   7  -1   31.60    4.20
   2   7  -1   18.70    3.70
  -2   7   1   28.50    1.70
  -1  -7   1   37.80    4.20
   1  -7  -1   33.30    3.00
  -1   7   1   44.00    3.00
   1   7  -1   41.30    4.20
   0  -7  -1   51.99    4.40
   0  -7   1   54.69    4.20
   0   7   1   50.99    4.20
   0   7  -1   52.29    4.10
  -1  -7  -1   99.59    6.70
   1  -7   1   95.89    4.60
  -1   7  -1   94.09    4.50
  -1   7  -1   95.79    6.70
   1   7   1   88.29    6.10
  -2  -7  -1  207.98   11.10
  -2   7  -1  186.68   10.10
  -2   7  -1  193.08    4.60
   2   7   1  195.58   10.30
  -2   7  -1  194.48    4.50
   2   7   1  196.98   10.30
   3  -7   1  159.58    9.80
  -3  -7  -1  153.18   10.60
   3   7   1  149.09    9.70
  -4  -7  -1  122.89   10.20
   4  -7   1  128.09    9.40
   4   7   1  108.49    9.20
   5  -7   1    1.90    2.90
  -5  -7  -1    3.30    3.40
   5   7   1    8.40    3.50
   6  -7   1  492.15   22.50
   6  -7   1  458.45   11.80
  -6  -7  -1  508.95   24.60
  -6   7  -1  480.55   12.70
   6   7   1  472.85   22.80
   7  -7   1   65.59    9.50
  -7  -7  -1   56.19   10.10
   7   7   1   49.70    8.90
  -7   7  -1   38.30    4.00
   8  -7   1   14.40    6.60
  -8  -7  -1    6.50    5.70
   8  -7   1   12.00    3.40
  -8   7  -1   11.90    3.60
   8   7   1    8.10    6.20
  -9  -7  -1   20.40    9.10
   9  -7   1   20.60    7.50
  -9   7  -1   10.40    4.10
   9   7   1   17.10    8.30
  10  -7   1    0.20    6.40
 -10  -7  -1    2.30    8.10
  10   7   1    5.70    7.50
 -11  -7  -1  -17.80    9.90
  11  -7   1    8.60    8.60
  11   7   1    0.40    8.10
  11  -8  -1   -6.70    7.00
 -11  -8   1    7.70    9.60
  11   8  -1   -0.70    8.50
 -10  -8   1   -3.90    6.90
  10  -8  -1    2.00    6.30
  10   8  -1  -14.90    6.10
   9  -8  -1   25.70    7.40
   9  -8  -1   27.00    3.40
  -9  -8   1   27.90    8.70
   9   8  -1   24.00    6.80
   8  -8  -1    0.90    4.20
  -8  -8   1   -0.20    4.90
   8   8  -1   -1.60    4.10
   7  -8  -1   68.99    9.10
  -7  -8   1   46.20    8.90
   7   8  -1   49.50    8.60
   6  -8  -1   16.70    4.80
  -6  -8   1   14.30    6.10
   6   8  -1   20.20    4.90
  -5  -8   1  146.99   12.40
   5  -8  -1  151.68   11.00
   5   8  -1  157.88   11.90
  -4  -8   1   48.70    6.90
   4   8  -1   47.50    6.30
  -3  -8   1  894.01   29.80
   3   8  -1  875.51   28.30
   2  -8  -1  593.14   14.70
  -2  -8   1  612.24   21.60
  -2   8   1  589.84   14.50
  -2   8   1  572.94   20.40
   2   8  -1  613.44   20.80
   2   8  -1  590.34   21.00
  -1  -8   1   27.90    4.00
   1  -8  -1   27.80    2.90
   1   8  -1   33.80    4.40
  -1   8   1   24.20    2.80
   0  -8  -1    6.40    2.00
   0   8   1    8.00    2.30
   0   8  -1    5.70    1.80
   1  -8   1 1450.05   33.90
  -1  -8  -1 1509.25   39.00
  -1   8  -1 1442.66   33.80
   1   8   1 1416.36   37.50
  -2  -8  -1   11.60    3.70
   2   8   1    7.30    2.20
   2   8   1    8.20    3.40
  -2   8  -1    5.70    1.00
  -2   8  -1    6.50    0.90
  -3  -8  -1  305.37   15.70
   3   8   1  293.67   14.60
   4  -8   1    0.70    2.30
  -4  -8  -1    2.30    3.30
   4   8   1    0.10    2.30
  -5  -8  -1    9.60    4.20
   5   8   1    8.20    3.70
   6  -8   1   -1.10    3.00
  -6  -8  -1    0.10    3.70
   6   8   1   -3.80    3.40
  -7  -8  -1  445.96   25.00
   7  -8   1  500.55   24.20
   7   8   1  445.26   23.90
   8  -8   1   15.70    5.70
  -8  -8  -1   24.60    7.70
   8   8   1   22.60    7.60
   9  -8   1    6.70    6.10
   9   8   1   -1.00    6.30
 -10  -8  -1   -7.20    7.50
  10  -8   1    2.10    6.70
  10   8   1    5.40    8.00
  11  -8   1   26.40   10.20
 -11  -8  -1   55.79   15.90
  11   8   1   47.10   12.70
 -11  -9   1   16.90   10.50
  11  -9  -1   12.90   10.30
  11   9  -1   19.80    9.70
 -10  -9   1   18.70    9.70
  10  -9  -1   27.30    8.80
  10   9  -1   14.70    7.80
   9  -9  -1   41.30    8.70
  -9  -9   1   54.29   12.00
   9   9  -1   68.79   21.00
  -8  -9   1   84.69   12.20
   8  -9  -1   93.69   11.40
   8   9  -1   80.89   11.50
  -7  -9   1  157.48   14.90
   7  -9  -1  163.78   13.60
   7   9  -1  155.88   14.40
   6  -9  -1   49.80    7.60
  -6  -9   1   33.70    7.60
   6   9  -1   56.39    8.40
  -5  -9   1   24.10    6.10
   5   9  -1   34.70    6.70
  -4  -9   1  323.37   17.60
   4   9  -1  294.37   16.00
  -3  -9   1    7.70    3.40
   3   9  -1    1.90    2.50
  -2  -9   1  276.77   14.00
   2  -9  -1  265.47    8.60
  -2   9   1  263.77    8.10
   2   9  -1  282.27   13.60
   2   9  -1  291.17   13.80
   1  -9  -1  458.35   14.60
  -1  -9   1  423.56   16.90
  -1   9   1  466.85   14.00
   0  -9   1  595.84   19.00
   0  -9  -1  602.14   19.60
  -1  -9  -1   16.00    3.90
   1  -9   1   13.90    2.40
  -1   9  -1   12.40    2.30
   1   9   1   14.20    4.20
  -2  -9  -1  232.28   13.10
   2   9   1  256.87   13.20
  -2   9  -1  262.47    7.40
  -3  -9  -1   72.59    8.10
   3   9   1   88.39    8.10
  -4  -9  -1   25.90    6.80
   4   9   1   23.00    5.90
  -5  -9  -1    8.40    3.90
   5  -9   1    9.00    4.10
   5   9   1    5.40    3.20
   6  -9   1  368.76   20.00
  -6  -9  -1  398.66   22.50
   6   9   1  350.36   20.50
  -7  -9  -1   26.80    7.90
   7  -9   1   17.20    6.00
   7   9   1   35.60    8.30
  -8  -9  -1   98.29   13.80
   8  -9   1   97.59   12.00
   8   9   1   98.99   12.20
  -9  -9  -1  148.79   17.80
   9  -9   1  186.38   17.00
   9   9   1  177.88   18.20
  10  -9   1   37.00   11.30
 -10  -9  -1   42.30   12.70
  10   9   1   49.00   14.20
  11  -9   1   -0.20    8.20
 -11  -9  -1   -0.60   11.00
  11   9   1  -16.30    9.10
 -11 -10   1   65.09   16.70
  11 -10  -1   18.00   10.30
  11  10  -1   55.29   14.10
 -10 -10   1   -5.80    7.50
  10 -10  -1   -6.50    6.90
  10  10  -1    7.80    8.10
   9 -10  -1   35.20    8.90
  -9 -10   1   51.19   11.50
   9  10  -1   46.20   10.20
  -8 -10   1   -1.10    6.50
   8 -10  -1    2.30    5.10
   8  10  -1    1.60    5.00
   7 -10  -1    1.20    3.90
  -7 -10   1    4.10    4.00
   7  10  -1   -4.10    3.70
  -6 -10   1   43.50    9.60
   6  10  -1   23.80    6.80
  -5 -10   1    5.90    4.30
   5  10  -1    8.30    3.90
  -4 -10   1   81.39    9.40
   4  10  -1   78.49    8.70
  -3 -10   1  649.64   25.80
   3  10  -1  662.83   24.90
  -2 -10   1  309.87   15.60
   2 -10  -1  298.87    9.80
  -2  10   1  308.57    9.30
   2  10  -1  311.37   15.10
  -1 -10   1  257.77   12.70
   1  10  -1  234.88   12.10
  -1  10   1  237.58    9.60
   0 -10  -1   63.09    5.90
   0 -10   1   41.70    4.70
   0  10  -1   47.60    4.80
   0  10   1   49.00    5.10
  -1 -10  -1  133.59    9.20
   1 -10   1  129.99    6.70
   1  10   1  124.99   10.50
  -1  10  -1  112.79    6.20
   2 -10   1   14.40    1.90
  -2 -10  -1   15.10    4.30
  -2  10  -1   15.20    1.80
   2  10   1   10.50    3.70
  -3 -10  -1   27.10    6.00
   3  10   1   32.50    6.60
   4  10   1    8.80    3.50
  -5 -10  -1   98.39   11.20
   5  10   1   81.19    9.40
   6 -10   1    8.50    5.20
  -6 -10  -1    5.00    4.60
   6  10   1    6.30    4.70
   7 -10   1  201.28   15.70
  -7 -10  -1  167.08   16.70
   7  10   1  182.88   16.20
  -8 -10  -1  135.99   15.90
   8 -10   1  136.39   14.70
   8  10   1  114.79   14.00
  -9 -10  -1   13.60    8.30
   9 -10   1   23.70    7.90
   9  10   1   12.20    7.20
  10 -10   1    3.60    8.60
 -10 -10  -1    6.80   10.10
  10  10   1    4.70    8.30
 -11 -10  -1   15.20   17.00
  11  10   1   19.80   17.20
 -11 -11   1   43.80   20.60
  10 -11  -1   54.29   11.10
 -10 -11   1   59.19   15.00
  10  11  -1   68.49   14.00
  -9 -11   1   22.60    8.40
   9  11  -1   30.80    9.50
  -8 -11   1    5.20    6.70
   8  11  -1   19.10    7.20
  -7 -11   1   19.60    6.90
   7  11  -1   20.30    7.20
  -6 -11   1   15.90    6.40
   6  11  -1   25.80    6.60
  -5 -11   1  108.19   11.60
   5  11  -1   98.39   10.20
  -4 -11   1  342.07   19.40
   4  11  -1  342.67   18.50
  -3 -11   1  310.57   17.50
   3  11  -1  357.86   17.80
   2 -11  -1  276.77    9.70
  -2 -11   1  274.87   14.90
  -2  11   1  274.97    9.10
   2  11  -1  260.47   14.40
   1 -11  -1    5.20    2.40
  -1 -11   1    2.80    2.50
  -1  11   1    3.50    2.00
   0 -11   1  566.64   19.40
   0 -11  -1  541.25   19.50
   0  11   1  521.65   18.50
   0  11  -1  572.74   19.00
  -1 -11  -1    0.50    2.00
  -1  11  -1    5.80    2.00
  -2 -11  -1   28.90    6.20
   2 -11   1   31.70    2.70
   2  11   1   40.30    6.10
  -2  11  -1   37.60    2.80
  -3 -11  -1   41.70    6.80
   3  11   1   40.80   11.20
  -4 -11  -1  168.78   13.60
   4  11   1  169.88   13.00
  -5 -11  -1   74.29   11.00
   5  11   1   69.29    9.20
  -6 -11  -1  162.78   15.30
   6  11   1  171.38   15.20
  -7 -11  -1   94.59   12.10
   7  11   1   61.39   11.00
  -8 -11  -1   11.40    9.50
   8 -11   1    4.70    8.70
   8  11   1    3.10    6.00
  -9 -11  -1    6.00    7.90
   9 -11   1    3.70    6.30
   9  11   1  -11.90    6.30
 -10 -11  -1    1.30    9.60
  10 -11   1   -3.40    8.50
  10  11   1    6.30   10.20
 -10 -12   1  -11.60    9.50
  10  12  -1   -1.80   10.10
  -9 -12   1   61.89   12.70
   9  12  -1   75.49   14.80
  -8 -12   1   28.90   10.00
   8  12  -1   23.30    8.00
  -7 -12   1    7.20    5.80
   7  12  -1    1.10    4.50
  -6 -12   1   77.99   11.10
   6  12  -1   64.19   10.10
  -5 -12   1  384.86   22.10
   5  12  -1  318.97   19.40
  -4 -12   1    0.90    3.00
   4  12  -1    3.90    3.30
  -3 -12   1   -0.60    2.70
   3  12  -1    5.70    3.70
  -2 -12   1  149.69   11.20
   2 -12  -1  155.88    7.20
   2  12  -1  132.19   13.00
  -2  12   1  152.38    6.70
   1 -12  -1   12.80    3.10
  -1 -12   1   15.00    4.30
  -1  12   1    6.20    2.70
   0 -12   1  103.49    7.80
   0 -12  -1  109.69    8.20
   0  12   1  101.59    7.30
   0  12  -1  105.49    7.90
  -1 -12  -1 1637.04   46.10
   1 -12   1 1664.33   40.90
  -1  12  -1 1630.44   40.20
   2 -12   1   77.19    4.30
  -2 -12  -1   62.09    7.70
  -2  12  -1   77.89    4.30
  -3 -12  -1   26.20    6.80
   3  12   1   44.10    6.90
  -4 -12  -1   22.90    7.00
   4  12   1   21.80    5.70
  -5 -12  -1   -0.80    4.70
   5  12   1    6.00    4.30
  -6 -12  -1   16.40    7.00
   6  12   1   13.20    6.20
  -7 -12  -1  347.17   23.90
   7  12   1  383.26   24.50
  -8 -12  -1   21.30    8.00
   8  12   1   36.20   10.40
  -9 -12  -1    7.00    8.60
   9  12   1   27.40    9.00
 -10 -12  -1   17.10   12.40
  10  12   1    2.40    8.50
 -10 -13   1    1.70    8.80
  10  13  -1    7.20   10.00
  -9 -13   1    5.20    9.50
   9  13  -1   16.20    8.50
  -8 -13   1   22.60    9.10
   8  13  -1   32.30   10.30
  -7 -13   1  162.58   17.20
   7  13  -1  168.78   16.30
  -6 -13   1   41.00   10.00
   6  13  -1   38.00    9.00
  -5 -13   1   12.70    6.00
   5  13  -1   15.20    6.60
  -4 -13   1  161.88   13.70
   4  13  -1  134.19   12.60
  -3 -13   1  178.98   13.90
   3  13  -1  185.88   13.60
  -2 -13   1   73.89    8.40
   2 -13  -1   70.99    5.20
   2  13  -1   67.09    7.70
  -2  13   1   60.59    4.50
   1 -13  -1    3.70    2.30
  -1 -13   1   14.00    4.10
   0 -13   1  406.76   17.10
   0 -13  -1  425.56   18.00
   0  13  -1  427.46   17.80
   1 -13   1   12.70    3.10
  -1 -13  -1   19.00    4.80
   2 -13   1   51.29    3.90
  -2 -13  -1   48.90    7.60
   2  13   1   32.40    6.30
  -2  13  -1   49.50    3.80
  -3 -13  -1  139.79   12.50
   3  13   1  143.19   12.00
  -4 -13  -1    8.50    5.00
   4  13   1    6.30    4.90
  -5 -13  -1    1.30    5.10
   5  13   1   -0.20    3.60
  -6 -13  -1  154.78   16.20
   6  13   1  136.79   14.70
  -7 -13  -1    4.90    9.80
   7  13   1    3.60    8.40
  -8 -13  -1    9.90    7.30
   8  13   1    6.60    7.30
  -9 -13  -1   -3.90    8.90
   9  13   1  -10.20    6.60
 -10 -13  -1   48.90   21.80
  10  13   1   37.70   18.90
 -10 -14   1    2.00   10.50
  -9 -14   1   50.39   12.00
   9  14  -1   30.60   11.50
  -8 -14   1    3.00    7.50
   8  14  -1    4.80    7.20
  -7 -14   1    5.00    6.50
   7  14  -1   18.70    9.30
  -6 -14   1   22.90    7.80
   6  14  -1   38.10    9.00
  -5 -14   1   56.29    9.90
   5  14  -1   43.00    8.20
  -4 -14   1   10.00    5.50
   4  14  -1    1.00    4.10
  -3 -14   1  238.78   16.00
   3  14  -1  223.58   15.90
  -2 -14   1  424.26   20.70
   2  14  -1  449.16   21.80
  -2  14   1  409.86   13.50
  -1 -14   1   86.09    9.10
   1 -14  -1  107.59    8.20
   0 -14   1   -1.80    2.40
   0 -14  -1    7.10    3.00
   1 -14   1   79.69    6.70
  -1 -14  -1   93.69    9.00
   2 -14   1  195.48    7.80
  -2 -14  -1  179.48   14.00
  -2  14  -1  194.38    7.70
   2  14   1  188.38   14.20
  -3 -14  -1  214.18   16.00
   3  14   1  248.78   16.80
  -4 -14  -1  309.17   20.20
   4  14   1  309.27   19.90
  -5 -14  -1  320.27   22.10
   5  14   1  281.07   19.70
  -6 -14  -1    3.40    5.90
   6  14   1   16.80    7.50
  -7 -14  -1   13.40    8.90
   7  14   1   25.10    9.80
  -8 -14  -1    3.10    6.70
   8  14   1    2.20    7.10
  -9 -14  -1   25.10    9.80
   9  14   1   34.70   10.00
 -10 -14  -1   35.00   14.50
  10  14   1   -8.60   10.70
  -9 -15   1  -12.60    8.50
   9  15  -1   29.70   11.00
  -8 -15   1   26.90   10.10
   8  15  -1   26.30    9.70
  -7 -15   1    5.80    7.30
   7  15  -1    0.60    6.80
  -6 -15   1   37.20    9.50
   6  15  -1   45.40    9.80
  -5 -15   1   65.19   11.40
   5  15  -1   64.69   11.30
  -4 -15   1    2.10    4.50
   4  15  -1   -2.80    3.60
  -3 -15   1    7.80    5.00
   3  15  -1   -0.40    3.70
   2 -15  -1   14.90    3.40
  -2 -15   1    9.00    4.40
   2  15  -1   11.40    4.80
   1 -15  -1   14.70    4.00
  -1 -15   1   15.50    5.00
   0 -15  -1  310.57   16.00
   0 -15   1  325.97   15.70
  -1 -15  -1    9.60    4.10
   1 -15   1    5.10    3.00
   2 -15   1   31.20    3.70
  -2 -15  -1   43.50    8.00
  -2  15  -1   29.40    3.80
   2  15   1   44.30    8.20
  -3 -15  -1   72.39   10.30
   3  15   1  111.79   12.00
  -4 -15  -1   75.19   11.00
   4  15   1   91.19   11.40
  -5 -15  -1    9.10    6.80
   5  15   1   -2.40    4.70
  -6 -15  -1   22.20   10.30
   6  15   1   17.70    9.00
  -7 -15  -1    5.40    7.00
   7  15   1   11.50    7.90
  -8 -15  -1   13.00   10.90
   8  15   1   22.00    8.90
  -9 -15  -1   -5.80    9.10
   9  15   1   -2.10    7.90
  -9 -16   1   26.10   19.40
   9  16  -1   15.00   11.20
  -8 -16   1    2.00    8.00
   8  16  -1    1.80    8.90
  -7 -16   1   47.20   11.90
   7  16  -1   74.69   14.00
  -6 -16   1   23.00    8.90
   6  16  -1   25.50    7.50
  -5 -16   1  275.67   20.70
   5  16  -1  209.68   18.50
  -4 -16   1   18.00    6.30
   4  16  -1   24.10    7.00
  -3 -16   1  123.89   12.40
   3  16  -1  117.39   12.60
   2 -16  -1    5.00    2.90
  -2 -16   1   -4.10    3.70
   2  16  -1   -1.30    3.90
   1 -16  -1   14.90    4.10
  -1 -16   1   16.60    4.90
   0 -16   1    0.50    3.30
   0 -16  -1    1.60    3.40
   1 -16   1   76.49    7.40
  -1 -16  -1   73.69    9.50
   1  16   1   96.29   10.80
  -2 -16  -1   97.49   10.40
   2  16   1   67.19    9.90
  -3 -16  -1   36.00    8.90
   3  16   1   19.50    6.50
  -4 -16  -1   47.10    9.50
   4  16   1   64.99   10.10
  -5 -16  -1   57.19   11.90
   5  16   1   65.79   12.10
  -6 -16  -1    2.30    8.00
   6  16   1    7.90    7.20
  -7 -16  -1    0.10    6.90
   7  16   1   -0.20    8.10
  -8 -16  -1    7.70    9.30
   8  16   1    5.40    8.40
  -9 -16  -1  -10.70   10.10
   9  16   1    0.50   10.30
  -8 -17   1   -8.20    9.20
   8  17  -1    1.60    8.50
  -7 -17   1   15.70    8.80
   7  17  -1    2.00    8.30
  -6 -17   1   -0.40    6.60
   6  17  -1    3.60    6.10
  -5 -17   1   28.70   10.10
   5  17  -1   48.80   11.70
  -4 -17   1  378.96   24.00
   4  17  -1  388.66   24.50
  -3 -17   1    8.20    5.80
   3  17  -1    4.30    5.10
   2 -17  -1    2.90    3.10
  -2 -17   1   -2.60    3.90
   2  17  -1    4.80    4.90
   1 -17  -1  102.79    9.10
   0 -17  -1  442.26   20.60
   0 -17   1  432.96   19.80
   1 -17   1   -0.70    3.30
  -1 -17  -1    1.70    4.70
   1  17   1    2.00    3.30
  -2 -17  -1  107.19   12.50
   2  17   1  147.39   14.10
  -2  17  -1  111.69    6.60
  -3 -17  -1  168.58   15.70
   3  17   1  164.78   15.30
  -4 -17  -1   -0.40    5.50
   4  17   1   -0.30    6.10
  -5 -17  -1   39.20   10.00
   5  17   1   44.80    9.40
  -6 -17  -1  116.19   16.60
   6  17   1  126.99   16.50
  -7 -17  -1    3.60    8.20
   7  17   1    0.90    8.60
  -8 -17  -1   -3.10    9.70
   8  17   1   -6.10    8.40
  -8 -18   1   99.49   25.40
  -7 -18   1  -18.30    7.50
   7  18  -1   10.10    8.70
  -6 -18   1   50.79   11.60
   6  18  -1   49.90   11.60
  -5 -18   1  132.39   15.70
   5  18  -1  116.39   16.10
  -4 -18   1  112.29   13.20
   4  18  -1   94.29   14.20
  -3 -18   1   38.30    8.90
   3  18  -1   55.29   10.90
  -2 -18   1  339.07   20.80
   2  18  -1  339.87   21.80
   1 -18  -1    6.40    4.30
  -1 -18   1    4.30    4.30
   0 -18   1    1.40    4.00
   0 -18  -1    7.80    5.40
  -1 -18  -1  170.48   14.20
   1 -18   1  128.89    9.90
   1  18   1  174.68   15.70
  -2 -18  -1   53.09   10.30
   2 -18   1   47.60    5.30
   2  18   1   46.80   10.00
  -3 -18  -1   -1.40    5.80
   3  18   1    5.30    7.50
  -4 -18  -1  266.77   20.90
   4  18   1  287.97   21.70
  -5 -18  -1   15.70    9.60
   5  18   1    9.00    7.20
  -6 -18  -1   -3.00    8.00
   6  18   1   -2.10    6.40
  -7 -18  -1    8.10    9.80
   7  18   1   -7.00    8.90
  -8 -18  -1    2.30   10.80
   8  18   1    7.10   10.50
  -7 -19   1   17.00   10.20
   7  19  -1    8.30    9.60
  -6 -19   1    7.50    9.10
   6  19  -1   17.00    8.00
  -5 -19   1    8.30    7.60
   5  19  -1   -9.50    6.20
  -4 -19   1   19.70    8.30
   4  19  -1   -7.20    5.60
  -3 -19   1   27.10    8.90
   3  19  -1   22.00    7.10
   2 -19  -1   55.59    6.70
  -2 -19   1   74.79   11.90
   2  19  -1   44.60    8.90
  -1 -19   1   65.79    9.90
   0 -19   1   47.50    8.80
  -1 -19  -1    9.00    6.00
  -2 -19  -1   -6.40    5.80
   2  19   1    1.70    5.30
  -3 -19  -1   45.80   11.30
   3  19   1   84.69   13.30
   4  19   1   12.50    6.90
  -5 -19  -1   31.90   11.30
   5  19   1   39.40   11.70
  -6 -19  -1    7.50    9.80
   6  19   1   13.20    8.80
  -7 -19  -1   13.70   10.80
   7  19   1  -14.80   12.10
   7  20  -1   -3.90    9.70
  -6 -20   1   39.40   12.70
   6  20  -1   49.70   13.00
  -5 -20   1   -0.60    8.10
   5  20  -1    7.70    8.20
  -4 -20   1    6.90    7.50
   4  20  -1    5.40    7.10
  -3 -20   1   35.60   10.60
   3  20  -1   62.99   12.30
  -2 -20   1    6.40    6.20
   2 -20  -1   13.20    5.20
   2  20  -1    2.60    6.40
  -1 -20   1   51.69    9.90
   1  20  -1   78.69   12.00
  -1 -20  -1   49.30   10.20
   1 -20   1   48.10    9.70
   1  20   1   59.89   11.70
  -2 -20  -1    9.10    7.30
   2  20   1    1.60    6.00
  -3 -20  -1   -3.60    7.20
   3  20   1    9.10    6.90
  -4 -20  -1   32.40   10.70
   4  20   1   38.40    9.80
  -5 -20  -1   40.50   12.00
   5  20   1   31.90   10.30
  -6 -20  -1   36.10   14.00
   6  20   1   28.90   10.70
  -6 -21   1  -13.90    9.80
   6  21  -1    6.70    9.40
  -5 -21   1   -0.50    8.60
   5  21  -1    1.30    8.40
  -4 -21   1   83.39   15.60
   4  21  -1   79.49   15.60
  -3 -21   1   10.40   11.60
   3  21  -1    3.50    7.40
  -2 -21   1    9.30    7.20
   2  21  -1    7.40    6.70
   1 -21  -1   13.70    6.90
   1  21  -1    9.90    7.30
   0  21   1   28.80    8.90
   1 -21   1   -3.50    5.90
   1  21   1    0.70    6.60
  -2 -21  -1    9.00    7.80
   2  21   1   25.80    9.00
  -3 -21  -1   19.80    8.70
   3  21   1   18.70    8.50
  -4 -21  -1   12.90    9.00
   4  21   1   18.90    8.40
  -5 -21  -1   19.80   11.20
   5  21   1   31.10   11.90
  -6 -21  -1   62.39   16.40
   6  21   1   62.79   16.20
  -5 -22   1   25.30   12.60
   5  22  -1   44.90   11.80
  -4 -22   1   -9.00    7.90
   4  22  -1   -1.10   10.40
  -3 -22   1   -0.60    9.10
   3  22  -1   -7.70    7.10
   2  22  -1   52.79   12.20
   1  22  -1    4.40    7.00
   0 -22  -1   14.60    8.10
   0  22   1    4.80    7.10
   1  22   1  112.29   16.50
   2  22   1    5.10    7.60
  -3 -22  -1  -12.90    8.90
   3  22   1    7.50    9.00
  -4 -22  -1  101.49   18.50
   4  22   1  102.19   18.30
  -5 -22  -1    5.10   11.10
   5  22   1   16.90   11.30
   3  23  -1   38.30   16.70
   2  23  -1   -6.50    8.30
  -1 -23   1   67.69   13.80
   1  23  -1   81.39   15.00
   0 -23  -1   24.30   10.70
   0  23   1   16.80    9.70
   0  23  -1   13.80    9.70
  -1 -23  -1   14.30   10.00
   1  23   1   23.20   11.30
   2  23   1   33.90   11.20
   3  23   1   -5.70    9.00
  -1  24   1   -2.80    9.50
   1  24  -1   15.70   10.40
   0  24   1    4.90   10.20
   0  24  -1    3.90    9.50
  -1 -24  -1   -4.70   12.00
   1  24   1    2.50   10.20
  12   0  -2  -18.00    9.40
 -11   0   2    6.10    7.00
  11   0  -2    2.50    6.50
 -10   0   2   -3.20    5.30
  10   0  -2   -4.10    4.60
   9   0  -2   -2.60    4.20
  -9   0   2   -3.70    4.60
  -8   0   2  169.28   13.30
   8   0  -2  215.48   15.30
   7   0  -2    0.30    3.30
  -7   0   2   -2.10    2.60
   6   0  -2    3.40    2.80
  -6   0   2    9.30    3.80
   5   0  -2    0.70    2.00
  -5   0   2    1.30    1.90
  -5   0   2   -0.80    2.60
  -4   0   2  386.36   14.80
  -4   0   2  396.36   14.50
   4   0  -2  424.46   15.10
   4   0  -2  390.26   14.60
  -3   0   2    1.30    1.50
   3   0  -2    0.00    0.90
  -3   0   2   -1.20    1.00
   3   0  -2    0.10    1.20
  -2   0   2 2579.34   54.69
   2   0  -2 2554.44   56.09
   2   0  -2 2533.15   54.69
  -2   0   2 2521.45   55.99
   1   0  -2    0.10    0.30
  -1   0   2    0.60    0.70
   1   0  -2    0.20    0.60
  -1   0   2    0.20    0.30
   0   0   2  192.08    5.10
   0   0  -2  189.08    5.90
   0   0  -2  188.08    5.10
   0   0   2  195.38    5.80
   1   0   2    0.60    0.80
  -1   0  -2    0.40    0.60
   1   0   2    0.20    0.60
  -1   0  -2    0.20    0.70
   2   0   2  311.17   10.20
  -2   0  -2  303.67   11.10
  -2   0  -2  319.27   10.70
  -3   0  -2    4.00    1.70
   3   0   2    0.40    1.10
   3   0   2   -0.40    1.20
  -3   0  -2    0.50    1.00
   4   0   2   69.19    6.50
  -4   0  -2   69.89    5.90
  -4   0  -2   75.19    6.70
   4   0   2   74.69    5.90
   5   0   2   -3.90    1.80
  -5   0  -2    2.10    2.00
   5   0   2   -1.80    2.30
   6   0   2   40.60    6.80
  -6   0  -2   37.40    6.10
   7   0   2   -5.70    3.30
  -7   0  -2    3.60    3.30
  -8   0  -2  385.06   20.90
   8   0   2  372.16   21.90
   9   0   2   -0.80    4.70
  -9   0  -2    0.00    5.30
  10   0   2    4.80    5.90
 -10   0  -2   -4.10    6.10
  11   0   2   20.00   11.10
 -12   0  -2   20.60   18.40
  12   0   2   15.50   12.00
  12  -1  -2  -14.30    8.60
 -12  -1   2  -12.10   10.10
  12   1  -2   -8.50    9.10
 -11  -1   2    6.10    7.40
  11  -1  -2   -1.80    6.80
 -11   1   2   -0.80    7.60
  11   1  -2  -14.20    5.90
  10  -1  -2    6.20    5.80
 -10  -1   2   -5.80    6.00
  10   1  -2    1.30    6.20
 -10   1   2  -12.80    5.30
  -9  -1   2  177.88   15.00
   9  -1  -2  142.49   13.90
  -9   1   2  170.78   13.20
   9   1  -2  159.68   14.70
   8  -1  -2   43.70    8.70
  -8  -1   2   28.80    7.20
  -8   1   2   33.50    7.10
   8   1  -2   24.30    6.70
  -7  -1   2   23.40    5.80
   7  -1  -2   41.00    6.90
  -7   1   2   35.40    5.70
   7   1  -2   43.00    6.90
   6  -1  -2  113.69    9.40
  -6  -1   2  114.49    9.50
   6  -1  -2   94.99    8.30
  -6   1   2  124.99    8.90
   6   1  -2  122.89    9.90
  -5  -1   2  148.19    9.70
   5  -1  -2  151.68    9.00
   5  -1  -2  139.39    9.20
  -5  -1   2  151.98    9.50
   5   1  -2  166.48    9.90
  -5   1   2  126.89    8.90
  -5   1   2  144.19    8.80
  -4  -1   2   39.20    4.70
   4  -1  -2   49.40    4.50
   4  -1  -2   40.20    4.30
  -4  -1   2   45.20    4.60
   4   1  -2   41.50    4.70
  -4   1   2   46.20    4.40
   4   1  -2   39.40    4.50
  -4   1   2   46.20    4.50
  -3  -1   2 1538.95   38.60
   3  -1  -2 1572.24   37.20
  -3  -1   2 1577.24   37.30
   3  -1  -2 1581.54   37.40
  -3   1   2 1567.54   37.20
   3   1  -2 1511.05   38.40
  -3   1   2 1579.94   37.20
   3   1  -2 1522.75   37.40
   2  -1  -2  722.93   18.30
  -2  -1   2  754.12   20.20
   2  -1  -2  748.23   18.90
  -2  -1   2  722.93   18.40
   2   1  -2  735.73   20.00
  -2   1   2  744.73   18.90
   2   1  -2  759.42   18.70
  -2   1   2  740.03   18.40
   1  -1  -2    6.20    0.80
   1  -1  -2    7.00    1.10
  -1  -1   2    5.90    1.30
   1  -1  -2    7.00    1.30
   1   1  -2    7.80    1.80
  -1   1   2    6.70    0.90
   1   1  -2    4.20    0.90
   0  -1   2  164.28    5.20
   0  -1  -2  170.38    5.70
   0  -1   2  167.98    5.00
   0  -1  -2  164.78    4.70
   0   1  -2  166.58    5.30
   0   1   2  168.08    4.90
   0   1   2  169.58    5.50
   0   1  -2  167.68    5.10
   1  -1   2  733.63   17.60
   1  -1   2  775.72   19.00
  -1  -1  -2  767.82   19.10
  -1  -1  -2  749.33   18.70
   1   1   2  731.63   18.80
  -1   1  -2  748.83   18.90
  -1   1  -2  753.72   17.90
   1   1   2  724.03   18.60
  -2  -1  -2  859.91   23.30
   2  -1   2  887.51   24.00
  -2  -1  -2  884.01   23.40
   2  -1   2  883.91   21.50
  -2   1  -2  891.91   22.10
  -2   1  -2  896.21   23.60
   2   1   2  863.31   22.80
   2   1   2  870.11   23.70
  -3  -1  -2  148.19    8.20
   3  -1   2  153.88    7.10
  -3  -1  -2  162.18    8.50
   3  -1   2  144.69    8.40
  -3   1  -2  143.39    8.10
   3   1   2  153.98    8.70
  -3   1  -2  153.88    7.40
   3   1   2  163.58    8.00
   4  -1   2    3.00    1.80
  -4  -1  -2    4.00    2.20
   4  -1   2    3.30    2.50
  -4  -1  -2   -0.40    2.00
  -4   1  -2    5.30    2.30
   4   1   2    1.70    1.80
  -4   1  -2    2.10    1.40
   4   1   2    5.50    2.50
   5  -1   2   14.70    4.40
  -5  -1  -2    3.80    3.00
   5  -1   2    6.00    2.40
   5   1   2    7.00    3.30
  -5   1  -2   15.10    3.40
   6  -1   2   21.00    5.20
  -6  -1  -2   22.10    5.50
   6   1   2   17.10    5.10
  -6   1  -2   23.20    5.00
  -7  -1  -2  221.48   14.80
   7  -1   2  213.68   15.60
  -7   1  -2  212.28   13.70
   7   1   2  256.97   16.40
   8  -1   2   77.89   10.90
  -8  -1  -2   82.79   10.40
   8   1   2   67.29    9.70
  -8   1  -2   67.59    9.10
  -9  -1  -2   10.70    7.30
   9  -1   2   12.20    6.50
  -9   1  -2    3.30    5.60
   9   1   2    2.80    4.80
 -10  -1  -2    1.00    6.50
  10  -1   2    8.90    6.90
 -10   1  -2    2.80    7.10
  10   1   2    2.50    6.20
  11  -1   2   -3.50    8.10
  11   1   2    4.20    8.50
  12  -1   2   40.90   14.40
  12   1   2   17.20   11.70
 -12   1  -2   14.40   12.30
 -12  -2   2   13.60   10.70
  12  -2  -2   15.80   10.10
 -12   2   2    8.80   10.00
  12   2  -2    8.30    9.70
  11  -2  -2   11.20    7.60
 -11  -2   2   -9.20    8.00
  11   2  -2  -14.10    6.40
 -11   2   2    3.50    6.70
  10  -2  -2   32.70    9.20
 -10  -2   2   22.90    8.70
  10   2  -2    7.20    6.70
 -10   2   2   18.30    7.10
   9  -2  -2   -4.00    3.50
   9   2  -2    5.40    4.90
  -8  -2   2  134.99   12.60
   8  -2  -2  117.19   11.80
   8   2  -2  100.99   11.30
  -8   2   2  107.19   10.00
  -7  -2   2   40.40    8.10
   7  -2  -2   32.60    6.50
   7   2  -2   33.10    7.10
  -7   2   2   36.40    5.60
   6  -2  -2    4.50    3.20
   6  -2  -2    5.60    3.30
  -6  -2   2   10.40    4.10
  -6   2   2   14.00    3.40
   6   2  -2    9.90    4.10
   5  -2  -2   22.00    3.50
  -5  -2   2   18.10    4.00
  -5  -2   2   23.10    4.30
   5  -2  -2   16.40    3.90
   5   2  -2   18.20    4.00
   5   2  -2   22.10    4.20
  -5   2   2   21.50    3.70
   4  -2  -2  287.17   12.10
   4  -2  -2  288.87   11.10
  -4  -2   2  285.27   12.00
  -4  -2   2  282.77   12.90
   4   2  -2  276.07   12.20
  -4   2   2  295.17   12.80
  -4   2   2  291.87   12.10
   4   2  -2  269.57   12.90
  -3  -2   2   20.30    2.80
  -3  -2   2   22.40    3.50
   3  -2  -2   26.30    3.20
   3  -2  -2   22.80    2.70
  -3   2   2   20.50    2.50
  -3   2   2   20.90    2.80
   3   2  -2   20.50    3.30
   3   2  -2   19.70    3.00
   2  -2  -2 3036.50   64.79
  -2  -2   2 3029.40   67.29
   2  -2  -2 3009.50   64.49
  -2  -2   2 3070.89   64.99
   2   2  -2 3029.10   65.29
   2   2  -2 3042.30   67.29
  -2   2   2 3007.30   64.29
  -2   2   2 2984.90   64.89
  -1  -2   2  395.96   12.00
   1  -2  -2  413.26   10.30
  -1   2   2  394.66   10.20
   1   2  -2  393.76   12.00
   0  -2   2 1236.98   27.50
   0  -2  -2 1192.78   27.50
   0   2   2 1201.58   27.40
   0   2   2 1190.58   26.70
   0   2  -2 1227.38   27.60
   0   2  -2 1214.18   27.30
  -1  -2  -2  117.09    5.30
   1  -2   2  114.69    4.10
   1  -2   2  118.69    5.50
  -1  -2  -2  114.29    5.60
  -1   2  -2  116.19    4.30
  -1   2  -2  113.19    5.40
   1   2   2  111.29    5.30
   1   2   2  107.89    5.30
   2  -2   2  380.76   10.50
  -2  -2  -2  371.36   12.70
   2  -2   2  369.96   13.20
  -2   2  -2  375.56   12.90
   2   2   2  375.46   12.70
   2   2   2  355.66   14.50
  -2   2  -2  378.26   10.90
   3  -2   2   94.79    6.70
   3  -2   2   85.29    4.70
  -3  -2  -2   87.99    6.20
  -3  -2  -2   78.89    6.20
  -3   2  -2   73.69    6.00
  -3   2  -2   92.99    5.20
   3   2   2   85.99    6.00
   3   2   2   70.79    5.90
   4  -2   2  435.06   14.10
  -4  -2  -2  438.56   17.40
  -4  -2  -2  419.26   17.10
   4  -2   2  462.45   17.90
  -4   2  -2  403.96   16.80
   4   2   2  400.06   16.00
  -4   2  -2  416.06   14.70
   4   2   2  422.16   17.40
  -5  -2  -2   29.00    5.20
   5  -2   2   21.30    4.80
   5  -2   2   27.30    4.10
   5   2   2   29.70    5.40
  -5   2  -2   25.80    4.20
   6  -2   2  574.94   24.40
   6  -2   2  596.34   20.40
  -6  -2  -2  566.84   24.00
   6   2   2  573.84   25.10
  -6   2  -2  607.24   21.90
   7  -2   2   15.30    5.40
  -7   2  -2   27.60    5.90
   7   2   2   42.40    7.30
   8  -2   2   40.00    8.90
  -8  -2  -2   42.60    9.10
   8   2   2   28.40    6.90
  -8   2  -2   31.20    7.20
  -9  -2  -2   -1.00    6.20
   9  -2   2   12.40    6.30
   9   2   2   -1.10    4.50
  -9   2  -2   -0.10    5.30
  10  -2   2   30.40   10.10
 -10  -2  -2   16.70    8.60
 -10   2  -2   16.90    8.10
  10   2   2   12.90    7.90
  11  -2   2    1.90    8.20
 -11  -2  -2    5.60   10.20
  11   2   2    1.20    7.40
  12  -2   2   14.10   11.30
  12   2   2   23.70   12.00
  12  -3  -2   24.40   10.80
 -12  -3   2    4.20   10.30
  12   3  -2   20.10   10.50
 -12   3   2   17.50    9.90
 -11  -3   2    1.10    8.80
  11  -3  -2   12.40    8.80
  11   3  -2    7.80    7.60
 -11   3   2    6.70    7.90
  10  -3  -2  109.29   13.60
 -10  -3   2  122.39   14.80
  10   3  -2   94.19   13.30
 -10   3   2   85.89   11.80
   9  -3  -2   78.59   10.50
  -9  -3   2   68.69   11.00
   9   3  -2   49.80    9.50
  -9   3   2   65.89    9.20
  -8  -3   2   19.30    7.10
   8  -3  -2   20.40    6.30
  -8   3   2   26.30    5.50
   8   3  -2   17.60    6.70
  -7  -3   2  599.14   26.90
   7  -3  -2  626.94   29.10
   7   3  -2  600.74   29.40
  -7   3   2  618.94   22.20
   6  -3  -2   -1.10    2.30
  -6  -3   2    5.20    3.70
  -6   3   2   -0.30    2.00
   6   3  -2    3.10    2.90
  -5  -3   2  517.75   21.20
   5  -3  -2  553.84   17.80
   5  -3  -2  550.14   20.20
  -5   3   2  559.64   18.00
   5   3  -2  573.44   21.00
   4  -3  -2   24.00    3.70
  -4  -3   2   21.50    3.70
  -4  -3   2   24.50    4.10
   4  -3  -2   18.20    2.80
  -4   3   2   24.20    3.00
   4   3  -2   20.30    3.40
  -4   3   2   23.80    3.90
   4   3  -2   24.90    4.20
  -3  -3   2  120.39    6.60
   3  -3  -2  124.89    5.50
  -3  -3   2  117.19    7.50
   3  -3  -2  129.19    6.70
  -3   3   2  123.19    6.70
  -3   3   2  116.09    5.40
   3   3  -2  111.99    6.70
   3   3  -2  127.79    7.70
  -2  -3   2  105.09    5.20
   2  -3  -2  109.49    5.30
   2  -3  -2  107.09    4.50
   2  -3  -2  104.99    4.00
   2   3  -2  108.19    6.30
  -2   3   2  104.29    5.20
   2   3  -2  108.29    5.50
  -1  -3   2  745.33   19.80
   1  -3  -2  735.33   17.50
  -1   3   2  735.73   17.30
   1   3  -2  744.63   19.90
   0  -3  -2  602.54   15.80
   0  -3   2  599.04   15.40
   0   3   2  579.84   15.40
   0   3  -2  610.64   15.50
  -1  -3  -2 4006.80   87.19
  -1  -3  -2 4089.69   88.39
   1  -3   2 4151.08   87.89
  -1   3  -2 4137.59   84.79
   1   3   2 4048.59   87.89
   1   3   2 4069.29   87.69
  -1   3  -2 4262.07   85.49
  -1   3  -2 4139.49   87.99
   2  -3   2  995.90   26.60
  -2  -3  -2  994.70   26.20
   2  -3   2 1004.90   22.40
  -2   3  -2  955.00   26.30
   2   3   2  981.60   26.70
  -2   3  -2 1000.10   22.90
   2   3   2  949.71   26.30
  -3  -3  -2  710.13   23.10
  -3  -3  -2  734.33   24.90
   3  -3   2  742.93   18.40
   3  -3   2  690.33   22.40
  -3   3  -2  731.83   19.20
   3   3   2  732.53   24.80
  -3   3  -2  707.93   23.00
   3   3   2  733.73   23.00
  -4  -3  -2  874.51   28.20
   4  -3   2  862.01   22.70
   4  -3   2  872.81   27.80
   4   3   2  878.61   28.10
   4   3   2  856.01   26.90
  -4   3  -2  880.51   24.00
  -5  -3  -2  124.49    9.90
   5  -3   2  104.69    9.10
   5  -3   2  112.79    6.90
  -5   3  -2  112.89    7.40
   5   3   2  105.39    9.10
   6  -3   2   -1.00    2.60
  -6  -3  -2    0.50    3.20
  -6   3  -2   -1.40    2.10
   7  -3   2  183.88   14.20
  -7  -3  -2  166.08   13.80
   7   3   2  189.98   14.50
  -7   3  -2  182.98   11.50
  -8  -3  -2   -3.30    4.80
   8  -3   2    0.90    4.60
   8   3   2   -1.30    4.60
  -8   3  -2    0.10    4.00
   9  -3   2  244.18   19.10
  -9  -3  -2  248.78   19.40
   9   3   2  224.78   17.80
  10  -3   2   18.00    9.10
 -10  -3  -2   18.90    9.00
 -10   3  -2   23.00    8.20
  10   3   2   17.10    8.30
 -11  -3  -2   54.39   13.70
  11  -3   2   49.80   11.30
  11   3   2   34.20   11.30
 -11   3  -2   47.70   11.60
 -12  -3  -2  -24.90   12.00
  12  -3   2    8.90   11.70
  12   3   2  -17.60   10.50
  12  -4  -2   -0.40    9.50
 -12  -4   2   10.20   11.30
  12   4  -2    0.20    8.70
 -11  -4   2   -5.10    8.20
  11  -4  -2   -3.50    7.40
 -11   4   2   -3.70    7.30
  11   4  -2   -1.50    7.20
  10  -4  -2    3.70    5.60
 -10  -4   2    8.50    7.90
  10   4  -2    5.10    6.10
   9  -4  -2   54.09   10.20
  -9  -4   2   56.59   10.90
  -9   4   2   48.90    8.50
   9   4  -2   53.99    9.50
  -8  -4   2  265.27   18.20
   8  -4  -2  272.97   17.30
   8   4  -2  292.17   18.80
  -8   4   2  275.67   14.00
  -7  -4   2   67.99    9.00
   7  -4  -2   50.49    7.00
   7  -4  -2   41.40    6.90
   7   4  -2   66.89    8.90
  -7   4   2   54.09    6.20
   6  -4  -2   35.70    5.00
  -6  -4   2   31.80    7.00
   6  -4  -2   33.90    5.80
   6   4  -2   29.60    5.90
  -6   4   2   26.60    4.40
  -5  -4   2   38.40    5.90
   5  -4  -2   43.30    5.30
   5  -4  -2   30.40    3.90
   5   4  -2   44.20    5.70
   4  -4  -2 1915.11   44.30
  -4  -4   2 1950.40   51.09
   4  -4  -2 1983.90   48.60
  -4  -4   2 1969.80   48.30
  -4   4   2 1966.90   44.30
   4   4  -2 1931.31   50.49
  -4   4   2 1936.41   48.50
   4   4  -2 1932.51   49.20
   3  -4  -2  164.98    6.30
   3  -4  -2  176.28    5.70
   3  -4  -2  161.38    8.00
  -3  -4   2  165.08    9.40
  -3  -4   2  155.18    7.90
   3   4  -2  157.78    8.30
  -3   4   2  165.58    8.30
   3   4  -2  156.38    9.20
   2  -4  -2  203.08    6.60
   2  -4  -2  210.58    6.30
  -2  -4   2  205.68    9.70
  -2   4   2  207.78    8.30
   2   4  -2  194.58    9.30
   1  -4  -2   85.39    4.00
  -1  -4   2   98.59    5.60
  -1   4   2   87.09    3.90
   1   4  -2   95.69    5.50
   0  -4  -2   59.39    3.90
   0  -4   2   57.99    3.60
   0   4  -2   59.79    3.80
   0   4   2   58.09    3.70
  -1  -4  -2  897.01   23.50
  -1  -4  -2  928.51   25.10
   1   4   2  897.21   24.10
  -1   4  -2  928.81   24.40
   1   4   2  933.21   24.10
  -1   4  -2  937.31   20.80
  -1   4  -2  941.51   21.60
   2  -4   2 2780.52   63.79
   2  -4   2 2784.52   58.09
  -2  -4  -2 2838.22   65.09
  -2  -4  -2 2773.62   63.19
  -2   4  -2 2820.22   63.99
   2   4   2 2770.62   63.99
   2   4   2 2685.23   63.79
  -2   4  -2 2852.51   58.69
   3  -4   2  120.69    4.80
  -3  -4  -2  112.79    7.40
  -3  -4  -2  126.69    8.40
   3  -4   2  131.09    8.10
   3   4   2  117.89    7.70
   3   4   2  129.09    8.30
  -3   4  -2  120.39    5.30
  -3   4  -2  119.99    7.90
   4  -4   2  533.25   14.70
   4  -4   2  510.05   19.90
  -4  -4  -2  483.15   20.10
  -4   4  -2  536.95   15.70
   4   4   2  516.45   20.20
   5  -4   2   31.20    3.70
   5  -4   2   32.20    5.50
  -5  -4  -2   37.80    6.20
  -5   4  -2   23.40    3.60
   5   4   2   36.20    5.80
   6  -4   2  191.58    9.30
  -6  -4  -2  199.28   14.30
   6  -4   2  218.18   14.10
   6   4   2  180.98   13.50
  -6   4  -2  192.48   10.50
   7  -4   2    3.00    3.80
  -7  -4  -2    1.30    4.10
   7   4   2    1.30    4.50
  -7   4  -2    5.30    3.80
  -8  -4  -2  154.98   14.80
   8  -4   2  184.78   14.80
  -8   4  -2  178.38   12.20
   8   4   2  174.58   15.70
  -9  -4  -2   34.40    9.00
   9  -4   2   41.20    9.90
  -9   4  -2   40.10    7.90
   9   4   2   30.70    8.60
 -10  -4  -2    5.10    7.90
  10  -4   2   -0.40    6.30
 -10   4  -2   -8.30    6.00
  10   4   2    0.10    6.30
  11  -4   2   -4.90    8.40
 -11  -4  -2   12.60   10.10
 -11   4  -2    1.50    8.80
  11   4   2   -6.60    8.80
  12  -5  -2   16.40   10.90
 -12  -5   2   -0.60   11.10
  12   5  -2   13.90   10.90
 -11  -5   2    6.10    8.50
  11  -5  -2    1.00    7.90
  11   5  -2   -7.10    7.10
 -11   5   2   -4.50    6.60
 -10  -5   2   -2.50    7.20
  10  -5  -2    6.90    6.50
 -10   5   2    6.50    5.50
  10   5  -2    2.30    8.70
   9  -5  -2   64.89   10.40
  -9  -5   2   46.70   10.40
  -9   5   2   50.09    7.70
   9   5  -2   70.19   10.50
   8  -5  -2   12.40    5.00
  -8  -5   2   18.20    7.20
  -8   5   2   12.90    3.90
   8   5  -2    7.60    5.20
   7  -5  -2  159.78   12.40
  -7  -5   2  151.28   12.90
  -7   5   2  132.49    8.50
   7   5  -2  148.99   12.30
   6  -5  -2  145.39   10.80
  -6  -5   2  133.69   11.40
   6  -5  -2  147.49    8.10
  -6   5   2  136.59    7.50
   6   5  -2  132.69   10.80
   5  -5  -2   13.50    3.40
   5  -5  -2   14.30    2.80
  -5  -5   2    9.00    3.30
   5   5  -2   16.70    4.40
  -5   5   2    7.30    1.80
   4  -5  -2   51.69    3.10
  -4  -5   2   61.19    5.60
  -4  -5   2   59.59    6.60
   4  -5  -2   57.39    5.60
   4  -5  -2   61.69    3.80
  -4   5   2   60.69    5.90
   4   5  -2   63.39    6.10
   3  -5  -2  408.56   10.70
  -3  -5   2  422.26   16.90
  -3  -5   2  424.06   15.00
   3  -5  -2  428.86   15.10
   3  -5  -2  418.96   11.50
   3   5  -2  454.85   15.90
  -3   5   2  433.96   15.30
   3   5  -2  432.16   16.90
  -2  -5   2  128.49    7.90
   2  -5  -2  142.39    4.90
   2   5  -2  130.79    7.10
   2   5  -2  137.29    8.30
  -2   5   2  140.39    7.10
  -2   5   2  133.69    4.70
   1  -5  -2  182.88    6.70
  -1  -5   2  179.78    8.30
   1   5  -2  168.28    8.10
  -1   5   2  185.38    6.50
   0  -5  -2  105.69    5.80
   0  -5   2  112.19    5.60
   0   5  -2  128.69    5.90
   0   5   2  115.69    5.70
   1  -5   2   13.50    1.70
  -1  -5  -2    9.70    2.30
  -1   5  -2   16.40    2.90
  -1   5  -2   14.70    1.80
   1   5   2   13.50    2.60
   1   5   2   14.00    2.40
  -2  -5  -2    3.30    1.50
   2  -5   2    3.20    1.90
  -2  -5  -2    5.80    2.10
  -2   5  -2    1.20    1.50
   2   5   2    2.60    2.00
  -2   5  -2    2.10    0.80
   2   5   2    3.60    1.80
  -2   5  -2    3.00    0.80
   3  -5   2  495.95   18.30
  -3  -5  -2  482.95   17.80
   3  -5   2  512.85   12.40
  -3  -5  -2  531.55   19.80
   3   5   2  515.55   19.10
   3   5   2  521.35   18.80
  -3   5  -2  511.55   13.20
  -3   5  -2  507.15   18.60
  -4  -5  -2 2582.94   65.69
   4  -5   2 2569.84   55.09
   4  -5   2 2578.64   64.39
  -4   5  -2 2520.05   56.29
   4   5   2 2605.04   64.99
   5  -5   2    2.70    2.70
  -5  -5  -2    1.60    3.40
   5  -5   2    6.50    2.00
   5   5   2   10.90    4.00
  -5   5  -2    8.20    2.20
   6  -5   2   14.20    3.20
   6  -5   2   23.10    5.80
  -6  -5  -2   22.80    5.80
   6   5   2   18.50    5.30
  -6   5  -2   19.20    3.50
   7  -5   2   95.29   10.50
  -7  -5  -2  102.49   11.80
  -7   5  -2  100.29    7.80
   7   5   2  113.79   12.40
   8  -5   2   -0.90    3.90
  -8  -5  -2    2.90    4.80
  -8   5  -2    6.50    4.20
   8   5   2    1.30    4.50
   9  -5   2   24.00    8.70
  -9  -5  -2   19.40    8.40
   9   5   2   15.20    7.50
  -9   5  -2   22.00    5.60
  10  -5   2   23.60    8.90
 -10  -5  -2   34.10   10.30
 -10   5  -2   12.60    7.20
  10   5   2    9.00    8.00
  11  -5   2    7.20    9.20
 -11  -5  -2    3.20    9.50
  11   5   2   -0.50    9.50
 -12  -6   2   -7.60   11.40
  12  -6  -2   -7.20    8.60
  12   6  -2    7.30    9.70
 -11  -6   2    3.00    8.90
  11  -6  -2    7.10    9.10
  11   6  -2   -4.90    7.40
 -10  -6   2    1.90   12.40
 -10   6   2   11.20    5.60
  10   6  -2    7.80    6.70
   9  -6  -2    9.90    6.10
   9  -6  -2   25.20    7.70
  -9  -6   2    5.70    6.60
  -9   6   2   11.00    4.50
   9   6  -2    6.80    6.70
   8  -6  -2  321.17   19.70
  -8  -6   2  376.96   22.60
   8   6  -2  376.16   21.80
  -8   6   2  343.97   14.10
   7  -6  -2    1.60    2.80
  -7  -6   2    3.70    4.50
   7  -6  -2   -0.20    3.10
   7   6  -2   -2.10    3.30
  -7   6   2    1.50    2.40
   6  -6  -2  169.98   11.70
  -6  -6   2  159.28   18.80
   6  -6  -2  167.68    7.80
   6   6  -2  164.48   12.20
  -6   6   2  174.68    7.70
   5  -6  -2   15.90    1.90
   5  -6  -2   13.80    2.40
  -5  -6   2   20.60    6.00
   5  -6  -2   11.80    4.00
   5   6  -2   22.00    4.90
  -4  -6   2  481.25   20.20
   4  -6  -2  485.75   12.00
   4  -6  -2  489.65   12.90
   4  -6  -2  466.85   17.90
  -4   6   2  490.85   21.10
   4   6  -2  500.25   19.10
  -3  -6   2  189.78   11.10
   3  -6  -2  185.08    5.60
  -3   6   2  198.08   10.00
   3   6  -2  189.08   10.90
   3   6  -2  171.08    9.40
   2  -6  -2  101.59    4.30
  -2  -6   2   85.39    6.70
   2   6  -2   89.89    6.20
  -2   6   2   91.69    6.20
  -2   6   2   96.99    3.90
   1  -6  -2  112.09    5.40
  -1  -6   2  128.19    7.30
  -1   6   2  126.29    5.40
   1   6  -2  118.79    6.90
   0  -6   2   52.89    4.00
   0  -6  -2   50.89    4.10
   0   6   2   56.09    4.10
   0   6  -2   52.29    4.00
  -1  -6  -2  337.27   13.30
   1  -6   2  324.67    9.80
  -1   6  -2  328.07   12.90
   1   6   2  344.37   12.80
   1   6   2  329.47   12.60
  -1   6  -2  313.77    9.90
  -2  -6  -2 2416.96   58.29
   2  -6   2 2358.36   56.99
  -2   6  -2 2313.67   56.99
   2   6   2 2349.26   58.99
   2   6   2 2392.06   57.09
  -2   6  -2 2415.66   49.50
  -2   6  -2 2316.87   49.90
  -3  -6  -2 1123.79   34.70
  -3  -6  -2 1124.29   34.20
   3  -6   2 1125.89   32.80
  -3   6  -2 1144.69   24.80
   3   6   2 1125.19   33.20
  -3   6  -2 1129.09   24.70
   4  -6   2  413.36   10.40
  -4  -6  -2  418.96   19.10
   4  -6   2  411.66   17.90
   4   6   2  440.56   18.90
  -4   6  -2  399.76   11.30
   5  -6   2  423.36   11.70
  -5  -6  -2  468.45   21.80
   5  -6   2  385.26   18.70
  -5   6  -2  413.46   12.70
   5   6   2  392.16   19.10
  -6  -6  -2    5.30    3.70
   6  -6   2    4.90    2.20
   6  -6   2    6.50    4.50
  -6   6  -2    5.00    3.80
   6   6   2    8.10    4.40
   7  -6   2   54.79    9.10
  -7  -6  -2   51.49   10.20
   7   6   2   34.20    8.00
  -7   6  -2   46.80    5.30
   8  -6   2  146.09   14.10
   8  -6   2  137.69    9.30
  -8  -6  -2  168.28   16.70
  -8   6  -2  165.28   10.00
   8   6   2  206.18   17.40
   9  -6   2   26.80    8.30
  -9  -6  -2   32.70    8.30
   9   6   2   76.49   18.30
  10  -6   2   -1.70    7.50
 -10  -6  -2   -2.90    7.80
 -10   6  -2   10.60    6.20
  10   6   2  -10.80    6.60
  11  -6   2   -2.20    8.30
 -11  -6  -2   10.50   11.60
  11   6   2    1.70    8.50
  12  -7  -2   -5.00    8.90
 -12  -7   2    0.40   12.00
  12   7  -2   -1.90   15.20
  11  -7  -2    8.60    8.00
 -11  -7   2   12.10   10.80
  11   7  -2    8.40    9.90
  10  -7  -2    1.10    4.00
 -10  -7   2   -1.10    7.70
  10  -7  -2   -2.90    6.00
  10   7  -2    8.50    6.10
   9  -7  -2   13.30    6.90
  -9  -7   2   12.90    6.60
   9  -7  -2   14.10    5.80
   9   7  -2   14.50    6.70
  -8  -7   2    7.10    6.00
   8  -7  -2    7.00    3.60
   8  -7  -2    8.00    5.30
   8  -7  -2    8.10    2.50
   8   7  -2    2.50    4.70
   7  -7  -2  530.05   23.50
   7  -7  -2  494.65   13.90
  -7  -7   2  478.85   25.10
   7  -7  -2  492.85   14.80
   7   7  -2  535.45   24.70
   6  -7  -2    3.40    1.30
   6  -7  -2    6.00    3.60
   6  -7  -2    4.50    1.80
  -6  -7   2    1.30    4.00
   6   7  -2    2.30    3.20
  -5  -7   2  309.47   17.30
   5  -7  -2  319.07   15.50
   5  -7  -2  308.87    8.10
   5   7  -2  295.67   15.90
   4  -7  -2   -0.10    1.90
  -4  -7   2    1.10    2.70
   4  -7  -2    1.00    0.70
   4  -7  -2    0.70    0.80
   4   7  -2    0.40    1.90
   3  -7  -2  197.98    5.70
  -3  -7   2  192.48   11.40
   3  -7  -2  190.18    5.80
   3   7  -2  197.58   10.70
   3   7  -2  192.88   11.70
  -3   7   2  172.78    9.80
   2  -7  -2  121.79    5.10
  -2  -7   2  125.69    8.50
  -2   7   2  120.09    4.70
   2   7  -2  110.59    7.90
   2   7  -2  122.49    7.70
  -2   7   2  117.59    8.70
   1  -7  -2  162.08    7.10
  -1  -7   2  146.19    8.30
  -1   7   2  155.38    6.50
   1   7  -2  151.28    8.30
   0  -7   2   76.79    5.20
   0  -7  -2   75.89    5.50
   0   7  -2   72.69    5.00
   0   7   2   73.79    5.10
  -1  -7  -2  546.35   18.50
   1  -7   2  502.85   14.30
  -1   7  -2  507.75   14.40
   1   7   2  511.95   17.30
   1   7   2  522.55   17.70
  -1   7  -2  509.75   18.00
  -2  -7  -2   -0.30    1.70
   2   7   2    0.50    1.90
  -2   7  -2    0.20    0.50
  -2   7  -2    1.00    0.80
  -2   7  -2    3.50    2.10
   2   7   2    1.30    1.70
   3  -7   2  384.96   16.80
  -3  -7  -2  396.86   17.90
   3   7   2  404.56   17.10
   4  -7   2   14.70    4.20
  -4  -7  -2   11.10    3.80
   4   7   2   11.00    3.30
   5  -7   2  122.89   10.60
  -5  -7  -2  110.79   11.90
   5   7   2  129.99   13.00
  -5   7  -2  116.99    4.40
   6  -7   2   59.39    8.80
  -6  -7  -2   83.19   10.70
   6  -7   2   56.19    3.40
   6   7   2   64.19    8.90
  -6   7  -2   61.69    4.10
  -7  -7  -2   87.89   11.80
   7  -7   2   86.09   10.80
  -7   7  -2   97.29    6.20
   7   7   2   95.39   11.30
  -8  -7  -2    5.80    6.70
   8  -7   2   -4.80    3.30
   8  -7   2    6.20    5.10
   8   7   2    0.20    5.40
  -8   7  -2    1.70    3.00
   9  -7   2   49.20   11.00
  -9  -7  -2   85.09   13.00
  -9   7  -2   43.70    6.70
   9   7   2   47.20   11.10
  10  -7   2   31.70   10.60
 -10  -7  -2   28.40   10.20
  10   7   2   10.20    8.10
 -11  -7  -2  217.68   23.80
  11  -7   2  189.18   21.40
  11   7   2  184.88   21.80
 -11  -8   2   -5.00    9.90
  11  -8  -2  -11.80    6.70
  11   8  -2   -0.10    8.70
  10  -8  -2   50.69   10.20
 -10  -8   2   32.70   10.20
  10   8  -2   48.10   11.50
   9  -8  -2   22.90    4.50
  -9  -8   2    8.60    7.30
   9  -8  -2   19.60    3.30
   9  -8  -2   16.40    6.20
   9   8  -2   22.40    8.30
   8  -8  -2  184.38    6.60
   8  -8  -2  207.88   15.60
  -8  -8   2  200.18   17.40
   8   8  -2  216.88   16.90
  -7  -8   2    4.80    4.10
   7  -8  -2    4.30    1.10
   7  -8  -2    1.70    4.20
   7   8  -2    3.60    4.20
  -6  -8   2  239.48   16.50
   6  -8  -2  234.88   14.50
   6   8  -2  225.18   14.90
  -5  -8   2   97.69    9.90
   5  -8  -2   98.19    8.90
   5   8  -2   78.69    8.30
  -4  -8   2  146.29   11.40
   4   8  -2  146.29   10.30
  -3  -8   2  323.97   15.90
   3  -8  -2  329.97    8.50
   3  -8  -2  340.07    8.60
   3   8  -2  322.47   14.90
   2  -8  -2  699.63   18.00
  -2  -8   2  745.43   24.10
   2   8  -2  644.14   22.70
   2   8  -2  681.83   22.60
  -2   8   2  699.83   17.30
  -2   8   2  677.63   22.60
  -1  -8   2   13.60    3.20
   1  -8  -2   15.20    2.50
   1   8  -2   13.00    3.30
  -1   8   2   17.40    2.50
   0  -8   2  462.95   17.30
   0  -8  -2  483.45   16.40
   0   8   2  468.75   15.50
   0   8  -2  448.16   15.30
  -1  -8  -2  111.19    7.90
   1  -8   2  113.49    5.60
  -1   8  -2  114.99    5.90
   1   8   2  112.59    7.70
  -1   8  -2  113.29    8.10
   1   8   2  127.99    7.90
  -2  -8  -2  339.17   15.70
  -2   8  -2  352.56    9.00
   2   8   2  356.96   15.50
  -3  -8  -2  196.18   12.40
   3   8   2  177.78   11.30
  -4  -8  -2  592.64   25.10
   4  -8   2  591.54   23.40
   4   8   2  567.84   23.50
   5  -8   2   67.89    8.00
  -5  -8  -2   60.09    8.50
   5   8   2   89.59    9.40
  -6  -8  -2  410.86   22.90
   6  -8   2  400.36   20.70
   6   8   2  369.66   21.00
   7  -8   2    7.60    5.10
  -7  -8  -2    5.60    4.50
   7   8   2    0.60    4.30
  -8  -8  -2  124.89   15.30
   8  -8   2   97.89   11.90
  -8   8  -2  103.99    4.30
   8   8   2  108.29   13.70
  -9  -8  -2    7.30    7.30
   9  -8   2   16.00    7.60
   9   8   2   17.30    8.40
 -10  -8  -2   -1.00    8.20
  10  -8   2    5.50    7.60
  10   8   2   12.60    7.70
 -11  -8  -2  -10.40    9.90
  11  -8   2   -3.70    9.60
  11   8   2   12.20    9.30
 -11  -9   2   59.49   15.00
  11  -9  -2   65.69   13.50
  11   9  -2   34.30   12.10
 -10  -9   2   23.10    8.80
  10  -9  -2   15.60    8.40
  10   9  -2   17.80    8.30
  -9  -9   2  214.48   26.60
   9  -9  -2  210.78   17.50
   9   9  -2  215.18   18.90
  -8  -9   2    8.20    6.90
   8  -9  -2   12.70    5.40
   8   9  -2    3.30    4.80
   7  -9  -2    6.70    5.00
  -7  -9   2    5.00    5.20
   7   9  -2    7.50    4.50
   6  -9  -2    3.40    3.50
  -6  -9   2   -2.90    3.30
   6   9  -2    3.70    4.00
  -5  -9   2   64.49    8.60
  -4  -9   2  244.48   14.90
   4   9  -2  226.28   13.50
   3  -9  -2 1790.12   38.10
  -3  -9   2 1784.12   50.19
   3  -9  -2 1808.22   38.20
   3   9  -2 1836.52   48.90
  -2  -9   2   10.10    3.50
   2  -9  -2   11.60    2.20
  -2   9   2   12.60    2.00
   2   9  -2   16.40    3.90
  -1  -9   2   41.30    5.00
  -1   9   2   39.60    3.80
   0  -9  -2   34.80    4.20
   0  -9   2   36.50    4.20
   0   9   2   39.80    4.80
  -1  -9  -2  393.06   16.30
   1  -9   2  371.16   12.50
   1   9   2  411.06   16.50
  -1   9  -2  393.96   12.80
   1   9   2  384.26   15.40
  -2  -9  -2    0.50    2.40
  -2   9  -2    0.40    1.00
  -2   9  -2    1.00    0.80
   2   9   2   -0.80    1.80
  -3  -9  -2 1109.29   36.10
   3   9   2 1087.89   34.90
  -4  -9  -2   -1.90    3.00
   4   9   2    1.60    3.40
  -5  -9  -2   52.49    8.60
   5  -9   2   45.00    7.10
   5   9   2   49.10    7.50
   6  -9   2   29.20    7.20
  -6  -9  -2   37.90    8.10
   6   9   2   41.10    7.90
  -7  -9  -2  358.36   23.00
   7  -9   2  330.47   20.00
   7   9   2  365.16   22.00
   8  -9   2   49.60   10.00
  -8  -9  -2   42.20   10.40
   8   9   2   47.50   10.70
  -9  -9  -2   16.30   10.20
   9  -9   2   21.00    8.40
   9   9   2   17.50    7.60
  10  -9   2   -4.00    7.50
 -10  -9  -2    5.70    8.90
  10   9   2    7.10    7.90
 -11  -9  -2  -11.20   10.20
 -11 -10   2   11.80   11.30
  11 -10  -2    1.30    9.40
  11  10  -2    9.00    9.60
 -10 -10   2   13.40    8.50
  10 -10  -2   14.10    9.20
  10  10  -2   -0.60    7.40
  -9 -10   2   13.10    7.00
   9 -10  -2   11.20    7.40
   9  10  -2   16.10    7.90
   8 -10  -2   32.50    7.40
  -8 -10   2   36.90    9.70
   8  10  -2   29.10    8.40
  -7 -10   2    8.70    4.70
   7  10  -2    4.40    4.20
  -6 -10   2   -1.10    3.30
   6  10  -2   -4.50    3.80
  -5 -10   2   12.00    4.80
   5  10  -2   19.50    4.70
  -4 -10   2  154.08   12.40
   4  10  -2  144.99   11.20
   3 -10  -2   94.29    3.60
  -3 -10   2  102.09    9.30
   3 -10  -2   95.19    3.60
   3  10  -2   96.19    8.60
  -2 -10   2  807.92   27.90
   2 -10  -2  830.02   21.80
  -2  10   2  809.42   20.70
  -1 -10   2  805.12   26.00
   1 -10  -2  818.12   23.50
  -1  10   2  814.72   22.40
   1  10  -2  784.72   25.50
   0 -10   2   38.90    4.50
   0 -10  -2   45.30    5.00
   0  10  -2   45.60    5.00
  -1 -10  -2   33.50    5.00
   1 -10   2   35.30    3.50
   1  10   2   33.20    5.00
  -1  10  -2   36.90    3.70
  -2 -10  -2  493.35   20.90
  -2  10  -2  496.45   12.50
   2  10   2  488.15   20.40
  -2  10  -2  499.25   13.20
  -3 -10  -2   58.79    7.70
   3  10   2   65.39    7.90
  -4 -10  -2    2.60    3.90
   4  10   2    2.00    3.20
  -5 -10  -2  160.58   14.00
   5  10   2  167.08   13.60
   6 -10   2   18.40    5.90
  -6 -10  -2   15.20    6.20
   6  10   2   12.20    5.20
  -7 -10  -2   -2.10    5.00
   7 -10   2   -4.60    3.80
   7  10   2    2.10    5.00
  -8 -10  -2  185.48   20.00
   8 -10   2  233.08   18.30
   8  10   2  220.38   22.10
   9 -10   2    5.50    6.30
  -9 -10  -2   -3.50    7.90
   9  10   2   -1.80    6.90
  10 -10   2   27.80    9.50
 -10 -10  -2   18.60   11.10
  10  10   2   19.90   10.40
  11 -10   2    5.20   10.60
 -11 -10  -2   -4.70   12.30
  11  10   2   13.50   11.20
 -11 -11   2   13.20   20.10
  11  11  -2   20.50   12.30
 -10 -11   2    6.90    8.70
  10  11  -2    8.20    8.60
  -9 -11   2   87.39   15.00
   9  11  -2  117.09   15.80
  -8 -11   2    5.80    7.20
   8  11  -2    0.40    5.20
  -7 -11   2    6.50    6.50
   7  11  -2    2.60    5.20
  -6 -11   2   92.79   11.80
   6  11  -2   70.19   10.20
  -5 -11   2    0.60    4.00
   5  11  -2    5.60    3.40
  -4 -11   2   42.30    7.30
   4  11  -2   41.50    7.00
   3 -11  -2 1013.40   22.10
   3 -11  -2  953.30   23.30
  -3 -11   2  978.80   34.00
   3  11  -2  981.90   33.10
   2 -11  -2   75.59    5.30
  -2 -11   2   83.49    8.40
  -2  11   2   75.39    4.70
  -1 -11   2   18.30    4.30
   1 -11  -2   25.50    3.90
  -1  11   2   18.20    3.50
   0 -11  -2  323.67   14.70
   0 -11   2  348.27   14.20
   0  11   2  316.47   13.50
   1 -11   2  111.59    7.30
  -1 -11  -2  100.79    8.70
  -1  11  -2  108.49    6.50
   1  11   2  108.29    8.90
  -2 -11  -2    6.50    3.50
  -2  11  -2    8.60    1.90
  -2  11  -2    7.00    1.40
   2  11   2   13.80    4.50
  -3 -11  -2  537.45   24.20
   3  11   2  568.94   25.60
  -4 -11  -2   94.89   10.20
   4  11   2  107.19   10.50
  -5 -11  -2   35.90    8.70
   5  11   2   17.20    6.00
  -6 -11  -2    0.20    5.10
   6  11   2   -3.10    3.30
  -7 -11  -2  172.08   16.70
   7 -11   2  174.88   15.60
   7  11   2  143.99   15.10
   8 -11   2   23.20    7.70
  -8 -11  -2   26.30    9.50
   8  11   2   23.40    9.20
   9 -11   2    6.90    7.70
  -9 -11  -2   20.10   11.10
   9  11   2    8.50    7.30
 -10 -11  -2   33.50   12.40
  10 -11   2   64.69   13.40
  10  11   2   33.90   11.80
 -10 -12   2  135.49   19.80
  10  12  -2   82.49   16.50
  -9 -12   2   -9.90    7.10
   9  12  -2   -5.20    6.90
  -8 -12   2   71.99   12.30
   8  12  -2   62.49   17.10
  -7 -12   2   35.90    9.20
   7  12  -2   38.60    9.50
  -6 -12   2   70.69   11.00
   6  12  -2   58.59    9.20
  -5 -12   2   36.60    8.00
   5  12  -2   54.19    8.50
  -4 -12   2   19.70    6.40
   4  12  -2   17.60    5.80
   3 -12  -2    2.70    1.40
  -3 -12   2    4.30    3.40
   3  12  -2    1.30    3.10
   2 -12  -2  577.54   18.60
  -2 -12   2  596.44   23.90
  -2  12   2  589.54   16.90
   1 -12  -2  123.69    8.10
  -1 -12   2  111.89    9.00
   0 -12  -2  245.88   13.00
   0 -12   2  250.97   12.20
   0  12  -2  251.47   12.40
  -1 -12  -2    4.60    3.30
   1 -12   2    0.90    2.10
   1  12   2    3.60    2.50
  -1  12  -2    1.60    2.10
  -2 -12  -2   65.29    8.50
  -2  12  -2   75.59    4.50
   2  12   2   88.19    9.20
  -3 -12  -2    6.30    5.00
   3  12   2    7.20    4.00
  -4 -12  -2    8.70    5.00
   4  12   2    4.60    4.20
  -5 -12  -2   36.10    8.70
   5  12   2   27.10    6.90
  -6 -12  -2  269.47   20.40
   6  12   2  279.77   19.30
  -7 -12  -2   10.40    7.30
   7  12   2    3.80    5.90
  -8 -12  -2   54.19   11.90
   8  12   2   54.69   13.50
  -9 -12  -2    7.20    9.00
   9  12   2   10.30    9.10
 -10 -12  -2   -6.50    9.40
  10  12   2   -2.90    9.90
 -10 -13   2   58.49   15.70
  10  13  -2   74.89   15.30
  -9 -13   2    9.20    8.30
   9  13  -2   30.20   10.30
  -8 -13   2   83.99   14.10
   8  13  -2  104.79   14.60
  -7 -13   2   24.90   10.40
   7  13  -2   41.10    9.30
  -6 -13   2    1.10    4.90
   6  13  -2   -3.00    4.20
  -5 -13   2   18.90    6.90
   5  13  -2   18.30    6.20
  -4 -13   2   12.60    5.30
   4  13  -2   14.40    4.80
   3 -13  -2   75.19    3.50
  -3 -13   2   75.29    9.50
   3  13  -2   94.39   10.00
  -2 -13   2  294.67   16.40
   2 -13  -2  267.17   11.30
   2  13  -2  284.17   16.20
  -2  13   2  271.17   10.40
   1 -13  -2  315.87   13.90
  -1 -13   2  297.97   15.40
   0 -13  -2    3.90    3.00
   0 -13   2    1.80    2.20
   0  13  -2    4.00    3.80
   1 -13   2   61.59    5.60
  -1 -13  -2   49.70    6.90
   1  13   2   76.59    8.20
  -2 -13  -2    0.30    3.20
  -2  13  -2    4.80    2.00
   2  13   2    0.10    2.60
  -3 -13  -2   41.50    8.70
   3  13   2   29.30    7.00
  -4 -13  -2   46.60    8.90
   4  13   2   56.69    9.00
  -5 -13  -2   37.50    9.60
   5  13   2   23.90    7.00
   6  13   2   53.39   10.40
  -7 -13  -2   10.50    7.90
   7  13   2   29.60    9.70
  -8 -13  -2    3.90    7.90
   8  13   2    3.80    6.60
  -9 -13  -2   12.40   10.50
   9  13   2   28.80   11.20
 -10 -13  -2   -6.00   10.20
  10  13   2    3.90   10.30
 -10 -14   2    2.80   13.60
  10  14  -2   -4.60    9.40
  -9 -14   2   -2.90    8.90
   9  14  -2   11.50    8.50
  -8 -14   2   77.89   15.50
   8  14  -2   78.29   14.50
  -7 -14   2   18.20    9.00
  -6 -14   2    4.20    5.70
   6  14  -2    1.00    4.90
  -5 -14   2   23.30    7.30
   5  14  -2   20.80    6.80
  -4 -14   2  238.78   17.20
   4  14  -2  222.98   16.00
  -3 -14   2    5.20    4.20
   3 -14  -2    9.40    1.70
   3  14  -2    3.70    3.60
  -2 -14   2  122.49   11.30
   2 -14  -2  125.19    7.60
   2  14  -2  101.49   10.40
  -1 -14   2   54.79    7.40
   1 -14  -2   49.99    6.10
   0 -14  -2  177.08   11.50
   0 -14   2  159.18   10.60
   1 -14   2    2.10    2.40
  -1 -14  -2    2.80    3.20
   1  14   2    1.40    3.20
  -2 -14  -2  630.04   27.60
  -2  14  -2  626.04   17.50
   2  14   2  688.83   28.30
  -3 -14  -2  139.39   12.60
   3  14   2  169.98   13.90
  -4 -14  -2    2.30    5.10
   4  14   2   -1.30    4.20
  -5 -14  -2    5.80    5.40
   5  14   2   -5.10    3.70
  -6 -14  -2   14.60    7.50
   6  14   2    7.50    5.90
  -7 -14  -2    4.10    7.00
   7  14   2   12.50    7.70
  -8 -14  -2   26.80   11.10
   8  14   2   26.40   10.10
  -9 -14  -2   18.40    9.70
   9  14   2    9.10   10.60
  -9 -15   2  121.69   19.90
   9  15  -2  113.09   18.60
  -8 -15   2   38.90   10.30
   8  15  -2   24.80    9.80
  -7 -15   2   12.10    6.70
   7  15  -2   -4.00    6.00
  -6 -15   2  261.97   20.60
   6  15  -2  295.87   21.20
  -5 -15   2   -1.50    5.40
   5  15  -2    6.90    5.00
  -4 -15   2   -0.60    4.40
   4  15  -2    4.90    4.20
   3 -15  -2  214.08    6.40
  -3 -15   2  274.77   17.90
   3  15  -2  217.78   15.90
  -2 -15   2   18.60    6.30
   2 -15  -2   22.10    4.20
   2  15  -2   23.40    6.50
   1 -15  -2   48.10    6.50
  -1 -15   2   49.20    7.50
   0 -15   2  240.18   13.20
   0 -15  -2  206.18   13.40
   1 -15   2  187.68   10.40
  -1 -15  -2  201.98   13.80
   1  15   2  192.38   14.50
  -2 -15  -2   63.59    9.60
   2  15   2   67.39    9.50
  -2  15  -2   63.09    4.90
  -3 -15  -2  123.99   12.90
   3  15   2  151.68   13.50
  -4 -15  -2   23.00    6.70
   4  15   2   37.20    9.30
  -5 -15  -2   19.80    8.00
   5  15   2   14.30    5.80
  -6 -15  -2   29.90   14.00
   6  15   2   21.60    8.40
  -7 -15  -2  126.49   17.30
   7  15   2  102.09   14.90
  -8 -15  -2   11.10    8.80
   8  15   2  -17.60    7.00
  -9 -15  -2   16.10   15.50
   9  15   2   12.40   14.30
  -9 -16   2    6.20    9.80
   9  16  -2  -10.80    8.20
  -8 -16   2   31.90   10.70
   8  16  -2   17.10    9.90
  -7 -16   2   10.20    7.30
   7  16  -2    6.90    7.70
  -6 -16   2   15.80   10.30
   6  16  -2   25.10    8.60
  -5 -16   2   71.89   12.60
   5  16  -2   90.49   12.90
  -4 -16   2   97.79   12.30
   4  16  -2  103.39   12.30
  -3 -16   2   14.10    5.70
   3  16  -2    9.50    5.00
  -2 -16   2   34.80    7.50
   2 -16  -2   26.30    5.00
   2  16  -2   38.80    8.20
  -1 -16   2  337.57   17.70
   1 -16  -2  317.17   15.70
   0 -16   2    5.90    4.00
   0 -16  -2    8.30    4.60
  -1 -16  -2   -4.30    3.90
   1 -16   2    0.80    3.20
   1  16   2    3.40    4.30
  -2 -16  -2  184.98   15.40
   2  16   2  180.58   15.00
  -3 -16  -2   15.10    6.30
   3  16   2   -2.30    4.00
  -4 -16  -2   22.10    7.90
   4  16   2   50.19   10.90
  -5 -16  -2  264.97   21.30
  -6 -16  -2   11.30    8.50
   6  16   2    7.70    6.80
  -7 -16  -2    6.10    8.70
   7  16   2    5.80    7.40
  -8 -16  -2   -3.00    7.60
   8  16   2   -7.20    7.80
  -9 -16  -2   10.00   10.70
   9  16   2   11.70   10.50
  -9 -17   2   28.30   12.10
   9  17  -2   23.70   11.00
  -8 -17   2    2.40    9.00
   8  17  -2   -5.20    8.30
  -7 -17   2   81.69   16.00
   7  17  -2   70.69   13.90
  -6 -17   2    9.50    8.60
   6  17  -2   34.60   10.50
  -5 -17   2   47.20   11.10
   5  17  -2   61.09   11.80
  -4 -17   2   45.90    9.60
   4  17  -2   57.09   10.80
  -3 -17   2    0.30    5.40
   3  17  -2    4.20    4.80
   2 -17  -2   -3.40    3.30
  -2 -17   2   -0.90    4.30
   2  17  -2    7.00    4.60
   1 -17  -2    7.50    4.50
   0 -17   2  134.29   10.90
   0 -17  -2  156.78   12.50
   1 -17   2   24.10    4.80
  -1 -17  -2   14.30    5.50
   1  17   2    7.00    5.90
  -2 -17  -2   17.40    6.80
   2  17   2   23.90    7.40
  -3 -17  -2   62.99   11.10
   3  17   2   61.79   10.80
  -4 -17  -2   40.50   10.00
   4  17   2   39.20   12.40
  -5 -17  -2   19.90    8.70
   5  17   2   23.10    8.00
  -6 -17  -2   97.69   16.40
   6  17   2   97.59   16.00
  -7 -17  -2   14.90   10.90
   7  17   2   17.20   10.60
  -8 -17  -2   -5.90   10.10
   8  17   2    6.60    9.80
  -8 -18   2    3.10   10.80
   8  18  -2   12.80   10.90
  -7 -18   2   11.80    9.10
   7  18  -2   33.30   10.50
  -6 -18   2    5.60    6.40
   6  18  -2   -0.10    7.20
  -5 -18   2   99.79   15.00
   5  18  -2   91.39   14.50
  -4 -18   2   69.69   12.00
   4  18  -2   77.59   12.50
  -3 -18   2   63.29   11.20
   3  18  -2   66.59   11.10
  -2 -18   2    3.10    5.30
   2 -18  -2    2.10    4.10
   2  18  -2    0.70    5.10
  -1 -18   2   14.40    5.70
   1 -18  -2    9.50    4.60
   0 -18  -2    8.90    5.40
   0 -18   2    9.10    4.60
  -1 -18  -2  159.18   14.40
   1  18   2  132.49   14.10
  -2 -18  -2  205.18   17.60
  -2  18  -2  211.78    8.80
   2  18   2  239.08   18.80
  -3 -18  -2   41.70    9.10
  -4 -18  -2   25.90    9.70
   4  18   2   12.40    7.70
  -5 -18  -2   22.90    9.90
   5  18   2   20.50    7.50
  -6 -18  -2    5.90    9.10
   6  18   2   -5.80    8.00
  -7 -18  -2   -3.50    9.70
   7  18   2    7.80    8.80
  -7 -19   2   12.00    9.70
   7  19  -2   23.90   11.40
  -6 -19   2    1.70    8.20
   6  19  -2    2.50    8.50
  -5 -19   2   16.30    8.20
   5  19  -2   40.00   11.70
  -4 -19   2   75.89   13.20
   4  19  -2   58.39   12.10
  -3 -19   2  188.18   17.30
   3  19  -2  188.98   17.80
   2 -19  -2   11.10    4.70
  -2 -19   2    9.20    6.50
   2  19  -2   12.70    6.60
   1 -19  -2    2.00    5.10
  -1 -19   2   -5.30    4.40
   0 -19  -2   55.39    9.90
   0 -19   2   45.30   10.70
  -1 -19  -2    2.30    5.90
  -2 -19  -2   94.69   12.80
   2  19   2  120.29   14.60
  -2  19  -2   89.19    5.00
  -3 -19  -2   65.29   12.30
   3  19   2   60.99   11.90
  -4 -19  -2    6.70    7.40
   4  19   2   12.80    8.20
  -5 -19  -2   12.50    8.90
   5  19   2   19.80    8.40
  -6 -19  -2   66.79   16.50
   6  19   2   57.69   12.40
  -7 -19  -2   65.69   19.90
   7  19   2   47.20   16.20
  -7 -20   2    3.30   15.20
   7  20  -2   23.10   12.00
  -6 -20   2   30.00   12.00
   6  20  -2   40.80   12.40
  -5 -20   2   27.40   10.00
   5  20  -2   21.80   10.70
  -4 -20   2   32.10    9.50
   4  20  -2   30.60   10.10
  -3 -20   2    7.00    7.50
   3  20  -2    6.90    7.60
  -2 -20   2   16.90    7.60
   2 -20  -2   14.60    5.60
   2  20  -2   20.90    8.70
  -1 -20   2  331.47   20.10
   0 -20  -2    6.10    5.80
   0  20   2    0.10    5.10
  -1 -20  -2   28.00    8.10
   1 -20   2   29.40    6.90
   1  20   2   35.60    8.40
  -2 -20  -2  123.49   15.50
   2  20   2  131.19   15.90
  -3 -20  -2    6.10    7.50
   3  20   2    3.20    8.40
  -4 -20  -2    0.00    8.30
   4  20   2    8.30    8.50
  -5 -20  -2   82.69   15.90
   5  20   2  102.39   16.90
  -6 -20  -2    9.20   10.70
   6  20   2    0.30   10.50
  -6 -21   2   96.09   18.80
   6  21  -2  127.09   21.00
  -5 -21   2   26.10   11.60
   5  21  -2   14.90   11.00
  -4 -21   2   16.10    8.90
   4  21  -2   20.60   10.10
  -3 -21   2   39.20   10.80
   3  21  -2   59.59   14.30
  -2 -21   2    0.00    6.80
   2  21  -2    1.90    7.20
   1 -21  -2    1.20    6.00
   1  21  -2   -1.90    5.80
   0  21   2  178.18   18.20
  -1 -21  -2   37.60   11.60
   1 -21   2   38.70    7.20
   1  21   2   48.00   10.50
  -2 -21  -2    7.70    7.60
   2  21   2   -0.30    7.40
  -3 -21  -2   34.60   10.00
   3  21   2   45.20   12.80
  -4 -21  -2   -7.20    8.50
   4  21   2    9.10    8.80
  -5 -21  -2   20.80   12.00
   5  21   2   18.00   10.70
  -5 -22   2   13.90   10.90
   5  22  -2   12.90   11.60
  -4 -22   2    4.30    9.10
   4  22  -2   -6.50    7.50
  -3 -22   2   14.40    8.40
   3  22  -2   -1.50    8.30
   2  22  -2   85.39   15.70
   1 -22  -2  103.39   16.50
   1  22  -2  101.49   15.10
   0 -22  -2   34.30    9.20
   0  22   2   43.10   12.40
   1  22   2   65.79   13.10
   2  22   2  -11.20    7.50
  -3 -22  -2   53.29   13.10
   3  22   2   63.09   14.30
  -4 -22  -2    8.10   10.40
   4  22   2    6.30   13.50
   3  23  -2   55.19   16.10
   2  23  -2  121.69   18.80
  -1 -23   2    4.40    9.30
  -1  23   2   -5.00    8.80
   1  23  -2   16.20    8.40
   0 -23  -2   15.60   10.00
   0  23   2   33.50   11.60
  -1 -23  -2   56.69   12.90
   1  23   2   68.79   15.10
   2  23   2    3.60    9.30
   3  23   2   13.40   11.00
  -1  24   2   10.30    9.40
   1  24  -2   23.40   11.20
   0  24  -2   18.10   10.10
   0  24   2   29.60   12.40
  12   0  -3   -5.80    8.70
 -11   0   3   67.49   12.90
  11   0  -3   65.39   13.00
  10   0  -3   -2.10    5.20
 -10   0   3   -6.30    5.50
   9   0  -3  127.79   13.00
  -9   0   3  122.39   12.80
  -8   0   3   -1.10    3.60
   8   0  -3    1.70    3.50
   7   0  -3  109.49   10.10
  -7   0   3   96.79    9.30
   6   0  -3    1.20    2.10
  -6   0   3    2.30    2.40
  -5   0   3  136.69    8.80
   5   0  -3  126.49    8.40
  -5   0   3  127.99    8.40
  -4   0   3    0.20    1.20
  -4   0   3    0.00    1.60
   4   0  -3    0.00    1.20
   4   0  -3    3.10    2.00
   3   0  -3  222.98    9.60
  -3   0   3  205.18    8.20
  -3   0   3  214.98    9.60
   3   0  -3  212.58    8.30
  -2   0   3    0.50    0.60
   2   0  -3    0.10    1.00
  -2   0   3    1.40    1.20
   2   0  -3    0.30    0.60
   1   0  -3    2.60    1.00
   1   0  -3    2.30    1.20
   0   0  -3   -0.20    0.70
   0   0  -3   -0.40    0.50
   0   0   3    0.40    0.70
   0   0   3   -0.10    0.50
  -1   0  -3  723.03   18.80
   1   0   3  723.33   18.60
  -1   0  -3  723.43   18.90
   1   0   3  753.52   19.10
  -2   0  -3   -0.80    1.00
   2   0   3    1.90    1.50
  -2   0  -3   -0.50    1.00
   2   0   3   -0.40    0.90
   3   0   3  355.86   14.40
   3   0   3  373.76   13.10
  -3   0  -3  363.96   13.70
   4   0   3    0.00    1.80
  -4   0  -3    3.80    1.90
   5   0   3  901.51   30.90
  -5   0  -3  949.40   29.90
  -6   0  -3    4.20    3.00
   6   0   3   -1.50    2.60
  -7   0  -3  565.24   24.60
   7   0   3  539.85   25.80
  -8   0  -3   -2.50    4.30
   8   0   3    0.90    4.30
  -9   0  -3    5.40    6.30
   9   0   3    2.00    5.80
 -10   0  -3    1.30    7.00
  10   0   3    4.90    7.00
  11   0   3   42.60   12.60
  12  -1  -3   77.49   15.60
 -12  -1   3   77.09   13.70
  12   1  -3   46.30   12.50
  11  -1  -3   13.70    8.70
 -11  -1   3   10.10    8.70
 -11   1   3   14.20    8.30
  11   1  -3   21.80   10.40
 -10  -1   3    4.00    5.50
  10  -1  -3   -2.80    5.40
  10   1  -3   -5.60    4.30
 -10   1   3    7.10    5.80
  -9  -1   3   26.00    7.40
   9  -1  -3   37.20    8.80
  -9   1   3   37.40    7.70
   9   1  -3   28.00    7.60
   8  -1  -3  180.58   14.00
  -8  -1   3  169.48   13.60
   8   1  -3  173.58   13.40
  -8   1   3  186.98   13.10
  -7  -1   3   11.80    4.10
   7  -1  -3    1.30    3.40
  -7   1   3   -0.90    2.60
   7   1  -3   -2.70    2.80
   6  -1  -3   34.40    6.50
  -6  -1   3   37.50    6.00
   6  -1  -3   38.30    5.60
  -6   1   3   36.10    5.40
   6   1  -3   37.90    6.00
  -5  -1   3  190.28   10.80
   5  -1  -3  168.48    9.60
  -5  -1   3  158.98    9.50
  -5   1   3  155.18    9.20
   5   1  -3  165.98    9.80
  -5   1   3  163.68    9.60
  -4  -1   3   38.10    4.10
   4  -1  -3   29.70    3.70
   4  -1  -3   32.80    4.10
  -4  -1   3   33.10    4.50
  -4   1   3   23.40    3.60
   4   1  -3   33.90    3.90
   4   1  -3   22.20    4.40
  -4   1   3   25.40    3.70
  -3  -1   3  239.98   10.50
   3  -1  -3  255.37    9.20
  -3  -1   3  243.28    9.10
   3  -1  -3  241.78    9.90
  -3   1   3  248.78    9.20
  -3   1   3  243.68    9.90
   3   1  -3  242.48   10.60
   3   1  -3  247.38    9.40
  -2  -1   3 1736.23   41.00
   2  -1  -3 1724.13   37.60
  -2  -1   3 1716.23   37.80
   2  -1  -3 1702.73   39.90
   2   1  -3 1713.03   40.90
  -2   1   3 1741.93   39.90
   2   1  -3 1754.62   38.10
  -2   1   3 1736.33   37.70
   1  -1  -3   45.60    3.00
  -1  -1   3   56.39    3.90
  -1   1   3   44.10    2.90
   1   1  -3   52.39    3.70
   0  -1  -3  708.43   17.60
   0  -1   3  676.23   16.10
   0  -1  -3  673.63   15.80
   0  -1   3  659.53   16.80
   0   1   3  688.73   15.90
   0   1   3  675.63   17.30
   0   1  -3  693.33   17.10
   0   1  -3  690.13   17.10
  -1  -1  -3  273.57    9.30
  -1  -1  -3  277.07    9.80
   1  -1   3  283.07    8.90
   1  -1   3  292.97    9.70
  -1   1  -3  275.57    9.40
   1   1   3  280.37    9.50
  -1   1  -3  290.17    9.20
   1   1   3  276.17    9.50
  -2  -1  -3  190.08    8.50
   2  -1   3  184.98    7.30
   2  -1   3  171.18    8.30
  -2  -1  -3  168.58    8.10
  -2   1  -3  184.78    7.70
  -2   1  -3  169.28    8.10
   2   1   3  168.68    7.70
   2   1   3  176.78    8.50
  -3  -1  -3  265.37   11.60
   3  -1   3  260.47   12.00
   3  -1   3  250.57    9.90
   3   1   3  258.67   10.70
  -3   1  -3  256.97   13.50
  -3   1  -3  272.17   10.80
   3   1   3  236.68   11.60
   4  -1   3 1808.22   45.40
   4  -1   3 1886.71   49.70
  -4  -1  -3 1940.91   49.10
   4   1   3 1891.11   49.80
   4   1   3 1871.21   48.80
  -4   1  -3 1895.71   47.30
   5  -1   3    8.60    3.40
   5  -1   3   12.80    4.00
  -5  -1  -3    9.20    3.10
   5   1   3   12.20    4.40
  -5   1  -3    8.10    2.90
  -6  -1  -3   60.99    8.00
   6  -1   3   48.40    7.60
   6   1   3   73.09    8.50
  -6   1  -3   70.09    7.60
   7  -1   3    0.80    3.60
  -7  -1  -3    1.50    4.30
  -7   1  -3   -1.60    3.40
   7   1   3    1.80    4.10
   8  -1   3  160.38   15.20
  -8  -1  -3  186.78   15.00
   8   1   3  145.49   14.30
  -8   1  -3  164.68   13.70
  -9  -1  -3    0.60    5.90
   9  -1   3    9.30    5.80
   9   1   3    4.70    6.50
  -9   1  -3   -3.30    5.40
  10  -1   3   92.89   14.30
 -10  -1  -3   98.49   14.20
  10   1   3   93.79   14.80
 -10   1  -3   69.69   13.10
  11  -1   3   12.60    9.10
 -11  -1  -3   29.60   11.60
  11   1   3   25.50   10.70
  12  -2  -3   33.20   10.30
 -12  -2   3   21.20   11.30
  12   2  -3   19.80   11.10
  11  -2  -3   34.30    9.90
 -11  -2   3   37.00   10.60
  11   2  -3   53.39   12.00
 -11   2   3   22.80    7.20
  10  -2  -3   -0.10    5.90
 -10  -2   3   15.00    7.10
  10   2  -3   13.00    7.60
 -10   2   3    3.50    5.80
   9  -2  -3   37.30    7.90
  -9  -2   3   37.80    7.90
  -9   2   3   59.29    9.00
   9   2  -3   41.60    8.20
  -8  -2   3   40.20    8.10
   8  -2  -3   33.40    7.80
  -8   2   3   28.40    6.20
   8   2  -3   22.30    5.90
  -7  -2   3  236.58   15.40
   7  -2  -3  231.98   14.50
   7   2  -3  250.87   15.40
  -7   2   3  266.57   14.10
  -6  -2   3   50.09    6.90
   6  -2  -3   42.10    6.10
   6  -2  -3   33.90    5.20
   6   2  -3   42.20    6.10
  -6   2   3   38.90    5.30
   5  -2  -3   10.10    2.70
  -5  -2   3   19.50    4.70
  -5  -2   3   14.20    3.80
   5  -2  -3   22.30    4.10
  -5   2   3   18.10    3.30
  -5   2   3   18.10    4.00
   5   2  -3   14.50    3.60
   4  -2  -3   64.09    5.10
  -4  -2   3   58.49    5.00
   4  -2  -3   50.59    4.60
  -4  -2   3   52.69    5.60
   4   2  -3   58.09    5.80
   4   2  -3   57.69    5.10
  -4   2   3   65.59    5.30
  -4   2   3   62.29    4.90
   3  -2  -3 1216.28   30.80
   3  -2  -3 1265.17   30.50
  -3  -2   3 1262.27   33.40
  -3  -2   3 1246.88   30.60
  -3   2   3 1288.47   31.00
   3   2  -3 1254.67   31.10
  -3   2   3 1239.68   30.60
   3   2  -3 1198.48   33.00
   2  -2  -3   79.09    3.80
   2  -2  -3   74.99    3.90
  -2  -2   3   72.99    6.00
   2  -2  -3   73.89    4.40
  -2  -2   3   82.59    4.10
   2   2  -3   75.29    4.00
  -2   2   3   80.19    3.90
   2   2  -3   85.19    5.60
  -1  -2   3  479.95   14.40
   1  -2  -3  481.45   13.00
  -1   2   3  473.55   12.90
   1   2  -3  484.25   14.50
   0  -2  -3  505.85   13.00
   0  -2  -3  536.35   14.70
   0   2   3  536.15   13.40
   0   2  -3  517.25   13.60
   0   2  -3  534.65   14.70
   0   2   3  540.75   14.50
   0   2  -3  520.25   13.70
   1  -2   3  309.87   10.40
   1  -2   3  297.47    9.00
  -1  -2  -3  297.97   10.70
  -1  -2  -3  312.47   10.10
   1   2   3  310.77   10.30
  -1   2  -3  289.77   10.20
   1   2   3  293.27   10.30
  -1   2  -3  314.57    9.40
   2  -2   3  332.37   10.30
  -2  -2  -3  344.17   12.80
  -2  -2  -3  338.07   12.20
   2  -2   3  340.77   12.60
  -2   2  -3  334.17   10.80
   2   2   3  327.27   12.40
  -2   2  -3  313.57   12.10
   2   2   3  315.37   11.90
   3  -2   3 1423.46   38.20
  -3  -2  -3 1456.75   38.00
   3  -2   3 1447.36   34.40
  -3  -2  -3 1426.06   38.30
  -3   2  -3 1390.56   37.80
   3   2   3 1432.76   38.50
  -3   2  -3 1446.56   37.70
   3   2   3 1492.75   40.20
   4  -2   3  276.57   10.90
  -4  -2  -3  268.77   13.50
   4  -2   3  281.37   13.90
  -4   2  -3  272.37   11.70
   4   2   3  255.57   12.20
   4   2   3  275.67   13.90
   5  -2   3   90.89    6.90
  -5  -2  -3   97.19    8.60
   5  -2   3  103.79    9.20
  -5   2  -3   95.09    7.50
   5   2   3   99.59    9.00
  -6  -2  -3    6.10    3.90
   6  -2   3    6.60    3.80
   6   2   3   16.00    4.80
  -6   2  -3    6.40    3.20
  -7  -2  -3   88.49   10.10
   7  -2   3  123.49   12.20
   7   2   3  119.09   12.00
  -7   2  -3  100.59    9.80
  -8  -2  -3   49.50    9.70
   8  -2   3   48.90    9.70
  -8   2  -3   48.70    8.80
   8   2   3   35.60    8.80
  -9  -2  -3   97.09   13.80
   9  -2   3   83.99   12.70
   9   2   3   72.89   12.60
  -9   2  -3   71.49   11.20
  10  -2   3    0.70    7.40
 -10  -2  -3   19.70    9.40
  10   2   3   12.60    7.30
 -10   2  -3   22.50    7.90
  11  -2   3    7.20    8.50
 -11  -2  -3  -13.90    9.10
  11   2   3    2.60    9.10
 -12  -3   3   18.20   11.00
  12  -3  -3   31.10   10.70
 -12   3   3   43.20   11.50
  12   3  -3   38.60   11.20
 -11  -3   3  -12.40    7.80
  11  -3  -3    0.00    7.10
  11   3  -3   -5.00    7.00
 -11   3   3    8.30    6.80
 -10  -3   3    9.40    7.70
  10  -3  -3    9.90    6.50
  10   3  -3    9.10    6.60
 -10   3   3    6.70    6.00
   9  -3  -3    2.00    4.30
  -9  -3   3    0.50    5.40
  -9   3   3   -3.30    4.50
   9   3  -3   -5.10    3.60
   8  -3  -3  143.09   12.20
  -8  -3   3  150.48   13.20
  -8   3   3  129.19   10.40
   8   3  -3  124.99   12.30
  -7  -3   3   58.89   11.20
   7  -3  -3   96.19    9.30
   7   3  -3   77.79    8.90
  -7   3   3   79.89    7.80
   6  -3  -3   85.39    7.90
  -6  -3   3   79.29    8.50
   6  -3  -3   77.99    6.90
  -6   3   3   71.69    6.40
   6   3  -3   73.99    7.90
   5  -3  -3  262.97   12.40
  -5  -3   3  252.37   13.90
   5  -3  -3  256.47   11.10
  -5   3   3  244.98   10.90
   5   3  -3  228.58   12.10
  -5   3   3  232.98   11.90
  -4  -3   3    1.50    1.70
   4  -3  -3    0.90    1.30
   4  -3  -3    1.90    1.60
  -4  -3   3    0.60    1.80
   4   3  -3    1.30    1.50
  -4   3   3    2.00    1.80
  -4   3   3    1.70    1.40
   4   3  -3    1.30    2.30
   3  -3  -3  166.78    7.50
   3  -3  -3  163.68    7.20
  -3  -3   3  181.38    9.60
  -3  -3   3  156.18    7.40
   3   3  -3  165.58    9.10
   3   3  -3  173.18    8.00
  -3   3   3  167.58    7.10
  -3   3   3  167.48    7.60
   2  -3  -3  709.53   18.20
  -2  -3   3  730.13   21.30
   2  -3  -3  700.63   18.50
   2  -3  -3  709.93   17.70
  -2   3   3  708.93   18.30
   2   3  -3  723.13   18.90
   2   3  -3  706.53   21.10
   1  -3  -3   90.69    4.50
  -1  -3   3   90.39    5.40
   1   3  -3   86.69    5.30
  -1   3   3   92.39    4.30
   0  -3   3  151.78    6.50
   0  -3  -3  163.48    6.80
   0   3   3  149.49    6.40
   0   3   3  153.68    5.90
   0   3  -3  151.98    6.30
   0   3  -3  140.79    6.30
   1  -3   3  475.05   12.70
  -1  -3  -3  475.85   14.20
   1  -3   3  507.05   14.90
  -1  -3  -3  478.95   17.10
   1   3   3  475.95   14.80
  -1   3  -3  490.05   14.80
  -1   3  -3  487.15   12.90
   1   3   3  486.25   14.70
   2  -3   3  218.88    7.40
  -2  -3  -3  225.78   10.30
   2  -3   3  216.28    9.90
  -2  -3  -3  218.28    9.50
   2   3   3  207.48    9.60
  -2   3  -3  215.08    7.70
  -2   3  -3  235.58   10.10
   2   3   3  221.78   10.00
  -3  -3  -3    3.90    2.20
   3  -3   3    3.70    2.00
   3  -3   3    2.70    1.30
  -3  -3  -3    3.40    1.80
   3   3   3    0.60    1.50
   3   3   3    3.60    2.00
  -3   3  -3    6.20    2.50
  -3   3  -3    2.60    1.40
   4  -3   3  201.78    8.60
   4  -3   3  207.78   11.80
  -4  -3  -3  202.58   11.80
   4   3   3  217.38   12.30
  -4   3  -3  205.78    9.50
  -5  -3  -3    7.30    3.30
   5  -3   3    7.00    2.50
   5  -3   3    1.50    2.60
   5   3   3    5.70    3.40
  -5   3  -3    7.70    2.90
   6  -3   3   -2.40    2.70
  -6  -3  -3    2.90    4.00
   6  -3   3    2.60    3.40
   6   3   3    1.80    2.40
  -6   3  -3    2.20    2.80
   7  -3   3   21.50    6.40
  -7  -3  -3   45.40    8.30
   7   3   3   26.70    6.70
  -7   3  -3   34.90    6.40
  -8  -3  -3  153.18   15.00
   8  -3   3  133.79   14.10
   8   3   3  175.38   15.60
  -8   3  -3  157.78   12.30
  -9  -3  -3    3.20    6.00
   9  -3   3    8.50    6.50
  -9   3  -3    4.10    5.50
   9   3   3    3.50    6.80
 -10  -3  -3   -2.90    8.10
  10  -3   3   14.30    8.50
 -10   3  -3   10.10    7.70
  10   3   3   12.30    7.80
 -11  -3  -3   11.40   10.20
  11  -3   3   21.90   10.20
 -11   3  -3   -0.20    9.50
  11   3   3    1.10    8.40
  12  -4  -3   -0.90    8.30
 -12  -4   3   40.20   12.50
  12   4  -3   16.50   10.70
 -12   4   3   20.60   13.50
  11  -4  -3   53.39   11.40
 -11  -4   3   90.29   15.30
  11   4  -3   80.99   15.70
 -11   4   3   65.59   12.10
 -10  -4   3    2.20    6.80
  10  -4  -3   -2.20    5.80
 -10   4   3   11.70    6.40
  10   4  -3   -1.50    5.60
   9  -4  -3   47.10    9.40
  -9  -4   3   51.59   10.50
  -9   4   3   57.69    8.30
   9   4  -3   48.40    9.30
  -8  -4   3   35.10    7.90
   8  -4  -3   26.50    7.00
  -8   4   3   37.10    6.50
   8   4  -3   34.40    7.20
   7  -4  -3  304.67   17.00
   7  -4  -3  328.97   15.10
  -7  -4   3  360.36   19.80
  -7   4   3  342.67   14.80
   6  -4  -3    3.00    2.90
   6  -4  -3    2.60    2.70
  -6  -4   3    0.90    2.90
  -6   4   3   -2.20    2.10
   6   4  -3   -1.00    2.60
   5  -4  -3   27.70    4.40
  -5  -4   3   20.90    5.10
   5  -4  -3   28.70    3.90
  -5   4   3   21.90    4.20
   5   4  -3   26.90    4.80
  -5   4   3   22.40    3.20
  -4  -4   3   35.70    4.50
  -4  -4   3   39.70    5.40
   4  -4  -3   39.40    4.50
   4  -4  -3   35.70    3.50
  -4   4   3   37.50    3.40
   4   4  -3   35.90    5.20
   4   4  -3   46.50    5.00
  -3  -4   3  476.25   17.80
   3  -4  -3  468.05   15.00
   3  -4  -3  474.75   13.90
   3  -4  -3  470.25   12.90
  -3  -4   3  464.55   15.00
   3   4  -3  471.25   15.80
   3   4  -3  454.75   19.50
  -3   4   3  469.45   15.30
  -2  -4   3    8.70    2.30
   2  -4  -3   12.00    1.70
  -2   4   3   10.00    1.90
   2   4  -3    8.20    2.40
   2   4  -3   13.10    2.20
  -2   4   3    7.50    1.40
   1  -4  -3 1029.80   24.80
  -1  -4   3 1026.10   26.80
  -1   4   3 1004.40   24.40
   1   4  -3 1022.70   26.90
   0  -4   3 1145.79   27.90
   0  -4  -3 1170.68   28.60
   0   4   3 1123.99   27.40
   0   4   3 1117.19   27.80
   0   4  -3 1138.19   28.00
  -1  -4  -3  396.16   13.90
   1  -4   3  384.06   13.30
  -1  -4  -3  384.96   12.50
   1   4   3  378.86   13.20
  -1   4  -3  395.86   11.60
  -1   4  -3  380.96   10.80
  -1   4  -3  387.26   13.30
   2  -4   3   93.59    6.40
  -2  -4  -3  110.19    7.40
   2  -4   3  110.89    4.50
  -2  -4  -3  102.29    6.40
  -2   4  -3  106.79    4.80
   2   4   3   96.39    6.70
   2   4   3  102.69    6.80
  -2   4  -3  114.19    7.00
   3  -4   3 1110.39   26.00
  -3  -4  -3 1064.59   32.20
   3  -4   3 1102.49   31.70
  -3  -4  -3 1079.49   30.70
  -3   4  -3 1083.59   31.50
  -3   4  -3 1106.39   27.00
   3   4   3 1058.79   31.60
   3   4   3 1085.79   31.10
   4  -4   3  424.46   18.00
   4  -4   3  423.26   13.10
  -4  -4  -3  409.76   18.30
   4   4   3  422.86   18.20
  -4   4  -3  417.36   15.90
   5  -4   3  143.79    7.60
  -5  -4  -3  148.59   11.10
   5  -4   3  168.58   11.40
  -5   4  -3  138.99    8.10
   5   4   3  145.39   11.30
   6  -4   3   30.00    6.70
   6  -4   3   24.00    4.50
   6   4   3   32.90    6.40
  -6   4  -3   26.40    4.60
  -7  -4  -3  188.08   15.30
   7  -4   3  176.18   14.20
  -7   4  -3  187.98   11.70
   7   4   3  188.58   15.10
   8  -4   3  132.29   13.90
  -8  -4  -3  141.59   14.70
   8   4   3  177.58   15.50
  -8   4  -3  144.89   11.50
  -9  -4  -3   71.29   13.50
   9  -4   3   64.39   11.80
   9   4   3   84.89   13.50
  -9   4  -3   82.59   10.40
  10  -4   3   15.40    9.20
 -10  -4  -3   26.60   11.50
  10   4   3   20.90    7.80
 -10   4  -3   32.60    8.90
 -11  -4  -3    1.80   11.10
  11  -4   3   23.70   10.40
  11   4   3   16.10    9.60
 -11   4  -3   -1.40    9.00
 -12  -5   3  118.29   20.60
  12  -5  -3  139.69   19.60
  12   5  -3  114.19   18.50
  11  -5  -3    9.40    8.20
 -11  -5   3  -12.90    7.60
  11   5  -3  -12.50    6.90
 -11   5   3    2.40    6.90
 -10  -5   3   35.80   11.10
  10  -5  -3   16.90    8.20
  10   5  -3   21.00    7.60
 -10   5   3   18.80    6.70
   9  -5  -3    6.10    4.80
  -9  -5   3   15.80    7.20
   9   5  -3    6.70    5.30
  -9   5   3    3.00    4.40
   8  -5  -3    9.80    4.80
  -8  -5   3    9.00    6.10
  -8   5   3    4.50    3.20
   8   5  -3   14.00    5.20
  -7  -5   3    8.40    4.80
   7   5  -3   17.10    5.60
  -7   5   3   20.40    4.10
  -6  -5   3  763.72   29.90
   6  -5  -3  747.93   26.90
   6  -5  -3  766.92   22.90
  -6   5   3  795.32   22.90
   6   5  -3  784.02   28.30
  -5  -5   3  139.99   10.90
   5  -5  -3  128.39    7.10
   5  -5  -3  123.29    8.70
   5   5  -3  130.09    9.40
  -5   5   3  123.39    8.00
   4  -5  -3   96.69    4.60
   4  -5  -3  107.49    7.00
   4  -5  -3   91.09    5.30
  -4  -5   3  102.99    7.20
  -4  -5   3   97.19    8.30
   4   5  -3  102.89    7.50
   3  -5  -3   38.70    3.90
   3  -5  -3   45.50    3.00
  -3  -5   3   40.40    5.20
   3  -5  -3   48.00    3.50
   3   5  -3   48.40    5.40
   3   5  -3   48.10    4.80
  -3   5   3   48.40    4.40
   2  -5  -3   87.79    4.40
  -2  -5   3   91.49    6.70
  -2   5   3   85.39    5.30
   2   5  -3   91.39    5.70
  -2   5   3   92.69    4.30
   1  -5  -3  244.08    8.90
  -1  -5   3  254.87   10.50
   1   5  -3  257.27   10.50
  -1   5   3  249.58    8.60
   0  -5   3 1419.56   34.10
   0   5  -3 1434.56   34.30
   0   5   3 1399.86   34.10
  -1  -5  -3  214.48    9.90
  -1   5  -3  224.78    8.00
   1   5   3  208.28    9.30
  -1   5  -3  207.28    7.10
  -1   5  -3  222.08    9.70
   2  -5   3 3277.97   74.39
  -2  -5  -3 3266.67   75.79
  -2   5  -3 3264.87   68.69
  -2   5  -3 3200.28   74.29
   2   5   3 3097.09   73.99
  -2   5  -3 3295.47   69.19
   2   5   3 3291.37   74.59
  -3  -5  -3  325.87   13.70
   3  -5   3  305.07   14.00
   3  -5   3  304.07    9.20
  -3  -5  -3  314.27   15.00
  -3   5  -3  299.87   13.90
  -3   5  -3  301.87    9.90
   3   5   3  324.47   14.50
   3   5   3  309.37   15.80
   4  -5   3    2.20    1.30
   4  -5   3    2.10    2.70
  -4  -5  -3    4.30    3.40
  -4   5  -3    3.90    1.60
   4   5   3   -0.70    2.30
   5  -5   3   18.20    3.10
   5  -5   3   25.40    4.70
  -5  -5  -3   23.10    6.00
  -5   5  -3   14.30    3.10
   5   5   3   18.60    4.70
   6  -5   3   48.50    7.70
   6  -5   3   38.10    4.60
  -6  -5  -3   54.39    8.80
   6   5   3   45.70    7.90
  -6   5  -3   40.50    4.90
   7  -5   3    8.00    5.10
  -7  -5  -3   13.40    6.60
  -7   5  -3    5.90    3.30
   7   5   3   15.30    5.30
  -8  -5  -3   66.29   11.00
   8  -5   3   63.19   11.00
   8   5   3   61.99   10.50
  -8   5  -3   54.59    8.10
  -9  -5  -3   28.50    9.10
   9   5   3   38.30   15.60
  -9   5  -3   19.10    6.10
 -10  -5  -3   77.49   15.20
  10  -5   3   73.69   14.10
  10   5   3   53.69   11.40
  11  -5   3    6.70    9.30
 -11  -5  -3    4.80   10.60
  11   5   3   -8.40    7.90
 -12  -6   3   19.20   10.50
  12  -6  -3   13.80    8.30
  12   6  -3   31.60   11.10
 -11  -6   3    5.40    8.30
  11  -6  -3   -9.40    6.90
  11   6  -3   -1.30    8.30
 -10  -6   3   10.20   12.10
  10  -6  -3    7.20    6.40
  10   6  -3   -8.10   10.40
 -10   6   3   -4.70    5.20
   9  -6  -3   10.20    5.80
  -9  -6   3    9.90    7.10
   9   6  -3   16.30    7.20
  -9   6   3   14.60    4.70
   8  -6  -3  130.29   11.90
  -8  -6   3  100.79   12.10
   8   6  -3  128.59   13.10
  -8   6   3  109.89    8.00
   7  -6  -3  486.35   22.00
  -7  -6   3  501.55   24.90
   7  -6  -3  445.76   16.30
  -7   6   3  483.85   16.40
   7   6  -3  480.95   22.80
   6  -6  -3   28.20    5.20
  -6  -6   3   29.80    7.90
   6  -6  -3   29.30    5.70
   6  -6  -3   22.40    3.90
   6   6  -3   33.70    6.90
   5  -6  -3  192.68    8.20
   5  -6  -3  186.08    7.10
   5  -6  -3  203.58   11.30
  -5  -6   3  173.08   12.50
   5   6  -3  184.18   11.60
   4  -6  -3   94.39    5.10
  -4  -6   3  107.69    9.00
   4  -6  -3   99.99    7.30
   4  -6  -3  102.99    4.60
   4   6  -3  105.89    8.00
  -4   6   3  111.49    7.80
  -3  -6   3  793.82   26.30
   3  -6  -3  809.22   19.30
   3  -6  -3  770.42   19.90
  -3   6   3  779.52   25.50
   3   6  -3  786.62   24.10
   3   6  -3  753.22   25.50
  -2  -6   3  641.84   21.10
   2  -6  -3  610.74   16.40
   2   6  -3  627.14   19.40
  -2   6   3  615.14   16.10
  -2   6   3  611.64   18.90
  -1  -6   3  192.68    9.50
   1  -6  -3  207.18    8.40
   1   6  -3  227.08   10.20
  -1   6   3  211.98    8.10
   0  -6  -3   73.09    5.20
   0  -6   3   69.99    4.80
   0   6  -3   62.99    4.80
   0   6   3   70.69    4.80
  -1  -6  -3   64.09    5.60
   1   6   3   66.49    5.30
  -1   6  -3   62.29    3.60
  -1   6  -3   66.99    4.10
  -1   6  -3   62.29    6.10
   2  -6   3   66.79    6.00
  -2  -6  -3   66.89    6.50
  -2  -6  -3   68.19    5.70
   2   6   3   73.39    6.20
  -2   6  -3   73.29    4.00
  -2   6  -3   73.39    6.40
   2   6   3   76.79    6.30
  -2   6  -3   75.09    3.70
  -3  -6  -3 2036.80   53.79
   3  -6   3 1998.80   51.89
  -3   6  -3 1983.60   44.30
  -3   6  -3 2006.60   44.30
   3   6   3 2073.09   52.79
  -4  -6  -3  312.97   16.50
   4  -6   3  310.57    9.30
   4  -6   3  326.67   15.70
   4   6   3  329.47   16.40
  -4   6  -3  303.77   10.30
   5  -6   3   20.10    4.90
  -5  -6  -3   20.10    5.40
   5  -6   3   18.40    2.70
   5   6   3   21.80    5.10
  -5   6  -3   16.50    3.20
   6  -6   3   44.70    4.50
   6  -6   3   54.49    7.70
  -6  -6  -3   69.89    9.40
  -6   6  -3   54.29    5.20
   6   6   3   47.90    8.40
  -7  -6  -3   23.60    7.10
   7  -6   3   64.89    9.60
   7   6   3   31.20    7.80
  -7   6  -3   42.10    5.60
   8  -6   3    3.90    5.00
   8  -6   3    8.00    5.00
  -8  -6  -3    5.60    5.80
   8   6   3    8.30    5.40
  -8   6  -3    4.20    4.10
   9  -6   3  188.58   16.90
  -9  -6  -3  138.29   17.30
  -9   6  -3  171.18   11.60
   9   6   3  164.78   18.30
  10  -6   3   11.60    7.80
 -10  -6  -3   14.30   10.90
  10   6   3   11.80    8.60
 -10   6  -3    2.10    6.60
  11  -6   3    2.90    9.70
 -11  -6  -3    9.50   11.00
  11   6   3    1.00    8.40
  12  -7  -3    5.70    9.70
 -12  -7   3   32.90   13.30
  12   7  -3   34.00   13.30
  11  -7  -3   21.00    9.80
 -11  -7   3    3.70   10.60
  11   7  -3    6.90    9.20
  10  -7  -3   -6.10    9.90
  10  -7  -3    3.50    3.70
 -10  -7   3    1.90    7.60
  10   7  -3    3.10    7.10
   9  -7  -3    4.30    3.00
   9  -7  -3    4.40    4.60
  -9  -7   3   -1.30    6.50
   9   7  -3    2.00    5.30
  -8  -7   3  142.69   14.40
   8  -7  -3  142.19    8.40
   8  -7  -3  133.49    7.00
   8  -7  -3  140.89   12.80
   8   7  -3  162.68   14.50
   7  -7  -3   86.69    6.40
   7  -7  -3   97.99   10.00
  -7  -7   3   94.19   11.00
   7   7  -3   69.99    9.70
   6  -7  -3  204.48   13.00
   6  -7  -3  211.18    8.60
  -6  -7   3  196.58   14.70
   6  -7  -3  191.58    7.20
   6   7  -3  205.28   14.00
   5  -7  -3  203.98    7.90
   5  -7  -3  220.78   12.40
  -5  -7   3  205.08   14.10
   5  -7  -3  219.58    7.20
   5   7  -3  201.28   12.40
  -4  -7   3    0.10    2.00
   4  -7  -3    0.20    1.00
   4  -7  -3    0.80    1.20
   4   7  -3    0.00    1.90
  -3  -7   3   67.29    7.00
   3  -7  -3   59.69    3.60
   3  -7  -3   69.39    3.70
   3   7  -3   50.59    5.50
  -3   7   3   58.79    5.80
  -2  -7   3 2049.09   51.49
   2  -7  -3 2041.10   45.60
  -2   7   3 2021.70   44.80
  -2   7   3 2037.20   49.70
   2   7  -3 1959.50   50.79
  -1  -7   3   41.00    4.50
   1  -7  -3   38.70    3.70
  -1   7   3   45.20    3.70
   1   7  -3   44.70    4.80
   0  -7  -3  337.07   13.00
   0   7  -3  352.46   12.60
   0   7   3  321.07   12.20
  -1  -7  -3  105.69    7.60
   1  -7   3  111.09    5.50
  -1   7  -3  115.89    7.60
   1   7   3  101.19    6.90
   1   7   3  106.29    7.30
  -1   7  -3  108.69    5.80
  -2  -7  -3 1011.50   31.10
   2   7   3 1025.10   30.00
  -2   7  -3  986.50   23.90
  -2   7  -3  972.10   32.80
  -2   7  -3  986.20   23.10
   2   7   3  955.60   29.20
  -3  -7  -3   26.50    5.00
   3  -7   3   23.60    4.50
  -3   7  -3   29.50    2.40
   3   7   3   35.40    5.30
  -3   7  -3   29.80    2.40
  -4  -7  -3  202.28   13.60
   4  -7   3  212.28   13.00
  -4   7  -3  216.78    7.00
  -4   7  -3  214.88    7.20
   4   7   3  207.78   13.20
   5  -7   3   50.99    7.30
   5  -7   3   47.40    3.00
  -5  -7  -3   64.79    8.80
  -5   7  -3   48.40    3.60
   5   7   3   34.80    7.20
  -6  -7  -3  212.48   15.90
   6  -7   3  192.48    7.20
   6  -7   3  229.38   15.30
  -6   7  -3  202.08    8.60
   6   7   3  175.18   14.40
   7  -7   3   92.09   10.90
  -7  -7  -3   85.49   12.60
   7  -7   3   79.09    5.40
   7   7   3   92.49   11.80
  -7   7  -3   76.79    6.00
  -8  -7  -3   68.69   12.40
   8  -7   3   38.70    8.80
   8  -7   3   38.80    6.20
  -8   7  -3   42.70    6.00
   8   7   3   55.19   10.70
  -9  -7  -3   37.90   15.10
   9  -7   3   21.00    7.90
   9   7   3   25.80    9.60
  -9   7  -3   29.20    5.30
  10  -7   3    9.30    8.80
 -10  -7  -3    2.90    8.90
  10   7   3   -4.70    7.90
  11  -7   3    2.40    9.40
 -11  -7  -3   10.60   11.10
  11   7   3   29.30   10.50
 -11  -8   3    8.40    9.80
  11  -8  -3    1.60    7.80
  11   8  -3    7.10    9.30
 -10  -8   3    7.20    7.50
  10  -8  -3    7.10    7.40
  10   8  -3   -0.40    6.60
  -9  -8   3   -4.70    6.10
   9  -8  -3    4.90    3.00
   9  -8  -3    0.10    5.50
   9   8  -3    0.70    5.50
   8  -8  -3    1.60    4.50
  -8  -8   3    1.50    5.40
   8  -8  -3   -0.80    2.70
   8   8  -3   -0.80    3.80
   7  -8  -3  187.88    6.40
  -7  -8   3  181.98   15.70
   7  -8  -3  194.48   13.90
   7   8  -3  181.38   14.50
   6  -8  -3   85.89    3.80
  -6  -8   3   77.19    9.60
   6  -8  -3   75.39    8.40
   6  -8  -3   87.29    4.40
   6   8  -3   90.69    9.80
  -5  -8   3  101.79   10.40
   5  -8  -3   94.39    3.80
   5  -8  -3   95.29    4.40
   5   8  -3   88.09    8.60
  -4  -8   3  109.69   10.00
   4  -8  -3  121.79    4.70
   4  -8  -3  111.49    4.80
   4   8  -3  108.79    9.00
   3  -8  -3  608.14   15.70
   3  -8  -3  588.54   15.70
  -3  -8   3  570.94   22.70
   3   8  -3  582.14   21.20
  -2  -8   3   24.60    4.50
   2  -8  -3   34.60    3.20
  -2   8   3   28.90    2.90
   2   8  -3   26.80    4.70
  -2   8   3   25.70    4.40
   1  -8  -3  786.12   22.20
  -1  -8   3  743.83   23.90
   1   8  -3  805.32   24.30
   0  -8  -3   -0.10    1.60
   0  -8   3    0.20    1.30
   0   8   3    2.30    1.90
   1  -8   3  132.89    6.40
  -1  -8  -3  127.29    8.80
  -1   8  -3  120.69    9.70
   1   8   3  155.78    8.80
   1   8   3  132.39    8.60
  -1   8  -3  124.69    6.50
  -2  -8  -3   -1.40    1.70
   2   8   3    0.30    1.90
  -2   8  -3   -0.10    0.90
  -2   8  -3    0.60    1.20
  -3  -8  -3  268.37   15.00
  -3   8  -3  259.77    7.70
  -3   8  -3  241.18    7.10
   3   8   3  255.47   14.00
  -4  -8  -3   12.50    4.40
   4  -8   3   15.00    4.10
   4   8   3   15.70    4.80
  -4   8  -3   15.40    1.10
  -4   8  -3   14.90    1.10
   5  -8   3    4.20    3.30
  -5  -8  -3    6.80    4.40
  -5   8  -3    5.10    1.00
   5   8   3    1.30    3.30
  -5   8  -3    4.80    0.90
  -6  -8  -3  652.83   29.90
   6  -8   3  598.34   26.80
  -6   8  -3  594.14   14.70
   6   8   3  643.84   28.40
  -7  -8  -3   -3.80    4.50
   7  -8   3    3.80    4.30
   7   8   3    2.90    4.30
  -7   8  -3   -0.80    2.20
  -8  -8  -3    7.70    7.20
   8  -8   3    5.10    2.40
   8  -8   3    8.90    6.50
  -8   8  -3    2.20    2.50
   8   8   3    9.90    6.50
   9  -8   3   63.59   12.80
  -9  -8  -3   56.69   13.10
   9   8   3   46.60   11.90
 -10  -8  -3   -3.80    9.50
  10  -8   3    1.10    8.10
  10   8   3    6.30    8.60
 -11  -8  -3   -1.10   11.70
  11   8   3   -7.10   13.30
  11  -9  -3   13.10    8.70
 -11  -9   3    6.80    9.50
  11   9  -3   10.20    8.50
  10  -9  -3    6.40    8.10
 -10  -9   3    9.70    8.20
  -9  -9   3   77.29   19.40
   9  -9  -3   71.09   11.50
   9   9  -3   67.49   12.00
  -8  -9   3  153.18   15.70
   8  -9  -3  155.38   13.60
   8   9  -3  141.39   13.50
  -7  -9   3   82.49   11.60
   7  -9  -3   82.99   10.40
   7   9  -3   81.29   10.30
  -6  -9   3  739.13   30.90
   6   9  -3  603.44   26.90
  -5  -9   3  312.27   18.30
   5   9  -3  289.47   16.50
  -4  -9   3  249.08   15.20
   4  -9  -3  257.37    8.70
   4  -9  -3  261.07    7.20
   4   9  -3  246.48   14.10
   3  -9  -3    1.70    1.10
   3  -9  -3    2.70    1.40
  -3  -9   3    4.60    2.70
   3   9  -3    3.00    2.10
   2  -9  -3  692.63   19.30
  -2  -9   3  692.83   24.30
   2   9  -3  628.94   25.10
  -2   9   3  665.13   18.20
   1  -9  -3  366.96   13.60
  -1  -9   3  338.97   14.70
  -1   9   3  346.27   12.50
   0  -9  -3  143.39    8.80
   0  -9   3  137.99    7.90
   0   9  -3  146.79    8.40
  -1  -9  -3  112.39    8.60
   1  -9   3  132.79    6.70
   1   9   3  134.59    8.70
   1   9   3  133.49    9.00
  -1   9  -3  154.88    7.30
  -2  -9  -3  837.32   29.00
  -2   9  -3  856.41   20.30
  -2   9  -3  829.02   21.10
   2   9   3  857.01   28.20
  -3  -9  -3   18.00    4.80
  -3   9  -3   19.00    1.30
  -3   9  -3   18.70    1.30
   3   9   3   14.30    3.90
   4  -9   3  523.25   24.10
   5  -9   3  219.88   14.70
  -5  -9  -3  184.88   15.20
   5   9   3  199.48   14.30
   6  -9   3  132.79   12.40
  -6  -9  -3  136.49   13.70
   6   9   3  152.68   13.80
  -7  -9  -3   36.50    9.60
   7  -9   3   36.10    8.20
   7   9   3   29.00    8.70
   8  -9   3  142.49   15.20
  -8  -9  -3  135.39   15.00
   8   9   3  151.48   16.90
  -9  -9  -3   -3.20    7.60
   9  -9   3    2.40    6.80
   9   9   3    8.10    9.00
 -10  -9  -3   43.90   13.00
  10  -9   3   27.10   10.00
  10   9   3   41.90   12.10
  11  -9   3  -15.90    9.00
  11   9   3  -10.90   11.00
 -11 -10   3   65.99   15.00
  11 -10  -3  130.89   18.00
  11  10  -3   78.19   14.80
  10 -10  -3   15.70    8.10
 -10 -10   3   22.30    8.50
  10  10  -3   10.20    8.90
  -9 -10   3    3.30    8.30
   9 -10  -3   12.10    7.30
   9  10  -3    2.80   11.20
  -8 -10   3   -0.20    5.10
   8  10  -3    9.40    5.60
  -7 -10   3  103.99   12.40
   7  10  -3   88.39   11.10
  -6 -10   3  134.69   13.30
   6  10  -3  124.49   12.00
  -5 -10   3   23.70    6.70
   5  10  -3   17.50    5.20
  -4 -10   3  280.97   16.90
   4  10  -3  279.97   15.50
  -3 -10   3  290.87   16.00
   3 -10  -3  284.97    9.60
   3  10  -3  288.97   14.80
  -3  10   3  282.27    8.80
  -2 -10   3   83.19    7.80
   2 -10  -3   83.89    7.30
  -2  10   3   78.89    4.80
  -1 -10   3 1182.58   33.90
   1 -10  -3 1162.48   31.70
   1  10  -3 1128.19   33.50
  -1  10   3 1137.79   30.10
   0 -10  -3   52.29    5.70
   0 -10   3   46.40    5.00
   0  10  -3   49.90    5.30
   0  10   3   45.90    5.30
  -1 -10  -3  407.06   17.70
  -1  10  -3  409.66   14.10
   1  10   3  390.66   17.20
  -2 -10  -3    0.50    2.30
  -2  10  -3    4.90    1.40
  -2  10  -3    4.40    1.60
   2  10   3    3.90    2.70
  -3 -10  -3    3.70    3.30
   3  10   3    1.70    2.60
  -4 -10  -3    6.80    4.50
   4  10   3    3.60    3.00
  -5 -10  -3  255.97   18.00
   5  10   3  257.37   17.40
   6 -10   3  238.98   16.90
  -6 -10  -3  244.18   18.90
   6  10   3  209.08   16.80
  -7 -10  -3  234.08   19.70
   7 -10   3  238.18   17.90
   7  10   3  247.38   19.10
   8 -10   3    8.70    6.60
  -8 -10  -3   -7.10    6.40
   8  10   3    5.20    5.30
  -9 -10  -3   26.10    9.90
   9 -10   3    7.80    6.80
   9  10   3    9.80    6.90
  10 -10   3   12.30    8.20
 -10 -10  -3   13.50   11.40
  10  10   3    6.70   10.90
 -11 -11   3    7.60   13.00
  11  11  -3  -11.10    9.80
 -10 -11   3   19.50   10.60
  10  11  -3   64.79   13.90
  -9 -11   3   54.89   11.50
   9  11  -3   46.80   11.30
  -8 -11   3  135.89   16.10
   8  11  -3  156.78   15.90
  -7 -11   3   96.99   13.10
   7  11  -3   91.39   12.00
  -6 -11   3   13.70    5.70
   6  11  -3   12.80    5.10
  -5 -11   3   26.10    7.20
   5  11  -3   17.40    5.10
  -4 -11   3   18.10    5.00
   4  11  -3   21.30    5.10
  -3 -11   3  169.68   12.60
   3 -11  -3  173.58    7.20
  -3  11   3  165.48    6.40
   3  11  -3  166.88   11.80
   2 -11  -3  409.66   14.10
  -2 -11   3  374.16   17.90
  -2  11   3  376.86   12.80
   1 -11  -3  302.67   13.10
  -1 -11   3  304.77   14.50
   0 -11  -3   21.60    4.80
   0 -11   3   19.70    4.00
   1 -11   3   40.60    4.30
  -1 -11  -3   47.70    6.50
  -1  11  -3   34.60    4.20
   1  11   3   37.80    5.50
  -2 -11  -3    2.10    2.90
  -2  11  -3    2.50    1.30
  -2  11  -3    0.80    1.70
   2  11   3    3.10    2.50
   3  11   3   93.29    9.60
  -4 -11  -3  382.16   21.60
   4  11   3  399.16   20.90
  -5 -11  -3  160.18   14.50
   5  11   3   95.49   11.70
  -6 -11  -3   15.20    7.50
   6  11   3    5.90    5.60
   7 -11   3  174.78   16.20
  -7 -11  -3  152.48   16.10
   7  11   3  159.88   16.10
  -8 -11  -3  160.28   18.70
   8 -11   3  154.18   16.10
   8  11   3  146.59   17.00
   9 -11   3   39.10   10.20
  -9 -11  -3   37.00   12.20
   9  11   3   26.20    9.10
  10 -11   3   16.80   10.50
 -10 -11  -3   43.00   13.80
  10  11   3   19.00   13.30
 -11 -12   3    7.40   12.80
 -10 -12   3    5.70    9.20
  10  12  -3   -7.10    8.60
  -9 -12   3    8.50    7.90
   9  12  -3    2.50    7.60
  -8 -12   3    9.80    7.90
   8  12  -3   12.50    6.00
  -7 -12   3  146.89   15.80
   7  12  -3  126.99   13.20
  -6 -12   3   10.60    5.60
   6  12  -3    4.90    4.10
  -5 -12   3   10.30    4.90
   5  12  -3   18.20    4.70
  -4 -12   3   14.90    6.30
   4  12  -3    9.70    4.40
   3 -12  -3  197.88    8.10
  -3 -12   3  194.58   13.80
  -3  12   3  205.68    7.40
   3  12  -3  216.38   13.80
  -2 -12   3  131.89   10.50
   2 -12  -3  137.49    7.90
  -2  12   3  139.39    7.30
   1 -12  -3  218.38   11.40
  -1 -12   3  228.38   12.70
   0 -12   3    5.30    3.00
   0 -12  -3    6.30    3.10
   0  12  -3    4.40    3.10
   1 -12   3  296.37   12.10
  -1 -12  -3  304.87   16.00
   1  12   3  323.57   16.60
  -1  12  -3  286.47   12.10
  -2 -12  -3   12.70    4.60
   2  12   3   13.80    4.80
  -2  12  -3   12.50    2.10
  -2  12  -3   12.20    2.50
  -3 -12  -3  290.27   18.60
   3  12   3  314.47   18.10
  -4 -12  -3   76.09   10.60
   4  12   3   80.79    9.90
  -5 -12  -3   41.30    9.40
   5  12   3   32.10    8.20
  -6 -12  -3    5.10    6.00
   6  12   3    3.30    5.00
  -7 -12  -3    1.60    7.00
   7  12   3   -1.70    5.60
  -8 -12  -3   -2.90    7.20
   8  12   3   18.30    7.80
  -9 -12  -3   90.99   16.90
   9  12   3   82.99   15.60
 -10 -12  -3    7.70   18.40
  10  12   3   21.40   22.50
 -10 -13   3    5.00   10.40
  10  13  -3    3.50    8.50
  -9 -13   3    4.90    7.80
   9  13  -3   -3.90    7.40
  -8 -13   3  109.29   16.10
   8  13  -3  112.49   14.40
  -7 -13   3   21.20    7.80
   7  13  -3   26.40    8.50
  -6 -13   3   31.00    9.30
   6  13  -3   20.70    6.40
  -5 -13   3   55.19    9.70
   5  13  -3   45.20    8.70
  -4 -13   3  223.88   16.40
   4  13  -3  203.58   15.20
   3 -13  -3    7.90    2.30
  -3 -13   3   10.00    4.10
   3  13  -3    9.50    3.50
  -3  13   3    6.50    2.00
   2 -13  -3  399.96   15.20
  -2 -13   3  397.46   19.30
  -1 -13   3    3.20    2.80
   1 -13  -3    0.90    2.50
   0 -13   3  173.98   10.60
   0 -13  -3  166.88   11.30
   1 -13   3  111.79    7.40
  -1 -13  -3  111.29   10.20
   1  13   3  123.49   10.60
  -2 -13  -3   56.29   10.00
   2  13   3   62.49    8.20
  -2  13  -3   60.39    3.90
  -2  13  -3   66.39    4.80
  -3 -13  -3   34.40    8.10
   3  13   3   29.30    7.30
  -4 -13  -3  171.48   15.10
   4  13   3  187.68   15.20
  -5 -13  -3   80.59   12.10
   5  13   3   72.09   10.90
  -6 -13  -3    8.90    6.40
   6  13   3    2.90    4.90
  -7 -13  -3   39.50   11.50
   7  13   3   51.09   11.40
  -8 -13  -3  102.49   16.60
   8  13   3   56.09   11.80
  -9 -13  -3   32.50   12.30
   9  13   3   18.10   10.30
 -10 -14   3   -2.40   19.00
  10  14  -3   -7.10    9.40
  -9 -14   3   39.60   11.90
   9  14  -3   37.20   10.80
  -8 -14   3    0.90    6.90
   8  14  -3   10.50    8.40
  -7 -14   3  169.28   20.50
   7  14  -3  151.28   16.40
  -6 -14   3    0.90    5.40
   6  14  -3   11.40    6.30
  -5 -14   3   11.40    5.20
   5  14  -3   11.60    5.30
  -4 -14   3   43.30    8.30
   4  14  -3   42.70    8.60
  -3 -14   3    1.50    4.10
   3 -14  -3    4.20    2.10
  -3  14   3    2.70    1.90
   3  14  -3    4.60    3.80
  -2 -14   3   17.00    5.50
   2 -14  -3   18.10    4.10
   1 -14  -3  398.26   17.20
  -1 -14   3  398.86   18.60
   0 -14  -3  194.38   12.50
   0 -14   3  173.28   11.20
   1 -14   3  106.49    7.60
  -1 -14  -3  112.29   10.90
   1  14   3  112.19   10.70
  -2 -14  -3   56.99    7.50
  -2  14  -3   44.00    4.40
  -2  14  -3   64.59    4.10
   2  14   3   52.59    8.20
  -3 -14  -3   27.40    7.90
   3  14   3   27.90    7.30
  -4 -14  -3    7.40    6.20
   4  14   3    1.90    3.80
  -5 -14  -3  119.59   14.20
   5  14   3  106.69   12.80
  -6 -14  -3    7.20    6.60
   6  14   3    3.80    6.10
  -7 -14  -3   35.50   10.60
   7  14   3   36.40    9.00
  -8 -14  -3   -5.10    8.80
   8  14   3   11.00    7.90
  -9 -14  -3   34.70   11.90
   9  14   3   42.80   11.30
  -9 -15   3   51.09   12.60
   9  15  -3   46.50   12.00
  -8 -15   3   29.80   10.20
   8  15  -3   -0.40    6.70
  -7 -15   3    4.00    8.40
   7  15  -3   13.70    6.70
  -6 -15   3  109.29   14.30
   6  15  -3  143.19   15.50
  -5 -15   3   30.50    8.40
   5  15  -3   38.10    9.00
  -4 -15   3  239.48   17.70
   4  15  -3  252.17   18.00
  -3 -15   3   53.29    9.00
   3 -15  -3   53.49    4.70
   3  15  -3   64.29    8.70
   2 -15  -3   10.30    3.70
  -2 -15   3   12.00    4.40
  -1 -15   3   64.09    7.90
   1 -15  -3   57.59    7.10
   0 -15  -3  227.18   14.30
   0 -15   3  226.88   12.80
   1 -15   3  303.07   13.30
  -1 -15  -3  303.97   18.40
   1  15   3  344.27   19.40
  -2 -15  -3  184.48   14.80
   2  15   3  154.48   13.70
  -2  15  -3  183.98    7.40
  -3 -15  -3   -3.00    4.00
   3  15   3   -2.00    4.00
  -4 -15  -3   23.50    7.50
   4  15   3   44.40   10.10
  -5 -15  -3    7.30    6.10
   5  15   3   12.10    6.50
  -6 -15  -3   -3.10    5.80
   6  15   3    9.50    6.90
  -7 -15  -3   -0.50    7.50
   7  15   3   21.90    9.00
  -8 -15  -3   39.70   13.50
   8  15   3   52.29   11.80
  -9 -15  -3   15.80   12.00
   9  15   3    0.90    9.10
  -9 -16   3    3.80    9.00
   9  16  -3   -1.60    9.50
  -8 -16   3   38.00   13.20
   8  16  -3   25.30    9.40
  -7 -16   3   68.99   13.10
   7  16  -3   91.89   15.10
  -6 -16   3   10.50    9.80
   6  16  -3   16.00    7.10
  -5 -16   3   -0.30    5.20
   5  16  -3    7.10    6.00
  -4 -16   3   84.69   11.30
   4  16  -3   75.79   11.40
  -3 -16   3   11.60    5.80
  -3  16   3    7.70    3.90
   3  16  -3    4.80    3.90
  -2 -16   3   66.89    9.80
   2 -16  -3   49.50    6.30
   2  16  -3   74.99    9.40
   1 -16  -3   19.70    5.30
  -1 -16   3   22.90    5.50
   0 -16  -3   19.70    5.90
   0 -16   3    9.40    4.50
  -1 -16  -3    1.30    3.70
   1 -16   3    2.30    3.00
   1  16   3   -0.10    3.30
  -2 -16  -3  298.77   19.30
   2  16   3  270.07   18.60
  -2  16  -3  251.27   11.50
  -3 -16  -3  206.98   17.00
   3  16   3  203.78   16.60
  -4 -16  -3  184.68   17.30
   4  16   3  175.38   16.90
  -5 -16  -3   -3.60    6.70
   5  16   3    9.70    6.30
  -6 -16  -3    7.90    8.00
   6  16   3   -0.40    7.30
  -7 -16  -3    0.90    8.50
   7  16   3   -1.10    7.10
  -8 -16  -3   -1.00   10.70
   8  16   3   -4.60    8.60
  -9 -17   3    7.10    9.60
   9  17  -3    8.60   10.00
  -8 -17   3   47.90   14.70
   8  17  -3   77.19   15.80
  -7 -17   3    0.50    7.70
   7  17  -3   -0.50    7.50
  -6 -17   3   -2.70    6.70
   6  17  -3    3.90    7.10
  -5 -17   3   28.00    8.20
   5  17  -3   36.80   10.20
  -4 -17   3   73.89   11.40
   4  17  -3   74.49   11.00
  -3 -17   3   -1.10    5.00
   3 -17  -3    6.00    2.80
  -3  17   3    4.10    2.40
   3  17  -3    1.30    3.80
  -2 -17   3  254.07   16.50
   2 -17  -3  241.88   12.60
   2  17  -3  217.78   16.80
   1 -17  -3   31.20    6.20
   0 -17   3   22.20    5.20
   0 -17  -3   16.40    6.30
  -1 -17  -3  208.18   15.90
   1 -17   3  199.78   11.10
   1  17   3  171.88   15.00
  -2 -17  -3    9.90    6.10
   2  17   3    1.80    4.40
  -3 -17  -3   35.20    9.70
   3  17   3   23.20    7.10
  -4 -17  -3   48.10   12.00
   4  17   3   58.19   16.30
  -5 -17  -3   50.99   12.20
   5  17   3   40.40    8.90
  -6 -17  -3   13.40    8.30
   6  17   3   51.89   13.70
  -7 -17  -3   -6.20    8.80
   7  17   3  -12.90    7.90
  -8 -17  -3   14.20   16.20
   8  17   3   13.70   13.20
  -8 -18   3   14.10   10.90
   8  18  -3   12.60    9.70
  -7 -18   3   26.10   10.90
   7  18  -3   42.60   12.30
  -6 -18   3   13.80    8.30
   6  18  -3    4.20    7.40
  -5 -18   3   23.80    8.30
   5  18  -3    6.20    7.10
  -4 -18   3   11.10    6.90
   4  18  -3   19.60    7.20
   3 -18  -3   33.20    4.00
  -3 -18   3   53.89   10.50
   3  18  -3   34.80    8.90
  -2 -18   3   39.30    8.50
   2  18  -3   42.90    9.10
   1 -18  -3   33.30    6.50
  -1 -18   3   27.50    6.80
   0 -18  -3  114.89   11.90
   0 -18   3  118.79   10.70
   0  18   3  154.88   14.10
  -1 -18  -3    5.30    6.20
   1  18   3    7.40    5.70
  -2 -18  -3   69.69   11.70
   2  18   3   57.79   10.30
  -2  18  -3   56.29    4.90
  -3 -18  -3  178.38   17.00
   3  18   3  155.58   16.60
  -4 -18  -3   -2.40    6.80
   4  18   3    2.30    6.90
  -5 -18  -3    5.70    7.20
   5  18   3   13.30    7.60
  -6 -18  -3   54.99   13.60
   6  18   3   57.69   13.50
  -7 -18  -3    6.10   11.40
   7  18   3   -3.70    8.80
  -7 -19   3    0.40    9.10
   7  19  -3    7.20    9.20
  -6 -19   3  120.39   17.40
   6  19  -3  128.39   18.00
  -5 -19   3   37.90   11.10
   5  19  -3   19.60    8.60
  -4 -19   3   51.99   12.10
   4  19  -3   47.20   10.50
  -3 -19   3   21.40    7.30
   3  19  -3   32.80    8.80
  -2 -19   3   27.20    8.20
   2  19  -3   27.80    7.50
  -1 -19   3    8.50    5.40
   0 -19  -3   -2.80    5.30
   0  19   3   12.40    6.10
  -1 -19  -3   82.79   12.00
   1  19   3  103.89   18.10
  -2 -19  -3    6.00    6.70
   2  19   3    6.40    6.90
  -3 -19  -3    7.90    7.00
   3  19   3   12.20    7.10
  -4 -19  -3  121.29   16.40
   4  19   3  114.79   16.20
  -5 -19  -3   28.50   12.10
   5  19   3   29.50   10.80
  -6 -19  -3   18.60   10.90
   6  19   3    0.70    9.50
  -7 -19  -3  -15.70   11.00
   7  19   3   11.90   10.60
  -7 -20   3   24.10   13.50
   7  20  -3   26.60   12.70
  -6 -20   3   27.20   11.10
   6  20  -3   26.50   10.60
  -5 -20   3   40.70   11.60
   5  20  -3   51.99   12.70
  -4 -20   3   35.20    9.10
   4  20  -3   29.40   10.10
  -3 -20   3   47.50   10.00
   3  20  -3   57.49   12.20
   2 -20  -3    7.70    5.30
  -2 -20   3    9.00    6.70
   2  20  -3   -2.10    5.80
  -1 -20   3  148.99   13.80
   0 -20  -3    6.90    6.90
   0  20   3   12.90    7.50
  -1 -20  -3  146.79   14.90
   1 -20   3  137.79   11.00
   1  20   3  172.38   17.10
  -2 -20  -3   41.20   10.10
   2  20   3   36.40    8.90
  -3 -20  -3   14.30   12.70
   3  20   3   30.80    9.40
  -4 -20  -3  159.48   19.70
   4  20   3  122.19   17.60
  -5 -20  -3   -0.30    9.00
   5  20   3   47.30   12.40
  -6 -20  -3    3.40   11.50
   6  20   3    8.20   14.50
  -6 -21   3   28.40   12.30
   6  21  -3   -1.00    9.90
  -5 -21   3   13.70   10.00
   5  21  -3    1.10    8.50
  -4 -21   3   13.20    8.40
   4  21  -3   -1.30    8.10
  -3 -21   3  132.49   17.90
   3  21  -3  111.09   16.00
  -2 -21   3  166.48   16.70
   2  21  -3  150.28   17.10
   0 -21   3   38.10    8.70
   0  21   3   50.69   10.40
  -1 -21  -3   52.69   11.30
   1  21   3   57.19   11.20
  -2 -21  -3   12.70    9.10
   2  21   3   11.60    8.30
  -3 -21  -3    7.90    8.40
   3  21   3    4.10    8.00
  -4 -21  -3  124.39   19.70
   4  21   3  147.49   20.00
  -5 -21  -3   19.30   11.90
  -5 -22   3   37.50   12.20
   5  22  -3   -2.00    9.80
  -4 -22   3   17.70   11.00
   4  22  -3   29.40   11.10
  -3 -22   3   42.20   10.30
   3  22  -3   28.70    9.70
   2  22  -3    5.10    8.00
  -1 -22   3   21.10    8.60
   1  22  -3   17.40    8.80
  -1  22   3   23.50    9.40
   0 -22  -3   88.59   14.80
   0  22   3  117.69   16.60
   1  22   3   50.29   11.80
   2  22   3   20.30    9.40
  -3 -22  -3    7.80    9.40
   3  22   3   44.30   11.90
  -4 -22  -3   18.00   11.30
   4  22   3   25.40   17.30
   3  23  -3   12.20   11.00
   2  23  -3   39.80   10.20
  -1 -23   3    1.30   10.20
   1  23  -3    4.80    8.20
  -1  23   3    8.10    7.90
   0 -23  -3    9.90   10.40
   0  23   3   12.30    9.20
  -1 -23  -3   15.40   11.60
   1  23   3   38.40   11.00
   2  23   3   36.00   16.20
   3  23   3   33.00   11.90
  12   0  -4   20.20   10.30
  11   0  -4  -17.10    6.00
 -11   0   4   -1.20    7.50
  10   0  -4    2.70    5.60
 -10   0   4   -2.50    5.60
  -9   0   4    2.10    4.70
   9   0  -4    0.10    3.90
   8   0  -4   15.80    4.60
  -7   0   4    5.30    3.60
   7   0  -4    1.00    2.90
  -6   0   4  536.25   21.30
   6   0  -4  517.25   20.30
  -5   0   4   -0.20    1.70
   5   0  -4    0.00    1.90
  -5   0   4   -1.20    1.90
   4   0  -4  340.77   14.20
  -4   0   4  367.56   14.60
   4   0  -4  373.36   13.20
  -4   0   4  349.77   12.70
   3   0  -4   -1.50    0.70
   3   0  -4    0.30    1.30
  -3   0   4   -0.60    1.30
  -3   0   4   -0.20    1.00
  -2   0   4 2327.17   48.60
   2   0  -4 2338.37   53.49
   2   0  -4 2280.97   48.70
  -2   0   4 2338.07   55.79
   1   0  -4   -0.50    0.80
   1   0  -4   -0.20    1.00
   0   0  -4   41.40    3.20
   0   0   4   39.70    3.20
   0   0  -4   38.20    2.40
   0   0   4   38.00    2.40
   1   0   4   -0.50    0.80
   1   0   4   -0.70    0.80
  -1   0  -4    0.90    1.00
  -1   0  -4    0.80    1.10
   2   0   4  348.17   12.30
   2   0   4  365.36   13.40
  -2   0  -4  364.26   13.10
  -2   0  -4  371.56   13.20
   3   0   4   -0.30    1.30
  -3   0  -4   -0.10    1.70
  -3   0  -4    1.80    1.90
   3   0   4    1.20    1.50
  -4   0  -4 2051.79   51.69
   4   0   4 1964.00   52.59
  -5   0  -4    0.50    2.70
   5   0   4   -4.40    1.80
  -6   0  -4    6.80    3.40
   6   0   4    9.50    4.60
   7   0   4   -1.00    3.70
  -7   0  -4   -4.90    3.70
   8   0   4   12.90    5.20
  -8   0  -4   21.20    7.10
  -9   0  -4   -2.00    5.70
   9   0   4   -0.70    6.10
  10   0   4  179.68   19.20
 -10   0  -4  143.19   17.40
  11   0   4   12.10    9.60
 -12  -1   4   20.10   10.70
  12  -1  -4    9.40    8.50
  12   1  -4    8.20    8.60
  11  -1  -4    0.10    7.40
 -11  -1   4   18.50    9.10
  11   1  -4   -0.60    7.60
 -11   1   4   20.70    8.60
  10  -1  -4    0.80    5.70
 -10  -1   4   14.50    7.30
 -10   1   4   19.00    8.00
  10   1  -4    8.00    6.00
   9  -1  -4   21.20    6.20
  -9  -1   4   21.80    7.20
  -9   1   4   27.20    7.40
   9   1  -4   21.70    6.80
   8  -1  -4   37.70    7.30
  -8  -1   4   24.80    6.50
   8   1  -4   30.10    7.10
  -8   1   4   28.70    6.40
  -7  -1   4  176.68   12.80
   7  -1  -4  195.28   12.50
  -7   1   4  206.18   12.70
   7   1  -4  164.08   11.80
  -6  -1   4   10.50    3.90
   6  -1  -4   12.50    3.90
  -6   1   4   12.90    3.60
   6   1  -4   16.70    4.20
  -5  -1   4 1225.78   36.40
  -5  -1   4 1252.87   34.10
   5  -1  -4 1303.47   34.70
  -5   1   4 1286.37   35.60
   5   1  -4 1281.77   34.90
  -5   1   4 1220.38   34.00
   4  -1  -4   11.30    3.10
  -4  -1   4   12.60    3.50
  -4  -1   4   18.90    3.30
   4  -1  -4   13.10    2.90
   4   1  -4   16.40    2.90
  -4   1   4   16.70    3.20
   4   1  -4   13.70    3.30
  -4   1   4   15.20    3.00
  -3  -1   4   31.80    4.00
  -3  -1   4   21.10    2.60
   3  -1  -4   25.30    2.50
   3  -1  -4   20.40    3.00
   3   1  -4   25.30    2.70
  -3   1   4   19.50    3.20
  -3   1   4   27.20    2.70
   3   1  -4   26.00    3.70
   2  -1  -4  271.17   10.20
   2  -1  -4  256.97    9.00
   2  -1  -4  256.27    7.00
  -2  -1   4  246.58    7.20
  -2  -1   4  253.27   10.50
  -2   1   4  248.28    7.10
   2   1  -4  249.08    7.50
   2   1  -4  255.07   10.50
   1  -1  -4 1832.52   41.30
   1   1  -4 1853.01   41.50
   1   1  -4 1799.12   42.70
  -1   1   4 1825.82   41.20
   0  -1   4    0.70    0.60
   0  -1   4    0.20    1.10
   0  -1  -4   -0.40    0.60
   0  -1  -4   -1.00    0.80
   0   1  -4   -0.10    0.90
   0   1  -4    0.50    0.70
   0   1   4   -0.30    0.80
   0   1   4    2.10    0.80
   1  -1   4   28.80    2.90
  -1  -1  -4   26.70    2.80
  -1  -1  -4   26.90    3.20
   1  -1   4   29.30    2.80
  -1   1  -4   24.10    2.70
   1   1   4   25.90    2.90
  -1   1  -4   23.20    2.80
   1   1   4   26.30    2.80
   2  -1   4  145.49    6.90
  -2  -1  -4  154.38    8.10
  -2  -1  -4  148.29    7.70
   2  -1   4  151.68    8.00
  -2   1  -4  155.08    7.50
   2   1   4  137.39    7.30
   2   1   4  155.68    8.10
  -2   1  -4  156.38    8.10
   3  -1   4   47.80    5.00
  -3  -1  -4   32.30    4.40
   3  -1   4   39.50    3.90
  -3  -1  -4   29.80    4.10
  -3   1  -4   37.10    4.60
  -3   1  -4   50.09    4.60
   3   1   4   38.40    4.70
   3   1   4   40.80    4.90
   4  -1   4    2.80    2.50
  -4  -1  -4    6.10    3.00
  -4   1  -4    4.80    2.40
   4   1   4    3.80    2.40
   5  -1   4 1744.63   49.70
  -5  -1  -4 1721.43   48.50
   5   1   4 1730.93   49.70
  -5   1  -4 1755.22   47.30
  -6  -1  -4    3.40    3.20
   6  -1   4    1.20    2.90
   6   1   4    2.10    3.50
  -6   1  -4    0.80    3.10
  -7  -1  -4    3.30    4.30
   7  -1   4    6.00    4.50
   7   1   4    1.50    3.70
  -7   1  -4   10.80    5.30
   8  -1   4    5.30    4.60
  -8  -1  -4   26.20    7.00
   8   1   4   29.40    8.90
  -8   1  -4   17.80    6.10
   9  -1   4   86.59   15.80
  -9  -1  -4  127.99   14.90
  -9   1  -4  118.89   13.90
   9   1   4   84.89   15.70
 -10  -1  -4  -13.70    7.30
  10  -1   4    9.50    7.40
 -10   1  -4    4.70    7.70
  10   1   4   -2.50    7.00
  11  -1   4   29.30   10.50
 -11  -1  -4   23.40   18.00
  11   1   4   18.40   10.20
  12  -2  -4    3.40    8.40
 -12  -2   4   -5.80    9.60
  12   2  -4    5.40    9.40
  11  -2  -4   -5.10    6.30
 -11  -2   4   -1.20    7.30
  11   2  -4   -4.00    6.90
 -11   2   4    5.10    7.10
  10  -2  -4  173.08   16.50
 -10  -2   4  174.88   16.20
 -10   2   4  189.88   15.80
  10   2  -4  185.38   16.90
   9  -2  -4   20.10    5.80
  -9  -2   4    7.30    5.50
  -9   2   4   11.80    6.10
   9   2  -4    7.80    5.30
  -8  -2   4   10.70    5.20
   8  -2  -4   27.20    6.90
  -8   2   4   21.80    5.60
   8   2  -4   21.70    6.40
  -7  -2   4    6.40    3.90
   7  -2  -4    2.70    3.00
  -7   2   4   -0.20    2.70
   7   2  -4    4.40    3.70
   6  -2  -4  343.07   15.70
  -6  -2   4  355.86   17.70
   6  -2  -4  373.16   16.40
  -6   2   4  360.56   15.80
   6   2  -4  384.16   17.00
  -5  -2   4   13.30    3.30
   5  -2  -4   10.50    3.00
  -5  -2   4   10.70    3.90
  -5   2   4    9.10    3.10
   5   2  -4   12.80    3.60
  -5   2   4   18.00    3.80
  -4  -2   4  281.67   11.00
   4  -2  -4  270.97   10.90
  -4  -2   4  286.37   13.40
   4  -2  -4  268.37   11.60
  -4   2   4  260.47   10.80
  -4   2   4  261.07   11.30
   4   2  -4  261.37   13.00
   4   2  -4  282.17   11.40
   3  -2  -4    4.60    2.00
   3  -2  -4    3.80    1.50
  -3  -2   4    3.00    2.00
  -3  -2   4    4.20    1.50
   3   2  -4    6.50    1.90
  -3   2   4    3.70    1.90
  -3   2   4    5.50    1.60
   3   2  -4    6.30    2.20
  -2  -2   4  304.87   11.90
   2  -2  -4  298.17   10.80
   2  -2  -4  302.77    8.50
   2  -2  -4  305.77   10.10
  -2   2   4  308.97    8.70
   2   2  -4  294.87   11.90
   2   2  -4  294.97    9.10
   1  -2  -4  102.49    5.20
  -1  -2   4   98.99    5.90
   1   2  -4  100.89    5.90
  -1   2   4  102.19    5.10
   0  -2   4  781.52   19.50
   0  -2  -4  769.42   18.70
   0  -2  -4  794.62   21.20
   0   2   4  784.62   19.20
   0   2   4  790.32   20.70
   0   2  -4  799.42   19.60
   0   2  -4  795.72   21.30
   0   2  -4  794.82   20.20
  -1  -2  -4    2.50    1.30
  -1  -2  -4    4.80    1.60
   1  -2   4    3.90    1.70
   1  -2   4    3.00    1.30
   1   2   4    2.10    1.30
   1   2   4    2.50    1.40
  -1   2  -4    1.80    1.00
  -1   2  -4    4.00    1.40
  -2  -2  -4   -1.40    1.20
   2  -2   4   -0.60    1.00
   2  -2   4    3.10    1.70
  -2  -2  -4    1.60    1.90
   2   2   4   -0.20    1.30
  -2   2  -4    0.70    1.20
   2   2   4    1.40    1.30
  -2   2  -4    1.20    1.40
   3  -2   4  263.47   12.40
  -3  -2  -4  244.78   11.90
   3  -2   4  245.88    9.80
  -3  -2  -4  232.78   11.60
   3   2   4  252.37   12.30
  -3   2  -4  266.27   10.90
   3   2   4  260.27   11.60
  -3   2  -4  241.18   11.70
   4  -2   4  188.28   11.60
   4  -2   4  186.28    9.00
  -4  -2  -4  182.78   11.40
  -4   2  -4  195.88   10.10
   4   2   4  188.88   11.70
   5  -2   4   -1.40    2.40
  -5  -2  -4    2.30    2.90
   5  -2   4    0.20    2.50
   5   2   4   -1.40    2.40
  -5   2  -4    2.40    2.00
  -6  -2  -4  541.55   24.10
   6  -2   4  520.45   24.00
  -6   2  -4  537.25   21.70
   6   2   4  565.24   25.00
   7  -2   4   12.40    5.90
  -7  -2  -4   16.20    6.10
   7   2   4   15.00    6.30
  -7   2  -4   18.20    5.40
   8  -2   4  163.68   14.90
  -8  -2  -4  119.09   13.60
   8   2   4  169.78   15.10
  -8   2  -4  124.29   14.00
  -9  -2  -4    0.10    6.00
  -9   2  -4    1.30    5.70
  10  -2   4    2.80    7.70
 -10  -2  -4   -4.60    7.80
  10   2   4    4.50    7.50
 -10   2  -4   12.70    7.90
  11  -2   4   -2.20    9.20
 -11  -2  -4   -5.30   10.20
  11   2   4   -6.90    8.40
  12  -3  -4    9.00    8.90
 -12  -3   4   29.60   10.60
  12   3  -4  -15.20    8.00
 -12   3   4    8.60    9.80
  11  -3  -4   99.39   14.70
 -11  -3   4  117.79   16.30
 -11   3   4  109.49   13.70
  11   3  -4  109.79   15.70
 -10  -3   4   -1.50    6.20
  10  -3  -4   12.20    6.30
 -10   3   4   -6.70    5.60
  10   3  -4   10.20    7.00
   9  -3  -4    7.30    4.40
  -9  -3   4    0.70    5.50
  -9   3   4    6.90    5.10
   9   3  -4   -3.00    5.00
  -8  -3   4  100.79   11.40
   8  -3  -4   88.69   10.10
   8   3  -4   90.69   10.30
  -8   3   4   64.89    8.40
   7  -3  -4  110.59    9.70
  -7  -3   4  106.89   13.40
  -7   3   4  141.59   10.00
   7   3  -4  148.69   11.70
   6  -3  -4   87.09    7.70
  -6  -3   4   78.49    8.40
   6  -3  -4   91.79    7.80
   6   3  -4   79.29    7.70
  -6   3   4   90.09    7.20
   5  -3  -4  903.41   26.30
   5  -3  -4  826.12   25.50
  -5  -3   4  851.81   25.90
  -5  -3   4  856.21   29.20
   5   3  -4  863.81   27.00
  -5   3   4  897.01   25.70
  -5   3   4  837.22   26.10
   4  -3  -4  157.38    8.20
  -4  -3   4  159.08    8.10
   4  -3  -4  148.39    7.80
  -4  -3   4  158.68   10.10
  -4   3   4  154.88    8.10
  -4   3   4  163.88    8.30
   4   3  -4  165.58   10.20
   4   3  -4  161.88    8.70
  -3  -3   4  186.08    7.80
   3  -3  -4  185.28    7.40
   3  -3  -4  182.48    8.30
  -3  -3   4  175.08    9.70
   3  -3  -4  186.08    7.60
  -3   3   4  176.28    7.70
   2  -3  -4  157.48    6.60
  -2  -3   4  173.48    8.80
   2  -3  -4  153.28    7.20
   2   3  -4  162.18    6.50
   2   3  -4  173.28    8.80
  -2   3   4  164.68    6.10
   1  -3  -4  369.56   11.70
  -1   3   4  365.86   11.50
   1   3  -4  370.76   13.10
   0  -3  -4  314.27   12.60
   0   3  -4  298.57   10.80
   0   3   4  288.27   10.40
   0   3   4  294.47    9.50
   0   3  -4  311.07   10.00
   0   3  -4  296.67    9.90
  -1  -3  -4    3.00    1.50
   1  -3   4    5.20    1.60
   1  -3   4    3.50    2.10
  -1  -3  -4    4.70    2.40
   1   3   4    5.50    1.80
  -1   3  -4    3.80    1.80
   1   3   4    3.10    1.40
  -1   3  -4    5.40    1.50
  -2  -3  -4   12.30    2.50
   2  -3   4   18.00    2.40
   2  -3   4   16.00    3.70
  -2  -3  -4   18.60    3.30
   2   3   4    8.20    2.50
   2   3   4   17.40    3.30
  -2   3  -4   19.20    3.10
  -2   3  -4   17.40    2.50
  -3  -3  -4  569.84   20.10
  -3  -3  -4  631.14   21.80
   3  -3   4  593.94   17.10
   3  -3   4  601.34   20.90
   3   3   4  615.54   21.20
  -3   3  -4  619.64   18.30
   3   3   4  574.34   20.00
  -3   3  -4  584.54   20.60
   4  -3   4   66.29    5.20
   4  -3   4   65.29    6.90
  -4  -3  -4   78.29    7.70
  -4   3  -4   71.29    5.80
   4   3   4   67.29    7.30
   5  -3   4  253.07   14.60
   5  -3   4  231.88   10.80
  -5  -3  -4  229.18   14.20
   5   3   4  220.18   14.10
  -5   3  -4  238.88   12.10
   6  -3   4   43.30    7.70
  -6  -3  -4   54.19   14.10
  -6   3  -4   60.39    6.90
   6   3   4   44.50    7.30
   7  -3   4    1.10    4.50
  -7  -3  -4    2.00    3.90
   7   3   4    2.30    4.90
  -7   3  -4    6.90    4.20
  -8  -3  -4   -0.20    5.40
   8  -3   4   -2.80    4.40
  -8   3  -4    3.60    5.00
   8   3   4    3.60    5.20
   9  -3   4  249.28   29.60
  -9  -3  -4  250.57   20.70
  -9   3  -4  238.18   17.20
   9   3   4  221.98   22.00
  10  -3   4    8.10    9.30
 -10  -3  -4   11.00   11.50
  10   3   4   18.90    9.10
 -10   3  -4   13.00    8.40
  11  -3   4   10.60    9.30
 -11  -3  -4   20.90   11.10
 -11   3  -4    3.40   10.10
  11   3   4    2.30   10.50
  12  -4  -4   23.00   10.10
 -12  -4   4   22.40   12.70
  12   4  -4   32.70   10.60
 -12   4   4   39.40   10.00
  11  -4  -4   -0.20    7.00
 -11  -4   4    3.60    8.00
 -11   4   4   -7.80    6.80
  11   4  -4   -1.50    6.80
 -10  -4   4   87.49   14.00
  10  -4  -4  124.79   14.70
 -10   4   4  114.69   11.10
  10   4  -4   96.59   13.80
   9  -4  -4   59.89    9.70
  -9  -4   4   62.79   11.20
  -9   4   4   49.70    8.10
   9   4  -4   48.30   10.00
  -8  -4   4   40.20    8.60
   8  -4  -4   40.40    7.40
  -8   4   4   49.90    6.90
   8   4  -4   43.40    8.00
  -7  -4   4    6.00    4.60
   7  -4  -4    0.80    2.90
  -7   4   4    5.30    3.20
   7   4  -4   -0.60    3.00
   6  -4  -4  464.75   17.90
  -6  -4   4  492.65   22.40
   6  -4  -4  490.25   19.60
  -6   4   4  507.15   17.90
   6   4  -4  498.45   20.50
  -5  -4   4   11.40    4.10
   5  -4  -4    7.60    2.60
  -5  -4   4    7.80    3.00
   5  -4  -4   11.20    3.10
  -5   4   4   12.10    3.40
   5   4  -4   12.00    3.30
  -5   4   4   11.00    2.80
  -4  -4   4    4.30    2.80
   4  -4  -4    4.60    1.70
   4  -4  -4    3.60    2.00
   4  -4  -4    1.40    1.60
  -4   4   4    4.90    2.20
   4   4  -4    3.90    2.00
  -3  -4   4   30.40    4.40
   3  -4  -4   22.20    2.60
   3  -4  -4   26.80    3.20
  -3   4   4   23.90    2.90
   3   4  -4   22.20    3.00
   3   4  -4   19.70    4.10
  -2  -4   4  304.57   12.80
   2  -4  -4  309.17   10.20
  -2   4   4  292.67   10.00
   2   4  -4  304.67   12.80
  -2   4   4  312.87   10.10
   2   4  -4  311.77   10.70
   1  -4  -4  277.67   10.00
  -1  -4   4  281.17   11.20
   1   4  -4  284.37   11.30
  -1   4   4  269.27    9.60
   0  -4   4 1099.59   28.40
   0  -4  -4 1122.89   29.00
   0   4   4 1133.49   28.50
   0   4   4 1134.39   27.50
   0   4  -4 1096.59   27.20
   0   4  -4 1110.49   28.10
   0   4  -4 1164.58   28.90
  -1  -4  -4   19.80    2.60
  -1  -4  -4   22.90    3.30
   1  -4   4   16.20    2.80
  -1   4  -4   19.70    2.70
   1   4   4   13.70    2.60
   1   4   4   17.10    2.90
  -1   4  -4   25.10    3.30
  -1   4  -4   17.00    2.20
  -2  -4  -4   74.59    6.30
   2  -4   4   77.49    6.20
  -2  -4  -4   80.99    5.90
   2  -4   4   78.69    4.30
   2   4   4   73.69    6.00
  -2   4  -4   84.09    4.80
   2   4   4   78.39    6.00
   3  -4   4   96.99    7.40
  -3  -4  -4  108.79    8.30
  -3  -4  -4   97.89    7.50
   3  -4   4  101.49    5.30
   3   4   4  108.09    8.10
  -3   4  -4   98.59    7.60
  -3   4  -4  102.39    6.90
  -4  -4  -4  376.36   17.80
   4  -4   4  389.76   12.90
   4  -4   4  389.66   17.70
   4   4   4  373.16   17.30
  -4   4  -4  389.16   14.20
   5  -4   4    5.50    2.60
   5  -4   4    2.60    3.40
  -5  -4  -4    3.20    3.20
  -5   4  -4    4.70    2.70
   5   4   4   11.20    3.90
   6  -4   4   49.99    6.00
  -6  -4  -4   57.89    8.90
   6  -4   4   47.90    7.50
  -6   4  -4   57.29    6.30
   6   4   4   55.49    8.20
  -7  -4  -4   63.29   10.50
   7  -4   4   83.79   10.30
  -7   4  -4   64.49    7.80
   7   4   4   73.49   10.50
  -8  -4  -4   30.40    8.10
   8  -4   4   32.00    7.60
  -8   4  -4   21.10    6.40
   8   4   4   23.40    7.80
  -9  -4  -4   22.50    8.20
   9  -4   4    5.40    6.50
  -9   4  -4   11.10    8.00
   9   4   4   10.70    7.30
 -10  -4  -4   78.89   15.60
  10  -4   4   42.80   11.90
 -10   4  -4   44.10   10.00
  10   4   4   37.00   11.10
 -11  -4  -4    9.50   11.40
  11  -4   4   -3.30    9.30
 -11   4  -4   -6.30   12.20
  11   4   4   -9.80    9.20
 -12  -5   4  -21.70   10.30
  12  -5  -4   16.20    9.80
  12   5  -4    4.80    9.90
 -11  -5   4   50.29   12.20
  11  -5  -4   55.49   11.50
 -11   5   4   41.70    8.80
  11   5  -4   50.19   12.10
  10  -5  -4   74.49   12.70
 -10  -5   4   77.89   13.60
  10   5  -4  105.09   13.80
 -10   5   4   70.79   10.40
  -9  -5   4   49.10    9.90
   9  -5  -4   70.99   10.60
  -9   5   4   71.69    8.70
   9   5  -4   63.59   10.70
   8  -5  -4   38.60    7.60
  -8  -5   4   49.60   10.00
   8   5  -4   36.40    7.70
  -8   5   4   43.80    6.70
  -7  -5   4  249.08   17.10
   7  -5  -4  331.77   16.70
   7  -5  -4  309.07   14.80
  -7   5   4  292.27   13.00
   7   5  -4  275.37   20.40
  -6  -5   4    3.50    4.00
   6  -5  -4    5.00    2.80
   6  -5  -4   12.80    3.80
  -6   5   4   12.20    2.90
   6   5  -4    8.00    3.40
   5  -5  -4   25.20    4.00
   5  -5  -4   25.70    3.10
   5  -5  -4   20.50    4.00
  -5  -5   4   24.00    5.50
   5   5  -4   25.90    4.50
  -5   5   4   23.50    4.60
   4  -5  -4  148.29    8.20
   4  -5  -4  144.19    6.50
   4  -5  -4  145.59    7.50
  -4  -5   4  146.19   10.30
   4   5  -4  153.68    9.00
  -4   5   4  154.68   10.10
   3  -5  -4   16.60    2.60
   3  -5  -4   15.80    2.30
  -3  -5   4   16.40    4.10
   3   5  -4   23.10    4.50
  -3   5   4   14.90    2.80
   3   5  -4   18.90    3.00
   2  -5  -4  120.89    5.80
  -2  -5   4  105.49    7.40
  -2   5   4  106.39    5.90
  -2   5   4  114.19    5.50
  -1  -5   4 3041.80   68.49
   1   5  -4 2974.20   68.49
  -1   5   4 2978.40   65.79
   0  -5  -4   72.59    5.40
   0  -5   4   69.69    5.70
   0   5  -4   62.49    4.80
   0   5   4   75.59    5.10
   0   5  -4   70.29    5.00
  -1  -5  -4  371.46   14.50
  -1   5  -4  366.36   12.30
  -1   5  -4  389.16   11.60
   1   5   4  353.76   13.30
  -1   5  -4  364.76   13.80
  -2  -5  -4   29.30    4.40
  -2  -5  -4   25.40    4.00
   2  -5   4   33.60    4.20
   2   5   4   27.70    4.20
  -2   5  -4   36.30    3.30
  -2   5  -4   25.80    4.20
   2   5   4   27.50    4.20
  -2   5  -4   34.70    3.10
   3  -5   4   59.79    6.20
   3  -5   4   66.49    4.00
  -3  -5  -4   69.59    6.90
   3   5   4   68.59    6.80
  -3   5  -4   69.99    4.80
  -4  -5  -4    3.80    2.80
   4  -5   4    1.80    1.60
   4  -5   4   -0.70    2.40
   4   5   4   -0.70    1.90
  -4   5  -4    1.20    1.70
   5  -5   4  118.69   10.40
  -5  -5  -4  167.38   12.50
   5  -5   4  128.19    7.00
   5   5   4  137.49   11.30
  -5   5  -4  133.69    8.00
  -6  -5  -4   20.80    6.30
   6  -5   4   15.30    5.10
   6   5   4   19.40    6.00
  -6   5  -4   26.20    4.60
  -7  -5  -4  162.68   15.30
   7  -5   4  133.99   13.10
  -7   5  -4  138.39    9.90
   7   5   4  162.28   14.70
  -8  -5  -4   -7.70    4.90
   8  -5   4   -0.80    4.80
  -8   5  -4   -0.20    4.30
   8   5   4    3.40    4.90
  -9  -5  -4  230.28   21.20
   9  -5   4  253.37   21.20
  -9   5  -4  246.08   15.40
   9   5   4  241.68   20.40
 -10  -5  -4   17.60    8.90
  10  -5   4    8.90    8.40
  10   5   4   13.60    7.50
 -10   5  -4    8.20    7.60
  11  -5   4    1.00    9.10
 -11  -5  -4    5.70   12.00
  11   5   4    3.10   10.20
  12  -6  -4   22.70   10.20
 -12  -6   4    1.30   10.50
  12   6  -4   -7.70    8.10
 -11  -6   4   53.19   13.70
  11  -6  -4   43.50   10.00
  11  -6  -4   42.60    7.60
  11   6  -4   62.09   13.90
  10  -6  -4   33.60    8.50
 -10  -6   4   47.50   14.60
 -10   6   4   44.00    8.60
  10   6  -4   48.80   10.80
  -9  -6   4   37.40    9.00
   9  -6  -4   32.40    7.50
   9   6  -4   27.40    7.90
  -9   6   4   25.10    5.70
  -8  -6   4   69.29   10.40
   8  -6  -4   59.29    5.40
   8  -6  -4   61.49    9.00
  -8   6   4   61.19    6.50
   8   6  -4   67.59    9.60
  -7  -6   4   78.59   10.40
   7  -6  -4   66.69    5.40
   7   6  -4   76.89    9.30
   6  -6  -4  308.87   10.80
  -6  -6   4  287.27   17.60
   6  -6  -4  294.57   12.40
   6  -6  -4  275.97   14.40
   6   6  -4  329.17   16.80
  -5  -6   4    9.50    3.90
   5  -6  -4    8.30    2.80
   5  -6  -4   11.00    3.40
   5   6  -4    4.00    2.90
  -4  -6   4    1.80    2.50
   4  -6  -4   -0.40    1.50
   4  -6  -4    2.80    1.30
   4   6  -4    2.00    2.20
  -4   6   4    7.10    2.90
  -3  -6   4   30.70    5.00
   3  -6  -4   24.50    2.70
   3  -6  -4   27.50    2.80
   3   6  -4   26.10    3.90
  -3   6   4   25.20    3.40
   3   6  -4   24.30    4.50
  -2  -6   4  107.19    7.60
   2  -6  -4  107.49    5.70
  -2   6   4   97.49    6.10
   2   6  -4  105.29    9.50
  -2   6   4   96.99    5.20
  -1  -6   4   43.50    4.50
   1  -6  -4   43.20    4.10
  -1   6   4   40.00    3.60
   1   6  -4   41.80    4.60
   0  -6   4  772.92   21.60
   0  -6  -4  758.32   22.40
   0   6  -4  729.53   21.60
   0   6  -4  735.13   22.10
   0   6   4  729.63   21.30
   0   6   4  725.73   21.20
  -1  -6  -4   25.60    4.00
  -1   6  -4   27.70    4.00
  -1   6  -4   30.60    3.30
  -1   6  -4   34.50    2.90
   1   6   4   34.70    4.10
  -2  -6  -4   21.90    4.30
   2  -6   4   14.50    3.30
  -2  -6  -4   25.60    3.90
   2   6   4   20.20    3.90
  -2   6  -4   22.60    3.90
   2   6   4   24.10    4.20
  -2   6  -4   20.40    2.50
  -2   6  -4   21.10    2.90
   3  -6   4   -0.80    1.70
  -3  -6  -4    2.80    2.50
  -3   6  -4    1.00    1.20
   3   6   4   -1.40    1.80
  -4  -6  -4  486.25   22.00
   4  -6   4  491.45   14.10
   4  -6   4  498.25   20.90
   4   6   4  529.65   21.80
  -4   6  -4  508.45   15.60
   5  -6   4   17.10    5.00
   5  -6   4   16.00    3.00
  -5  -6  -4   13.10    5.20
   5   6   4   17.20    5.00
  -5   6  -4   13.50    3.00
   6  -6   4    4.90    2.50
  -6  -6  -4   -0.80    4.10
   6  -6   4    8.40    4.50
  -6   6  -4    1.80    2.40
   6   6   4   -1.30    3.40
   7  -6   4   13.90    6.40
  -7  -6  -4   10.90    6.00
   7   6   4   10.40    6.30
  -7   6  -4   18.10    4.40
  -8  -6  -4   52.89   11.70
   8  -6   4   45.70   10.00
   8   6   4   59.09   10.20
  -8   6  -4   45.60    7.60
   9  -6   4   15.10    7.80
   9   6   4   11.00    8.80
  -9   6  -4   26.50    6.80
 -10  -6  -4  152.98   19.10
  10  -6   4  116.39   16.90
  10   6   4  120.89   16.80
 -10   6  -4  100.89   18.00
  11  -6   4   12.90   11.30
 -11  -6  -4   31.40   12.60
  11   6   4   26.00   15.60
  12  -7  -4    5.60   10.10
 -12  -7   4    6.60   10.20
  12   7  -4   -8.60    9.40
  11  -7  -4  203.38   19.00
 -11  -7   4  196.68   20.60
  11   7  -4  199.28   21.60
  10  -7  -4    4.80    6.70
  10  -7  -4    3.50    4.30
 -10  -7   4   14.70    8.80
   9  -7  -4    7.40    5.60
  -9  -7   4   -7.70    5.90
   9   7  -4    2.40    5.40
  -8  -7   4    9.80    6.20
   8  -7  -4    0.20    2.40
   8  -7  -4    4.20    4.40
   8   7  -4   -2.20    4.10
   7  -7  -4   27.30    3.60
   7  -7  -4   19.30    5.20
  -7  -7   4   41.60    7.50
   7  -7  -4   27.00    4.70
   7   7  -4   26.30    6.50
   6  -7  -4  106.39    9.10
  -6  -7   4   89.19   10.20
   6  -7  -4   93.09    6.60
   6   7  -4  101.59    9.60
   5  -7  -4  394.86   12.20
  -5  -7   4  424.96   20.40
   5  -7  -4  402.26   13.50
   5  -7  -4  415.46   17.40
   5   7  -4  400.96   18.20
   4  -7  -4   42.60    3.50
  -4  -7   4   56.69    7.00
   4  -7  -4   52.69    4.20
  -4   7   4   35.30    5.20
   4   7  -4   51.89    6.00
   3  -7  -4  836.72   21.50
   3  -7  -4  801.02   21.90
  -3  -7   4  869.81   28.30
   3   7  -4  859.71   25.80
  -3   7   4  776.22   24.50
   2  -7  -4  473.45   19.60
  -2  -7   4  512.95   19.10
  -2   7   4  495.45   14.70
   2   7  -4  494.05   18.90
   1  -7  -4  819.72   23.50
  -1  -7   4  843.12   25.20
   1   7  -4  821.42   25.10
  -1   7   4  828.12   22.70
   0  -7  -4  136.39    8.30
   0  -7   4  158.28    8.10
   0   7  -4  146.69    8.00
   0   7   4  134.19    7.80
   0   7   4  143.99    7.90
  -1  -7  -4  777.42   25.00
   1   7   4  756.12   23.70
  -1   7  -4  811.22   21.70
   1   7   4  737.53   23.40
  -1   7  -4  778.12   20.10
  -1   7  -4  730.73   23.80
   2   7   4  273.47   13.20
  -2   7  -4  258.37    9.70
  -2   7  -4  274.27    9.20
  -3  -7  -4  770.82   27.90
   3  -7   4  749.92   26.20
  -3   7  -4  779.92   20.00
  -3   7  -4  744.93   19.60
   3   7   4  734.03   26.30
  -4  -7  -4   -0.60    2.70
   4  -7   4    5.80    2.90
   4   7   4    2.90    2.80
  -4   7  -4    3.00    1.80
  -4   7  -4    5.60    1.80
   5  -7   4  160.48    6.70
   5  -7   4  187.68   13.20
  -5  -7  -4  147.99   12.80
   5   7   4  176.48   13.20
  -5   7  -4  169.88    7.80
   6  -7   4   33.60    4.20
   6  -7   4   44.70    9.10
  -6  -7  -4   42.10    8.20
  -6   7  -4   33.50    4.30
   6   7   4   30.80    7.10
  -7  -7  -4   16.40    7.30
   7  -7   4   10.00    5.10
   7  -7   4   17.20    3.60
  -7   7  -4   16.30    3.90
   7   7   4   29.30    7.50
   8  -7   4  106.49   12.60
  -8  -7  -4   70.29   14.00
   8   7   4   75.39   12.20
  -9  -7  -4   74.99   14.60
   9  -7   4   89.29   14.20
   9   7   4   95.19   14.60
  -9   7  -4   82.99    8.80
 -10  -7  -4   22.80   11.00
  10  -7   4   -4.90    7.40
  10   7   4  -14.30    7.10
  11  -7   4   52.29   14.90
 -11  -7  -4   39.40   12.90
  11   7   4   25.60   12.10
 -11  -8   4    8.80   10.00
  11  -8  -4    3.00    8.60
  11   8  -4    3.40    8.60
  10  -8  -4   68.49    7.90
 -10  -8   4   71.49   13.90
  10   8  -4   61.69   13.10
   9  -8  -4    8.70    6.10
  -9  -8   4    6.10    5.80
   9   8  -4   -3.20    5.40
   8  -8  -4   92.69   10.70
   8  -8  -4   97.29    7.30
  -8  -8   4  110.09   12.60
   8   8  -4   85.59   11.00
   7  -8  -4    0.20    1.90
   7  -8  -4    5.90    4.40
  -7  -8   4    4.10    4.20
   7   8  -4    0.40    3.60
  -6  -8   4  230.48   16.30
   6  -8  -4  217.78    8.00
   6  -8  -4  229.08   13.70
   6  -8  -4  239.28    9.30
   6   8  -4  235.38   15.20
   5  -8  -4    7.90    2.10
   5  -8  -4   11.00    2.20
   5   8  -4    8.30    3.60
   4  -8  -4    5.30    2.00
  -4  -8   4    8.70    4.20
   4  -8  -4    5.20    1.80
   4   8  -4    5.20    2.90
   3  -8  -4  591.14   16.60
   3  -8  -4  574.64   16.80
  -3  -8   4  600.84   23.10
  -3   8   4  564.24   20.00
   3   8  -4  548.55   20.30
   2  -8  -4  339.57   12.30
  -2  -8   4  349.67   15.60
  -2   8   4  340.07   14.10
   2   8  -4  334.07   15.30
  -2   8   4  350.16   11.60
   1  -8  -4  240.18   10.90
  -1  -8   4  259.17   12.20
   0  -8  -4  304.87   13.00
   0  -8   4  269.87   11.70
   0   8   4  273.37   13.40
  -1  -8  -4   38.40    5.10
   1   8   4   44.30    5.20
   1   8   4   37.60    4.80
  -1   8  -4   41.20    4.30
  -2  -8  -4  308.17   15.50
   2   8   4  283.27   14.20
  -2   8  -4  287.07   10.40
  -2   8  -4  302.97    9.80
  -3  -8  -4  172.98   12.60
   3  -8   4  188.08   12.00
   3   8   4  174.48   11.70
  -3   8  -4  188.98    7.30
  -3   8  -4  183.18    7.00
   4  -8   4  283.57   18.40
  -4  -8  -4  298.57   22.00
  -4   8  -4  270.67    8.90
   4   8   4  266.87   15.90
  -4   8  -4  268.77    9.00
   5  -8   4 1067.99   36.30
  -5  -8  -4  995.00   37.50
  -5   8  -4 1024.40   24.90
  -5   8  -4  976.70   24.40
   5   8   4 1060.49   37.10
   6  -8   4   45.70    9.00
  -6  -8  -4   70.29   11.00
   6   8   4   63.69   10.20
  -6   8  -4   62.69    4.50
   7  -8   4    3.80    4.10
  -7  -8  -4   -4.60    4.70
   7  -8   4   -4.00    2.30
   7   8   4   -3.50    3.90
  -7   8  -4    0.70    2.50
  -8  -8  -4   76.69   13.40
   8  -8   4   58.79    7.10
   8  -8   4   62.19   11.50
   8   8   4   81.59   13.90
   9  -8   4   46.90   11.70
  -9  -8  -4   28.30    9.50
   9   8   4   32.10   10.70
 -10  -8  -4   36.10   11.90
  10  -8   4   35.10   11.50
  10   8   4   21.80   10.20
 -11  -8  -4    4.00   15.00
  11  -8   4   10.50   10.20
  11   8   4   29.00   13.70
 -11  -9   4    1.80   10.00
  11  -9  -4   11.70    8.60
  11   9  -4   -2.10    8.30
  10  -9  -4   -8.70    6.10
 -10  -9   4    7.80    8.00
  10   9  -4    2.70    7.60
  -9  -9   4    1.70    6.90
   9  -9  -4    5.10    6.20
   9   9  -4    4.30    6.40
   8  -9  -4   -4.50    3.60
  -8  -9   4    0.50    5.20
   8   9  -4    5.40    5.10
  -7  -9   4  242.88   18.30
   7  -9  -4  212.78    6.70
   7   9  -4  223.08   15.80
  -6  -9   4   -0.50    4.60
   6  -9  -4   10.90    1.90
   6  -9  -4    9.60    2.30
   6   9  -4    8.30    4.40
   5  -9  -4   11.30    2.00
  -5  -9   4   13.60    5.50
   5  -9  -4   12.30    2.30
   5   9  -4   19.60    5.40
  -4  -9   4   22.20    6.10
   4  -9  -4   29.40    2.90
   4  -9  -4   27.90    3.50
   4   9  -4   28.10    5.00
   3  -9  -4   28.40    3.40
  -3  -9   4   27.10    5.30
  -3   9   4   23.90    2.80
   3   9  -4   25.10    4.30
  -2  -9   4  421.26   17.90
   2  -9  -4  406.76   14.30
  -2   9   4  407.36   13.50
  -1  -9   4  453.65   17.40
   1  -9  -4  443.46   16.10
   1   9  -4  410.86   17.10
  -1   9   4  423.86   15.00
   0  -9   4  586.44   19.20
   0  -9  -4  586.94   20.70
   0   9  -4  533.55   18.90
   0   9   4  568.14   19.10
   1  -9   4    9.20    2.20
  -1  -9  -4    8.00    2.60
   1   9   4    7.80    2.90
  -1   9  -4    8.80    2.60
  -2  -9  -4   10.00    3.90
  -2   9  -4   14.90    2.90
  -2   9  -4   14.00    2.30
   2   9   4   23.90    5.70
  -3  -9  -4    5.90    3.40
   3   9   4    4.40    2.90
  -3   9  -4    1.60    1.20
  -3   9  -4   -0.70    1.50
  -4  -9  -4    2.20    3.50
   4  -9   4    6.20    3.50
   4   9   4    6.50    3.70
  -4   9  -4    4.80    1.30
  -4   9  -4    7.50    2.40
   5  -9   4   40.20    8.40
  -5  -9  -4   29.40    7.30
   5   9   4   29.60    7.80
   6  -9   4    3.80    3.90
  -6  -9  -4   15.20    7.50
   6   9   4    8.10    5.50
   7  -9   4   25.30    6.10
  -7  -9  -4   20.00    7.70
   7   9   4   22.40    6.90
   8  -9   4   99.69   13.80
   8   9   4  117.79   16.30
  -9  -9  -4    3.30    7.80
   9  -9   4    3.60    7.00
   9   9   4    9.80    9.30
 -10  -9  -4   10.80    9.70
  10  -9   4    1.20    8.10
  10   9   4   11.70    9.20
 -11 -10   4    4.90    9.80
  11  10  -4   15.50   10.40
 -10 -10   4   13.90    8.70
  10  10  -4   16.80    9.30
  -9 -10   4   21.50    8.20
   9  10  -4   31.80    9.10
  -8 -10   4    4.90    6.10
   8  10  -4    2.50    4.90
  -7 -10   4   20.70    7.90
   7  10  -4   33.60    7.60
  -6 -10   4  235.68   17.50
   6  10  -4  208.38   15.30
  -5 -10   4  131.89   12.00
   5 -10  -4  117.49    4.30
   5  10  -4  112.59   10.50
   4 -10  -4  141.69    6.30
   4 -10  -4  153.28    6.40
  -4 -10   4  153.38   12.70
   4  10  -4  148.79   11.30
  -3 -10   4  221.98   14.00
   3 -10  -4  233.38    9.40
   3  10  -4  221.48   12.90
  -3  10   4  226.48    8.60
   2 -10  -4  693.23   20.90
  -2 -10   4  679.33   24.90
  -2  10   4  667.13   19.60
  -1 -10   4  105.89    8.00
   1 -10  -4   89.29    6.90
  -1  10   4  102.09    8.10
   0 -10  -4  396.96   16.60
   0 -10   4  357.96   14.60
   0  10  -4  377.46   17.00
  -1 -10  -4   63.39    6.90
   1 -10   4   61.19    4.90
  -1  10  -4   47.50    5.00
   1  10   4   61.89    6.60
  -2 -10  -4   76.99    8.30
   2  10   4   79.09    8.20
  -2  10  -4   73.29    4.40
  -2  10  -4   77.59    5.20
  -3 -10  -4   19.00    5.60
  -3  10  -4   21.40    2.50
  -3  10  -4   25.20    2.30
   3  10   4   34.20    7.40
  -4 -10  -4  524.65   25.20
   4  10   4  523.95   24.20
   5 -10   4    9.50    4.70
  -5 -10  -4   12.60    5.40
   5  10   4    9.80    4.90
   6 -10   4   36.00    8.00
  -6 -10  -4   18.50    5.80
   6  10   4   26.90    7.80
   7 -10   4    5.40    5.10
  -7 -10  -4    4.90    6.20
   7  10   4    3.00    5.70
  -8 -10  -4   92.99   14.70
   8 -10   4   84.09   13.40
   8  10   4   88.69   14.40
  -9 -10  -4   14.70   10.90
   9 -10   4   20.60    8.60
   9  10   4    3.00    7.80
 -10 -10  -4   26.70   12.40
  10 -10   4   75.49   14.90
  10  10   4   40.40   12.00
 -11 -11   4   12.40   13.20
  11  11  -4   20.90   11.10
 -10 -11   4   15.60    9.90
  10  11  -4    6.90    8.80
  -9 -11   4   -5.30    7.40
   9  11  -4   -2.20    6.20
  -8 -11   4   53.09   11.70
   8  11  -4   50.19   10.00
  -7 -11   4  144.19   15.30
   7  11  -4  143.59   13.70
  -6 -11   4   38.40    8.40
   6  11  -4   28.50    7.80
  -5 -11   4  269.97   18.10
   5  11  -4  276.07   16.90
   4 -11  -4  296.17    9.60
   4 -11  -4  291.77    9.70
  -4 -11   4  293.77   17.80
   4  11  -4  299.17   16.80
   3 -11  -4    1.10    2.70
  -3 -11   4    1.50    2.70
  -3  11   4    4.60    1.70
   3  11  -4    3.80    3.10
  -2 -11   4  160.88   11.20
   2 -11  -4  187.88    9.50
  -1 -11   4  396.96   17.00
   1 -11  -4  399.96   16.30
  -1  11   4  394.16   15.00
   0 -11  -4    0.80    2.10
   0 -11   4    1.60    2.00
   0  11  -4    0.30    2.40
  -1 -11  -4    5.00    3.20
   1 -11   4   13.90    3.10
  -1  11  -4   13.60    3.30
   1  11   4   11.60    3.80
  -2 -11  -4   11.40    4.90
   2  11   4    6.60    3.50
  -2  11  -4    8.70    2.30
  -2  11  -4    6.70    1.60
  -3 -11  -4   96.79   10.00
   3  11   4   72.39    8.70
  -3  11  -4   83.09    3.50
  -4 -11  -4   -6.00    3.20
   4  11   4   -3.40    3.10
  -5 -11  -4  188.88   16.30
   5  11   4  169.88   15.00
  -6 -11  -4   26.80    7.90
   6  11   4   29.70    8.50
  -7 -11  -4   98.69   14.50
   7 -11   4  144.29   15.00
   7  11   4  137.69   16.00
  -8 -11  -4   -4.40    7.20
   8 -11   4    8.30    6.40
   8  11   4    5.00    6.50
   9 -11   4    4.50    7.50
  -9 -11  -4    1.80    9.30
   9  11   4   -2.20    8.50
 -10 -11  -4  -14.30   11.00
  10 -11   4   -1.00   10.40
  10  11   4   -6.00   14.00
 -11 -12   4   -2.90   10.30
  11  12  -4   -5.10   10.70
 -10 -12   4   94.29   17.40
  10  12  -4   48.90   12.60
  -9 -12   4   25.00    9.10
   9  12  -4   26.00    8.50
  -8 -12   4   36.70    8.90
   8  12  -4   43.30   10.00
  -7 -12   4   19.40    7.70
   7  12  -4   19.80    7.50
  -6 -12   4  162.68   15.20
   6  12  -4  162.08   14.20
  -5 -12   4    4.00    4.60
   5  12  -4   15.70    5.80
   4 -12  -4  260.77    8.60
  -4 -12   4  299.17   18.20
   4 -12  -4  267.37    8.70
   4  12  -4  266.77   16.30
  -3 -12   4  228.78   14.90
  -3  12   4  225.68    8.90
   3  12  -4  240.58   14.60
  -2 -12   4  267.47   15.40
   2 -12  -4  301.97   13.00
  -1 -12   4   35.60    5.70
   1 -12  -4   34.40    5.20
   0 -12  -4  486.35   20.30
   0 -12   4  505.85   18.70
   0  12  -4  467.35   20.70
   1 -12   4  199.18    9.70
  -1 -12  -4  168.38   12.20
   1  12   4  188.58   12.60
  -2 -12  -4  166.58   12.90
  -2  12  -4  149.09    6.80
  -2  12  -4  163.58    7.80
   2  12   4  189.58   12.80
  -3 -12  -4  105.39   10.90
   3  12   4  104.09   10.70
  -3  12  -4   98.59    3.00
  -3  12  -4  105.49    3.20
  -4 -12  -4  304.97   19.90
   4  12   4  302.27   19.10
  -5 -12  -4    0.80    4.50
   5  12   4   -2.60    3.90
  -6 -12  -4  154.08   16.30
   6  12   4  159.28   15.60
  -7 -12  -4   10.30    7.40
   7  12   4   22.30    8.70
  -8 -12  -4   23.80    9.30
   8  12   4   26.40    9.20
  -9 -12  -4    2.00    9.20
   9  12   4    4.30    8.60
 -10 -12  -4   53.49   15.40
  10  12   4   34.10   14.00
 -10 -13   4   -6.10    9.00
  10  13  -4   10.70    9.30
  -9 -13   4    1.80    7.10
   9  13  -4    4.90    8.20
  -8 -13   4  135.09   16.80
   8  13  -4  123.49   15.10
  -7 -13   4   18.90    7.80
   7  13  -4    9.10    4.70
  -6 -13   4   31.60    9.40
   6  13  -4   34.50    8.00
  -5 -13   4  207.98   16.90
   5  13  -4  179.88   14.60
  -4 -13   4   -4.50    3.30
   4 -13  -4    5.30    1.70
   4  13  -4   -3.10    4.10
  -3 -13   4   19.20    5.90
   3 -13  -4   19.50    3.50
   3  13  -4   18.80    5.60
  -2 -13   4  673.53   26.80
   2 -13  -4  707.83   22.90
  -1 -13   4  130.09    9.90
   1 -13  -4  111.69    8.80
   0 -13   4  148.89    9.80
   0 -13  -4  142.09   10.90
   1 -13   4  101.59    7.00
  -1 -13  -4   84.09    8.90
   1  13   4   87.19    9.00
  -2 -13  -4   27.00    7.10
   2  13   4   24.90    6.40
  -2  13  -4   19.90    3.80
  -2  13  -4   18.00    4.20
  -3 -13  -4  289.87   19.00
   3  13   4  287.37   18.20
  -4 -13  -4   30.40    8.40
   4  13   4   38.70    9.00
  -5 -13  -4  148.69   15.50
   5  13   4  142.39   14.60
  -6 -13  -4   84.29   12.80
   6  13   4   89.39   12.50
  -7 -13  -4    0.10    7.30
   7  13   4    4.70    5.60
  -8 -13  -4   32.80   12.80
   8  13   4   26.20   10.50
  -9 -13  -4    5.70    9.40
   9  13   4  -17.60    8.20
  10  14  -4  -21.40    9.10
  -9 -14   4    3.90    8.60
   9  14  -4   14.30    8.50
  -8 -14   4    0.70    7.30
   8  14  -4   -0.40    6.80
  -7 -14   4   78.69   13.10
   7  14  -4   69.29   12.20
  -6 -14   4   84.09   12.60
   6  14  -4  103.89   12.80
  -5 -14   4   31.70    7.90
   5  14  -4   28.80    7.20
  -4 -14   4   37.40    8.80
   4  14  -4   18.50    6.40
  -3 -14   4   20.10    6.00
   3 -14  -4   23.20    4.10
   3  14  -4   20.90    6.20
   2 -14  -4  114.39    8.50
  -2 -14   4  116.29   10.60
  -1 -14   4   12.10    4.50
   1 -14  -4    8.80    3.60
   0 -14  -4   38.50    6.50
   0 -14   4   38.30    5.80
  -1 -14  -4  106.09   10.70
   1 -14   4  110.39    7.90
   1  14   4  114.69   11.00
  -2 -14  -4   10.10    4.60
   2  14   4    7.30    5.30
  -3 -14  -4  305.27   19.90
   3  14   4  299.97   19.30
  -4 -14  -4  265.37   19.30
   4  14   4  262.87   19.10
  -5 -14  -4  153.98   15.60
   5  14   4  112.89   14.30
  -6 -14  -4   -5.30    7.60
   6  14   4   -1.50    6.20
  -7 -14  -4   51.89   13.20
   7  14   4   40.50   10.50
  -8 -14  -4   11.10    9.40
   8  14   4   13.60    8.20
   9  14   4    9.40   13.10
  -9 -15   4   -0.60    9.60
   9  15  -4   -5.40    7.70
  -8 -15   4   -4.50    7.60
   8  15  -4   -4.50    5.90
  -7 -15   4  132.39   15.50
   7  15  -4  164.18   17.00
  -6 -15   4   32.20    8.80
   6  15  -4   32.60    8.20
  -5 -15   4   -0.80    5.10
   5  15  -4    3.40    4.70
  -4 -15   4  126.79   13.50
   4  15  -4  120.19   12.60
   3 -15  -4   42.30    5.30
  -3 -15   4   37.90    8.60
   3  15  -4   47.60    9.40
   2 -15  -4  131.39    9.30
  -2 -15   4  133.59   11.60
  -1 -15   4  282.57   16.20
   1 -15  -4  326.57   16.30
   0 -15   4  102.89    9.00
   0 -15  -4  101.69   10.50
   0  15   4  111.29   10.90
  -1 -15  -4   43.60    8.40
   1 -15   4   41.40    5.50
   1  15   4   36.30    7.30
  -2 -15  -4  183.18   15.00
  -2  15  -4  204.98   10.20
   2  15   4  188.38   15.20
  -3 -15  -4  129.69   13.70
   3  15   4  119.59   12.60
  -4 -15  -4   -1.80    5.90
   4  15   4   -0.60    4.80
  -5 -15  -4   45.50   10.70
   5  15   4   67.69   13.60
  -6 -15  -4    6.20    7.20
   6  15   4    8.40    7.00
  -7 -15  -4   13.40    9.70
   7  15   4   26.30    8.70
  -8 -15  -4    1.00    8.40
   8  15   4    1.40    8.60
  -9 -15  -4   48.40   15.90
   9  15   4   46.40   15.00
   9  16  -4  102.79   17.70
  -8 -16   4   13.20    9.60
   8  16  -4    6.80    8.10
  -7 -16   4    0.30    6.50
   7  16  -4   -9.20    5.90
  -6 -16   4  110.29   16.30
   6  16  -4  109.89   14.10
  -5 -16   4  172.88   16.70
   5  16  -4  140.89   14.90
  -4 -16   4   -4.00    4.30
   4  16  -4    0.00    4.70
  -3 -16   4    0.20    4.10
   3 -16  -4    3.80    4.20
   3  16  -4    5.60    4.90
   2 -16  -4   24.30    5.10
  -2 -16   4   18.10    5.60
   1 -16  -4   26.50    5.90
  -1 -16   4   25.70    6.50
   0 -16  -4  476.15   22.60
   0 -16   4  501.85   20.60
   0  16   4  502.95   24.30
  -1 -16  -4  258.67   17.10
   1 -16   4  250.57   12.40
   1  16   4  290.67   18.30
  -2 -16  -4    2.30    5.00
  -2  16  -4    4.90    3.40
   2  16   4    2.80    5.40
  -3 -16  -4   29.60    7.50
   3  16   4   31.80    7.80
  -4 -16  -4   32.10    8.60
   4  16   4   59.19   11.00
  -5 -16  -4   17.00    9.00
   5  16   4   14.70    6.60
  -6 -16  -4   32.20   10.60
   6  16   4   38.80   10.60
  -7 -16  -4   68.29   15.00
   7  16   4   86.79   15.40
  -8 -16  -4   12.70   10.70
   8  16   4   37.20   11.30
  -9 -17   4   25.30   12.60
   9  17  -4   11.50   15.60
  -8 -17   4   68.49   14.70
   8  17  -4   56.69   14.40
  -7 -17   4    8.10    8.10
   7  17  -4    2.30    7.30
  -6 -17   4    0.90    7.20
   6  17  -4    7.90    6.30
  -5 -17   4  168.08   17.10
   5  17  -4  192.28   17.70
  -4 -17   4   40.10    8.50
   4  17  -4   24.50    8.00
  -3 -17   4    5.20    3.90
   3  17  -4    4.80    5.10
  -2 -17   4    7.20    4.80
   2 -17  -4    2.80    4.10
  -1 -17   4   11.90    6.40
   1 -17  -4   18.90    5.30
   0 -17  -4   -1.80    4.40
   0 -17   4    4.20    4.40
   0  17   4   -0.30    4.20
  -1 -17  -4  250.37   17.20
   1 -17   4  207.88   11.60
   1  17   4  251.87   17.60
  -2 -17  -4  113.79   13.40
   2  17   4  131.49   13.60
  -3 -17  -4  102.79   13.20
   3  17   4  158.28   15.60
  -4 -17  -4    5.40    6.60
   4  17   4    0.00    6.20
  -5 -17  -4  100.59   16.20
   5  17   4  147.19   17.30
  -6 -17  -4   11.10    9.10
   6  17   4   23.00    9.90
  -7 -17  -4    2.30    9.90
   7  17   4    2.50    8.10
  -8 -17  -4    0.30   10.90
   8  17   4   27.50   12.50
  -8 -18   4   29.30   12.20
   8  18  -4   -2.60   10.30
  -7 -18   4  145.19   19.80
   7  18  -4  148.39   18.70
  -6 -18   4  107.59   15.20
   6  18  -4   84.89   14.90
  -5 -18   4  138.89   16.50
   5  18  -4  124.09   15.60
  -4 -18   4   -6.10    5.20
   4  18  -4    1.70    5.60
  -3 -18   4   26.20    7.90
   3 -18  -4   25.50    6.00
   3  18  -4   15.00    6.90
  -2 -18   4   22.80    7.40
   2  18  -4   30.40    7.80
   1 -18  -4    1.10    4.50
  -1 -18   4   -2.50    4.70
   0 -18  -4  191.18   14.90
   0 -18   4  185.88   12.70
   0  18   4  175.88   15.60
  -1 -18  -4    5.80    6.00
   1  18   4    8.20    5.80
  -2 -18  -4    5.60    5.80
   2  18   4   14.30    6.30
  -2  18  -4    1.70    3.90
  -3 -18  -4  225.18   19.70
   3  18   4  278.27   21.20
  -4 -18  -4   40.10   11.00
   4  18   4   51.49   10.90
  -5 -18  -4   33.10   11.10
   5  18   4   78.09   14.30
  -6 -18  -4   12.90   12.10
   6  18   4    2.30    9.70
  -7 -18  -4  -23.10   10.40
   7  18   4    5.20    9.20
  -7 -19   4   41.70   12.00
  -6 -19   4    3.50    9.60
   6  19  -4    2.60    8.60
  -5 -19   4   -0.20    6.40
   5  19  -4    6.10    7.30
  -4 -19   4   25.50    8.80
   4  19  -4   23.70    8.00
  -3 -19   4    4.00    6.80
   3  19  -4    5.50    6.00
  -2 -19   4   56.29   10.70
   2  19  -4   59.39   10.90
  -1 -19   4  143.49   13.30
   0 -19  -4   81.19   11.00
   0  19   4   73.79   13.90
  -1 -19  -4    4.30    6.60
   1  19   4   17.50    8.30
  -2 -19  -4   69.39   12.90
   2  19   4   90.29   13.70
  -3 -19  -4   13.80    8.40
   3  19   4   22.00    8.90
  -4 -19  -4    1.60    8.00
   4  19   4    5.80    7.10
  -5 -19  -4   60.29   14.30
   5  19   4   71.19   14.80
  -6 -19  -4   -2.50   10.60
   6  19   4   18.90   10.70
  -7 -20   4   -3.10   12.70
   7  20  -4    9.30   10.00
  -6 -20   4   14.20    9.20
   6  20  -4   37.90   12.80
  -5 -20   4   85.39   15.20
   5  20  -4  104.19   16.20
  -4 -20   4   -8.80    6.50
   4  20  -4   -2.90    5.70
  -3 -20   4   19.40    8.20
   3  20  -4   33.20   10.20
  -2 -20   4   21.30    7.50
   2 -20  -4   18.10    6.90
   2  20  -4   28.80    9.40
  -1 -20   4    7.20    6.20
  -1  20   4   11.20    6.40
   0 -20  -4    1.50    7.30
   0  20   4   12.10    6.40
  -1 -20  -4   46.20   10.70
  -1  20  -4   34.00    6.40
   1  20   4   53.19   11.10
  -2 -20  -4   10.40    7.60
   2  20   4    4.50    7.70
  -3 -20  -4   19.50    8.60
   3  20   4   10.80    8.50
  -4 -20  -4    2.00    7.90
   4  20   4   15.50    9.10
  -5 -20  -4   -2.40   10.00
   5  20   4    3.40    8.90
  -6 -20  -4   17.50   18.10
   6  20   4   24.50   12.40
  -6 -21   4   32.90   13.30
   6  21  -4   26.40   13.00
  -5 -21   4   29.40   11.60
   5  21  -4   25.20   10.20
  -4 -21   4  132.79   17.40
   4  21  -4  147.89   17.60
  -3 -21   4   52.69   17.30
   3  21  -4   90.09   14.70
  -2 -21   4    5.70    7.50
   2  21  -4   20.10    9.10
   1 -21  -4   26.30    9.10
   0 -21   4   14.60    8.50
  -1 -21  -4   26.30    9.40
   1  21   4   17.40    8.20
   2  21   4   65.19   13.00
  -3 -21  -4   33.00   11.60
   3  21   4   22.10   10.10
  -4 -21  -4   32.80   12.00
   4  21   4    8.70    9.50
  -5 -21  -4   36.90   13.90
  -5 -22   4   32.00   13.00
   5  22  -4   51.89   13.50
  -4 -22   4   10.60    9.70
   4  22  -4   41.10   11.50
  -3 -22   4   81.49   15.70
   3  22  -4  110.09   17.40
   2  22  -4   14.10    9.30
  -1 -22   4    0.20    7.60
  -1  22   4   -4.10    6.50
   1  22  -4   -5.40    7.30
   0 -22  -4   78.99   15.20
   0  22   4   96.59   15.20
   1  22   4   43.30   10.60
  -2 -22  -4   83.29   16.00
   2  22   4   74.99   14.70
  -3 -22  -4   -9.20    9.40
   3  22   4    0.00    9.10
  -4 -22  -4   -4.70   11.00
   4  22   4    7.10   11.10
   3  23  -4    5.30   10.70
   2  23  -4   82.99   22.20
  -2  23   4   83.89   16.20
  -1 -23   4   46.50   12.70
   1  23  -4   74.99   14.30
  -1  23   4   54.89   12.70
   0 -23  -4   92.69   18.50
   0  23   4  102.59   17.70
  -1 -23  -4   -4.40   11.00
   1  23   4    1.40   10.80
   2  23   4  -16.80   16.70
  12   0  -5   -2.70    8.40
 -11   0   5  129.79   15.30
  10   0  -5    2.10    5.00
 -10   0   5    0.40    6.10
   9   0  -5  181.08   14.80
  -9   0   5  232.78   16.20
  -8   0   5    2.90    4.30
   8   0  -5    0.20    3.50
  -7   0   5   35.20    6.40
   7   0  -5   23.90    5.20
  -6   0   5    1.40    2.80
   6   0  -5    0.00    2.20
  -5   0   5 1336.07   37.90
   5   0  -5 1312.07   34.90
  -5   0   5 1287.47   34.50
   4   0  -5    3.10    2.30
   4   0  -5   -0.40    1.20
  -4   0   5   -0.60    1.60
  -4   0   5   -1.00    1.40
  -3   0   5  775.82   19.10
  -3   0   5  766.62   23.40
   3   0  -5  774.22   19.30
   3   0  -5  776.62   23.60
   2   0  -5    1.40    1.30
   2   0  -5    3.60    1.50
  -2   0   5    3.60    1.80
  -1   0   5  596.44   17.20
   1   0  -5  626.34   13.00
   1   0  -5  634.74   17.60
   1   0  -5  564.94   18.10
   0   0   5    0.20    0.60
   0   0  -5    0.10    0.80
   0   0  -5    0.10    0.90
   0   0   5    0.30    0.90
  -1   0  -5  503.35   16.10
   1   0   5  519.45   15.80
   1   0   5  519.15   15.50
  -1   0  -5  490.85   15.10
  -2   0  -5    2.10    1.40
  -2   0  -5   -1.00    1.30
   2   0   5    0.10    1.30
   2   0   5   -1.10    1.40
   3   0   5  378.16   14.40
   3   0   5  412.76   16.40
  -3   0  -5  392.86   15.60
  -3   0  -5  374.86   15.30
   4   0   5   -0.50    2.60
  -4   0  -5   -1.20    1.90
  -5   0  -5 1267.47   38.70
   5   0   5 1255.77   40.20
  -6   0  -5    2.20    3.50
   6   0   5   -2.40    3.20
  -7   0  -5  144.39   12.90
   7   0   5  175.98   14.80
  -8   0  -5    2.20    5.20
   8   0   5   -3.90    4.40
   9   0   5   38.30    9.90
  -9   0  -5   63.19   11.60
 -10   0  -5    6.90    7.10
  10   0   5    6.30    7.60
  11   0   5  101.49   19.00
 -12  -1   5   -6.90    8.70
  12  -1  -5    5.30    8.20
  12   1  -5    0.80    8.70
 -11  -1   5   23.00    9.50
 -11   1   5   18.10    8.40
  11   1  -5    7.90    9.50
  10  -1  -5  133.19   14.20
 -10  -1   5  157.78   15.70
 -10   1   5  157.98   14.70
  10   1  -5  128.79   13.90
   9  -1  -5   62.19    9.40
  -9  -1   5   67.39   10.60
  -9   1   5   80.59   10.00
   9   1  -5   67.99    9.90
  -8  -1   5   33.20    7.80
   8  -1  -5   27.30    6.50
  -8   1   5   20.20    6.10
   7  -1  -5   95.69    9.00
  -7  -1   5  111.19   10.30
  -7   1   5  104.09    9.40
   7   1  -5   97.09    8.90
  -6  -1   5  230.88   13.80
   6  -1  -5  248.68   12.40
   6   1  -5  213.18   12.10
  -6   1   5  236.38   13.10
  -5  -1   5   30.70    5.00
  -5  -1   5   24.00    4.70
   5  -1  -5   29.60    4.10
  -5   1   5   23.10    4.10
  -5   1   5   27.50    4.80
   5   1  -5   25.40    4.00
   4  -1  -5 1409.16   36.30
  -4  -1   5 1378.26   33.90
  -4  -1   5 1383.26   38.30
  -4   1   5 1372.76   33.90
  -4   1   5 1379.06   37.10
   4   1  -5 1422.26   35.00
   4   1  -5 1345.37   38.20
  -3  -1   5  150.08    6.00
  -3  -1   5  146.39    8.70
   3  -1  -5  150.48    5.90
   3  -1  -5  158.08    8.60
   3   1  -5  154.08    6.30
  -3   1   5  156.78    8.40
   3   1  -5  147.89    8.60
  -3   1   5  144.99    5.80
   2  -1  -5  174.58    7.60
   2  -1  -5  167.28    8.40
  -2  -1   5  172.78    8.70
   2   1  -5  165.68    8.70
   2   1  -5  165.58    5.30
   1  -1  -5   37.10    3.30
   1   1  -5   34.20    1.90
  -1   1   5   33.20    1.20
  -1   1   5   33.50    3.20
   1   1  -5   39.50    3.90
   1   1  -5   32.00    3.10
   0  -1  -5  233.28    7.50
   0  -1  -5  234.28    9.40
   0  -1   5  243.48    9.00
   0  -1   5  227.98    7.80
   0   1  -5  235.58    7.80
   0   1   5  230.28    7.60
   0   1   5  237.38    9.10
   0   1  -5  237.18    9.20
  -1  -1  -5   59.19    4.20
  -1  -1  -5   67.39    5.10
   1  -1   5   70.29    4.60
   1  -1   5   65.19    4.40
  -1   1  -5   58.09    4.30
  -1   1  -5   59.89    4.50
   1   1   5   56.99    4.60
   1   1   5   57.99    4.20
   2  -1   5  361.26   13.50
  -2  -1  -5  324.87   12.70
  -2  -1  -5  328.37   13.40
   2  -1   5  335.37   12.10
   2   1   5  347.07   13.30
   2   1   5  313.27   14.10
  -2   1  -5  342.87   12.70
  -2   1  -5  315.47   12.80
   3  -1   5   73.09    6.70
  -3  -1  -5   57.99    5.90
  -3  -1  -5   56.59    5.90
   3   1   5   62.79    6.20
  -3   1  -5   62.89    6.00
   3   1   5   72.19    6.00
  -3   1  -5   67.99    5.70
  -4  -1  -5  377.66   16.80
   4  -1   5  355.86   16.80
   4  -1   5  355.66   14.50
  -4   1  -5  344.27   15.30
   4   1   5  382.56   17.50
  -5  -1  -5   44.00    6.90
   5  -1   5   31.50    6.30
  -5   1  -5   40.40    6.10
   5   1   5   37.00    6.60
   6  -1   5  334.97   18.90
  -6  -1  -5  314.77   17.70
   6   1   5  323.17   18.60
  -6   1  -5  322.97   17.10
   7  -1   5    7.50    4.40
  -7  -1  -5    8.60    5.30
   7   1   5   11.70    6.10
  -7   1  -5    3.30    4.30
  -8  -1  -5   15.60    7.20
   8  -1   5   18.90    6.80
   8   1   5   14.40    6.40
  -8   1  -5   16.00    5.60
   9  -1   5    0.50    5.90
  -9  -1  -5   -0.80    6.10
  -9   1  -5   -0.10    6.60
   9   1   5   -2.90    5.90
  10  -1   5   17.00    8.70
 -10  -1  -5   38.90   11.30
 -10   1  -5   -5.30    8.30
  10   1   5    6.40    7.90
 -11  -1  -5   18.60   11.80
  11  -1   5  -10.10    8.90
  11   1   5   -8.80    8.20
  12  -2  -5   26.10    9.50
 -12  -2   5   21.50   11.40
  12   2  -5   34.40   10.40
 -11  -2   5  174.48   24.20
 -11   2   5  182.68   15.90
  11   2  -5  162.58   17.30
  10  -2  -5   97.89   12.20
 -10  -2   5   93.09   13.00
 -10   2   5   95.89   12.00
  10   2  -5  107.59   13.40
   9  -2  -5   44.30    8.80
  -9  -2   5   51.39    9.70
   9   2  -5   34.80    8.20
  -9   2   5   33.90    7.60
  -8  -2   5   10.40    4.90
   8  -2  -5   18.30    5.60
  -8   2   5   12.00    4.90
   8   2  -5   18.30    5.80
  -7  -2   5   47.20    7.40
   7  -2  -5   47.00    6.60
   7   2  -5   40.90    6.50
  -7   2   5   45.50    6.90
   6  -2  -5  233.08   12.10
  -6  -2   5  231.48   13.90
  -6   2   5  213.08   12.10
   6   2  -5  219.28   12.30
   5  -2  -5  557.34   18.70
   5  -2  -5  579.84   28.20
  -5  -2   5  569.94   18.80
  -5  -2   5  575.34   22.10
   5   2  -5  558.44   19.40
  -5   2   5  545.55   18.60
  -5   2   5  536.75   19.60
  -4  -2   5  129.89    8.90
   4  -2  -5  132.39    8.40
   4  -2  -5  113.39    7.50
  -4  -2   5  107.89    6.30
  -4   2   5  109.39    6.50
  -4   2   5  117.39    7.60
   4   2  -5  121.29    7.00
   4   2  -5  115.69    8.50
  -3  -2   5 1024.50   24.70
   3  -2  -5 1015.90   26.40
  -3  -2   5  994.60   29.40
   3  -2  -5 1034.40   28.30
   3  -2  -5 1022.50   24.40
   3   2  -5  978.80   29.60
  -3   2   5 1031.20   24.60
   3   2  -5 1031.90   25.40
   2  -2  -5    6.60    1.80
  -2  -2   5    5.90    2.20
   2  -2  -5    5.40    1.80
   2   2  -5    7.80    1.50
   2   2  -5    4.60    1.80
  -2   2   5    5.90    1.10
   1  -2  -5 1395.06   34.20
  -1   2   5 1419.46   34.00
  -1   2   5 1403.26   30.20
   1   2  -5 1404.16   35.90
   1   2  -5 1449.46   34.40
   1   2  -5 1388.86   31.40
   0  -2  -5  213.58    9.30
   0  -2   5  205.08    8.30
   0  -2   5  219.08    7.90
   0  -2  -5  204.88    7.10
   0   2   5  215.88    8.90
   0   2  -5  225.98    8.00
   0   2   5  216.28    7.50
   0   2  -5  241.88    9.00
  -1  -2  -5  718.43   21.50
   1  -2   5  702.53   19.70
  -1  -2  -5  723.73   19.90
   1   2   5  750.92   20.50
  -1   2  -5  715.73   20.40
   1   2   5  724.83   21.00
  -1   2  -5  722.43   20.20
   2  -2   5    1.50    1.70
  -2  -2  -5   -2.00    1.30
   2  -2   5   -0.10    1.10
  -2  -2  -5    2.10    1.90
  -2   2  -5   -0.20    1.10
   2   2   5   -0.20    1.60
  -2   2  -5    0.90    1.50
   2   2   5    0.00    1.40
   3  -2   5    1.10    1.60
  -3  -2  -5    3.50    2.40
  -3  -2  -5   -0.40    2.00
   3  -2   5    3.00    2.50
  -3   2  -5    0.40    1.70
  -3   2  -5    4.50    2.00
   3   2   5    1.10    1.90
   3   2   5    2.90    2.50
   4  -2   5   -0.50    1.90
  -4  -2  -5   -0.50    1.90
   4  -2   5    3.40    2.60
  -4   2  -5    5.50    2.90
   4   2   5    6.80    3.40
  -5  -2  -5  846.72   30.60
   5  -2   5  834.02   30.60
  -5   2  -5  804.02   27.60
   5   2   5  870.81   31.20
   6  -2   5   14.30    5.00
  -6   2  -5   17.40    5.10
   6   2   5   43.30    8.20
  -7  -2  -5   34.30    8.40
   7  -2   5   58.79    9.30
  -7   2  -5   38.50    7.80
   7   2   5   45.20    8.90
   8  -2   5   24.00    7.10
  -8  -2  -5   11.50    5.50
  -8   2  -5    9.30    5.40
   8   2   5   24.40    8.20
   9  -2   5   -4.20    5.40
  -9  -2  -5   -1.70    6.90
   9   2   5    0.50    6.00
  -9   2  -5    0.60    7.10
 -10  -2  -5   -1.70   11.20
  10  -2   5    5.90    7.40
 -10   2  -5   -2.70    8.30
  10   2   5    8.00    6.90
 -11  -2  -5   80.99   16.20
  11  -2   5  128.09   21.10
  11   2   5  110.29   18.30
 -11   2  -5  116.39   18.50
  12  -3  -5   13.80   10.10
 -12  -3   5   14.80   10.80
  12   3  -5   17.00    9.90
 -12   3   5    2.20    9.50
 -11  -3   5   -4.20    7.40
  11  -3  -5   -4.00    7.00
 -11   3   5    2.70    6.90
  11   3  -5    1.90    6.70
  10  -3  -5    3.10    5.20
 -10  -3   5   -3.50    6.60
  10   3  -5   -1.40    5.60
 -10   3   5    2.00    5.90
  -9  -3   5    6.90    6.00
   9  -3  -5    5.90    5.20
  -9   3   5    2.60    6.80
   9   3  -5    7.70    5.90
  -8  -3   5    1.40    4.10
   8  -3  -5   10.90    5.00
  -8   3   5   12.40    4.80
   8   3  -5    5.10    4.30
  -7  -3   5   60.79    8.70
   7  -3  -5   61.79    7.30
  -7   3   5   64.39    7.50
   7   3  -5   59.09    7.80
  -6  -3   5  449.26   20.60
   6  -3  -5  439.26   17.40
   6  -3  -5  379.66   17.10
   6   3  -5  429.66   18.20
  -6   3   5  421.96   17.10
   5  -3  -5   30.30    4.90
  -5  -3   5   28.60    4.50
   5  -3  -5   27.70    4.00
  -5  -3   5   33.40    5.30
   5   3  -5   31.20    4.30
  -5   3   5   26.40    4.20
  -5   3   5   42.00    5.70
  -4  -3   5  227.28    9.70
   4  -3  -5  259.57   10.10
   4  -3  -5  248.98    9.90
   4  -3  -5  236.58   11.00
  -4  -3   5  235.38   12.70
  -4   3   5  233.38    9.90
   4   3  -5  248.98   10.70
   3  -3  -5  317.97   11.30
   3  -3  -5  339.27   10.60
   3  -3  -5  326.37   12.60
  -3  -3   5  307.87   13.90
   3   3  -5  318.87   14.30
  -3   3   5  328.47   10.70
   3   3  -5  316.27   11.10
   2  -3  -5    1.10    1.60
   2  -3  -5    1.60    1.20
  -2  -3   5    0.70    1.70
   2   3  -5    1.00    0.80
   2   3  -5    4.90    2.50
  -2   3   5    2.60    1.00
  -2   3   5    3.60    1.40
  -1  -3   5  257.87   10.80
   1  -3  -5  244.18    9.60
  -1   3   5  232.98    9.20
  -1   3   5  233.78    7.30
   1   3  -5  238.78   10.60
   0  -3  -5 1370.86   32.10
   0  -3  -5 1421.16   35.40
   0   3  -5 1402.96   33.50
   0   3   5 1415.86   32.90
   0   3  -5 1418.46   35.40
   0   3  -5 1412.06   34.10
   0   3   5 1408.76   34.70
  -1  -3  -5  445.86   15.60
   1  -3   5  417.46   13.00
  -1  -3  -5  389.86   13.30
   1  -3   5  409.56   14.00
   1   3   5  422.46   15.90
  -1   3  -5  416.26   13.40
  -1   3  -5  413.76   14.10
   1   3   5  398.06   14.40
  -2  -3  -5   23.30    3.80
  -2  -3  -5   21.10    3.40
   2  -3   5   26.80    3.90
   2  -3   5   25.80    3.10
   2   3   5   22.90    3.60
  -2   3  -5   26.80    3.30
   2   3   5   24.20    3.80
   3  -3   5  110.59    6.40
  -3  -3  -5  121.39    8.80
  -3  -3  -5  108.39    7.90
   3  -3   5  119.99    8.40
   3   3   5  118.59    8.60
  -3   3  -5  115.79    7.20
   4  -3   5    9.60    3.30
  -4  -3  -5    8.30    3.10
   4  -3   5   17.20    3.40
   4   3   5    9.00    3.90
  -4   3  -5   11.50    2.90
   5  -3   5    2.50    2.80
  -5  -3  -5    0.70    2.80
   5  -3   5    8.70    3.80
  -5   3  -5    1.20    2.50
   5   3   5    2.10    3.40
   6  -3   5  265.17   17.10
  -6  -3  -5  296.67   18.10
  -6   3  -5  266.57   14.60
   6   3   5  274.27   17.70
   7  -3   5    8.60    5.30
  -7  -3  -5   15.10    6.50
  -7   3  -5    3.00    4.20
   7   3   5    5.60    4.10
   8  -3   5   13.10    6.50
  -8  -3  -5    2.90    5.50
   8   3   5   12.90    6.60
  -9  -3  -5   36.00   10.00
   9  -3   5   43.10    9.60
  -9   3  -5   34.80    8.80
   9   3   5   33.80   10.30
  10  -3   5   79.39   15.10
 -10  -3  -5  116.89   17.50
  10   3   5   46.20   11.80
  11  -3   5   -5.20   10.00
 -11  -3  -5   15.30   11.40
 -11   3  -5  -14.20   10.40
  11   3   5    8.40    9.20
  12  -4  -5   21.80   10.80
 -12  -4   5   33.10   12.80
  12   4  -5    4.10    8.80
 -12   4   5    7.90    9.60
  11  -4  -5    3.80    7.20
 -11  -4   5   10.20    8.70
 -11   4   5   16.50    7.90
  11   4  -5   18.80    8.70
 -10  -4   5    7.90    6.80
  10  -4  -5    5.80    5.50
  10   4  -5    1.20    5.60
 -10   4   5    1.50    5.90
  -9  -4   5  308.87   20.20
   9  -4  -5  286.37   18.50
  -9   4   5  337.47   17.60
   9   4  -5  273.07   18.90
  -8  -4   5    9.70    5.90
   8  -4  -5    6.30    4.30
  -8   4   5   15.70    4.90
   8   4  -5    8.00    3.90
  -7  -4   5   44.00    8.00
   7  -4  -5   60.79    7.50
  -7   4   5   45.90    6.40
   7   4  -5   61.89    8.00
   6  -4  -5    3.00    3.10
   6  -4  -5    2.50    2.30
  -6  -4   5    1.40    3.10
  -6   4   5    6.20    2.80
   6   4  -5    3.50    2.70
  -5  -4   5   46.90    6.60
   5  -4  -5   40.80    4.00
   5  -4  -5   38.40    5.00
  -5  -4   5   39.90    5.00
   5  -4  -5   48.10    5.00
  -5   4   5   48.80    5.40
   5   4  -5   33.20    4.80
   4  -4  -5    0.60    1.10
   4  -4  -5   -0.60    1.10
   4  -4  -5    0.10    1.70
  -4  -4   5    3.80    2.10
   4   4  -5    2.10    1.80
  -4   4   5   -1.10    1.50
  -3  -4   5  851.61   27.00
   3  -4  -5  828.72   22.30
   3  -4  -5  813.72   23.60
   3   4  -5  856.61   23.20
  -3   4   5  830.72   22.10
   3   4  -5  817.12   26.70
  -2  -4   5  159.18    9.10
   2  -4  -5  139.49    6.90
  -2   4   5  150.98    6.20
  -2   4   5  149.88    7.00
   1  -4  -5  989.90   26.20
  -1  -4   5  976.60   27.50
  -1   4   5  970.10   25.40
   0  -4  -5  257.17   10.90
   0   4   5  263.87    9.60
   0   4  -5  256.87    9.90
   0   4  -5  249.58   10.70
   0   4  -5  269.47    9.90
  -1  -4  -5 2283.37   54.39
   1  -4   5 2221.48   52.49
  -1  -4  -5 2157.38   51.09
  -1   4  -5 2275.87   50.79
  -1   4  -5 2184.28   52.39
   1   4   5 2144.49   52.79
   1   4   5 2252.87   52.39
  -1   4  -5 2309.37   52.09
  -2  -4  -5   83.09    6.30
   2  -4   5   78.39    6.40
  -2  -4  -5   94.69    7.50
   2  -4   5   81.99    4.90
  -2   4  -5   85.79    5.40
  -2   4  -5   82.39    6.40
   2   4   5   70.39    6.10
   2   4   5   96.19    7.00
  -3  -4  -5    1.30    2.00
   3  -4   5    3.10    1.50
   3  -4   5    1.90    2.00
   3   4   5   -1.60    1.60
  -3   4  -5    0.80    1.20
   4  -4   5   21.90    3.50
  -4  -4  -5   25.90    5.00
   4  -4   5   10.10    3.60
   4   4   5   16.20    4.10
  -4   4  -5   22.60    4.10
  -5  -4  -5   45.10    7.50
   5  -4   5   38.70    4.90
  -5   4  -5   44.60    5.50
   5   4   5   46.90    9.20
   6  -4   5  342.17   19.70
  -6  -4  -5  361.56   20.40
  -6   4  -5  393.96   17.10
   6   4   5  400.36   21.50
  -7  -4  -5  282.07   19.50
   7  -4   5  261.67   18.20
  -7   4  -5  274.77   15.50
   7   4   5  287.97   19.00
   8  -4   5   64.19   10.80
  -8  -4  -5  102.19   13.10
  -8   4  -5   91.69   10.60
   8   4   5   90.79   12.80
  -9  -4  -5    0.30    7.20
   9  -4   5    4.50    7.50
  -9   4  -5    9.50    6.80
   9   4   5   -1.20    6.10
 -10  -4  -5   -2.20    9.00
  10  -4   5   -6.60    8.00
 -10   4  -5  -16.60    7.90
  10   4   5  -10.70    7.60
  11  -4   5   24.40   16.70
 -11  -4  -5   63.69   15.10
  11   4   5   28.90   18.70
 -12  -5   5  112.49   19.80
  12  -5  -5   45.10   12.40
  12   5  -5   60.19   13.30
  11  -5  -5   13.10    7.70
 -11  -5   5    3.20    8.50
  11   5  -5   18.80    8.10
 -11   5   5    8.80    7.30
  10  -5  -5  194.38   16.00
 -10  -5   5  196.58   18.50
  10   5  -5  214.38   18.80
   9  -5  -5   17.30    5.90
  -9  -5   5   20.10    7.80
   9   5  -5   30.70    8.30
  -9   5   5   22.20    6.20
  -8  -5   5   14.20    7.10
   8  -5  -5    9.00    4.60
   8   5  -5   13.80    5.80
  -8   5   5   19.10    5.00
  -7  -5   5    5.00    4.10
   7  -5  -5    3.30    3.40
   7   5  -5    8.00    3.70
  -7   5   5   13.60    3.30
   6  -5  -5   88.79    7.80
   6  -5  -5   89.69    7.60
   6  -5  -5   80.99    5.80
   6   5  -5  111.09    9.00
   5  -5  -5  250.07   11.60
   5  -5  -5  251.17   11.80
   5  -5  -5  241.48    9.90
  -5  -5   5  277.87   15.40
  -5   5   5  248.48   12.10
   5   5  -5  286.57   13.60
   4  -5  -5  880.81   23.50
   4  -5  -5  875.41   24.90
   4  -5  -5  850.91   25.00
  -4  -5   5  893.21   29.80
  -4   5   5  892.91   25.40
   4   5  -5  898.41   26.50
  -3  -5   5   12.70    3.90
   3  -5  -5    6.30    1.80
   3  -5  -5    7.90    2.60
   3   5  -5   14.40    4.20
   3   5  -5   11.20    2.90
  -3   5   5    5.30    1.90
  -2  -5   5  133.69    8.40
   2  -5  -5  123.79    6.60
  -2   5   5  121.39    6.10
  -2   5   5  127.39    6.40
  -1  -5   5  260.47   11.70
   1  -5  -5  258.87   10.60
   1   5  -5  269.77   11.90
  -1   5   5  269.17   10.30
   0  -5  -5 2698.23   62.69
   0   5   5 2659.33   60.59
   0   5  -5 2694.33   61.19
   0   5  -5 2684.13   60.09
   0   5  -5 2677.63   61.99
  -1  -5  -5   29.40    3.40
  -1  -5  -5   24.80    4.00
   1   5   5   25.00    3.70
  -1   5  -5   27.40    3.00
  -1   5  -5   28.00    3.70
   1   5   5   24.70    3.90
  -1   5  -5   19.60    3.20
  -2  -5  -5    6.00    2.30
   2  -5   5    1.20    1.60
  -2  -5  -5    0.30    1.70
   2  -5   5    2.40    1.30
  -2   5  -5    3.80    2.10
   2   5   5    4.00    2.40
  -2   5  -5    5.30    1.90
  -3  -5  -5  204.58   12.60
   3  -5   5  206.38    8.40
   3  -5   5  211.58   12.00
   3   5   5  189.48   11.40
  -3   5  -5  206.98    9.30
   4  -5   5  253.77   10.00
  -4  -5  -5  249.68   15.20
   4  -5   5  260.17   14.70
   4   5   5  265.27   14.90
  -4   5  -5  269.47   11.60
   5  -5   5   88.29    9.20
  -5  -5  -5   71.99    9.10
   5   5   5   90.69    9.30
  -5   5  -5   95.89    7.30
  -6  -5  -5  301.37   18.90
   6  -5   5  310.17   18.70
  -6   5  -5  308.17   14.50
   6   5   5  285.57   18.40
  -7  -5  -5   21.30    7.30
   7  -5   5   29.80    7.50
   7   5   5   14.20    7.10
  -7   5  -5   16.10    4.90
  -8  -5  -5   19.10    7.60
   8  -5   5    9.80    6.20
  -8   5  -5   15.60    6.50
   8   5   5   25.50    9.60
  -9  -5  -5   14.10   11.60
   9  -5   5   14.80    8.90
  -9   5  -5    5.10    7.30
   9   5   5    8.20    7.80
  10  -5   5  119.59   17.40
 -10  -5  -5  114.09   18.20
  10   5   5  125.49   17.70
 -10   5  -5  142.79   14.50
 -11  -5  -5   11.60   12.70
  11  -5   5   -2.40   13.60
  11   5   5   -3.50   12.40
 -12  -6   5   44.90   12.50
  12  -6  -5   42.80   11.80
  12   6  -5   62.39   14.20
  11  -6  -5   25.80    9.50
 -11  -6   5   16.80   10.80
  11   6  -5   21.00    9.30
  10  -6  -5    4.00    5.60
  10  -6  -5    6.00    5.90
 -10  -6   5   11.70    8.00
  10   6  -5    0.90    6.10
   9  -6  -5   38.20    8.80
  -9  -6   5   51.19   10.20
   9  -6  -5   58.39    6.50
   9   6  -5   62.09   11.10
   8  -6  -5   25.50    4.80
  -8  -6   5   24.40    7.70
   8  -6  -5   35.70    7.20
   8   6  -5   32.30    7.20
   7  -6  -5   25.10    5.50
   7  -6  -5   25.10    3.90
  -7  -6   5   45.10    8.00
   7   6  -5   12.30    4.50
   6  -6  -5   22.20    3.50
   6  -6  -5   30.00    5.30
   6  -6  -5   31.30    5.40
  -6  -6   5   22.40    6.00
   6   6  -5   33.70    6.10
   5  -6  -5  182.48    8.00
  -5  -6   5  183.28   13.00
   5  -6  -5  171.28    9.30
   5  -6  -5  156.28    9.60
   5   6  -5  192.48   11.40
  -5   6   5  163.28   12.10
   4  -6  -5   26.20    3.20
   4  -6  -5   33.90    4.20
  -4  -6   5   27.70    5.20
   4   6  -5   34.90    4.80
  -4   6   5   30.20    4.60
  -3  -6   5   40.00    5.30
   3  -6  -5   39.50    4.00
   3  -6  -5   36.60    3.50
   3   6  -5   38.70    4.40
  -3   6   5   33.90    4.20
  -2  -6   5   14.30    3.80
   2  -6  -5    7.60    2.20
  -2   6   5    4.40    1.80
   2   6  -5    6.70    2.60
   1  -6  -5  861.91   24.40
  -1  -6   5  839.02   25.60
  -1   6   5  841.52   23.50
   1   6  -5  863.41   26.10
   0  -6   5    0.80    1.40
   0  -6  -5    0.90    1.70
   0   6  -5    2.40    1.80
   0   6  -5    1.60    1.80
   0   6   5    2.90    1.60
   0   6   5    3.50    1.90
  -1  -6  -5  484.45   18.40
   1   6   5  456.15   17.00
  -1   6  -5  476.25   17.40
   1   6   5  492.55   17.20
  -1   6  -5  500.45   15.00
  -2  -6  -5  104.29    7.30
   2  -6   5  111.59    8.20
  -2  -6  -5  105.19    8.60
  -2   6  -5  126.29    6.40
   2   6   5  126.89    8.70
  -2   6  -5  116.89    6.70
   3  -6   5   20.80    2.80
   3  -6   5   24.50    4.70
  -3  -6  -5   21.90    4.90
   3   6   5   25.90    4.90
  -3   6  -5   22.80    3.20
   4  -6   5  260.57    9.90
  -4  -6  -5  250.27   15.60
   4  -6   5  272.77   15.10
   4   6   5  277.37   15.50
  -4   6  -5  283.07   11.40
   5  -6   5   58.89    4.90
   5  -6   5   58.29    8.10
  -5  -6  -5   50.19    8.10
  -5   6  -5   54.19    5.20
   5   6   5   60.59    8.60
  -6  -6  -5   35.30    8.80
   6  -6   5   19.50    6.00
  -6   6  -5   27.90    5.00
   6   6   5   23.70    6.40
   7  -6   5    2.50    4.80
  -7  -6  -5   14.00    6.40
   7  -6   5    6.90    5.40
   7   6   5    6.30    4.90
  -7   6  -5    6.90    3.90
   8  -6   5    6.70    6.20
  -8  -6  -5    1.70    6.10
  -8   6  -5    9.60    5.00
   8   6   5    4.30    6.80
  -9  -6  -5   23.60    8.90
   9  -6   5   35.10    8.70
   9   6   5   34.40   10.20
  -9   6  -5   32.30    7.70
 -10  -6  -5   41.60   12.80
  10  -6   5    4.00    9.80
  10   6   5   33.20   10.90
 -11  -6  -5   44.40   14.50
  11  -6   5  117.29   20.60
  11   6   5   36.00   13.60
  12  -7  -5   52.69   13.20
 -12  -7   5   16.20   12.20
  12   7  -5   42.40   12.30
 -11  -7   5   -0.10    8.60
  11  -7  -5    7.70    7.90
  11   7  -5    4.20    7.60
  10  -7  -5   71.09    7.40
  10  -7  -5   63.59   11.30
 -10  -7   5   48.50   11.20
  10   7  -5   67.39   13.10
   9  -7  -5    3.40    4.50
  -9  -7   5    7.90    5.90
   9   7  -5   -0.40    5.50
  -8  -7   5  164.68   15.60
   8  -7  -5  142.69   12.20
   8  -7  -5  131.29    7.60
   8  -7  -5  135.99   10.40
   8   7  -5  130.79   13.00
   7  -7  -5  191.48    8.80
  -7  -7   5  186.88   15.40
   7   7  -5  228.58   15.10
   6  -7  -5  185.58    8.30
   6  -7  -5  184.18    9.80
   6  -7  -5  193.68   11.90
  -6  -7   5  197.28   14.70
   6   7  -5  180.28   12.60
   5  -7  -5  124.79    6.50
  -5  -7   5  151.88   12.10
   5  -7  -5  120.89    7.40
   5   7  -5  120.09    9.50
   4  -7  -5   22.30    3.80
  -4  -7   5   33.00    5.90
   4  -7  -5   25.00    3.20
  -4   7   5   23.90    4.70
   4   7  -5   25.60    4.80
   3  -7  -5   51.79    4.30
   3  -7  -5   49.99    4.70
  -3  -7   5   62.49    6.90
   3   7  -5   62.39    5.80
   2  -7  -5  117.49    6.70
  -2  -7   5  119.29    8.70
   2   7  -5  117.19    8.70
   1  -7  -5   33.50    4.30
  -1  -7   5   41.10    4.70
  -1   7   5   33.10    4.00
   1   7  -5   35.70    4.90
   0  -7   5 1910.51   46.70
   0  -7  -5 1923.61   48.20
   0   7   5 1904.21   46.40
   0   7   5 1876.11   46.70
   0   7  -5 1890.41   47.50
   0   7  -5 1872.61   47.80
  -1  -7  -5  317.87   14.70
  -1   7  -5  330.87   11.40
  -1   7  -5  309.47   13.70
   1   7   5  300.07   13.30
  -1   7  -5  296.87   12.30
  -2  -7  -5   25.60    4.90
  -2   7  -5   12.30    2.40
   2   7   5   22.80    4.40
  -2   7  -5   16.80    3.20
  -3  -7  -5    0.30    2.30
   3  -7   5    0.90    2.40
   3   7   5    1.30    2.10
  -3   7  -5   -0.20    1.70
   4  -7   5   15.70    4.50
  -4  -7  -5   -0.30    4.30
  -4   7  -5    3.70    1.80
   4   7   5    0.60    2.80
   5  -7   5   15.00    2.90
  -5  -7  -5   10.70    5.30
   5  -7   5    6.20    4.30
  -5   7  -5   14.20    3.10
   5   7   5   19.20    5.50
   6  -7   5  135.49   12.70
  -6  -7  -5  133.59   13.50
  -6   7  -5  128.99    8.00
   6   7   5  126.09   13.10
   7  -7   5   90.39    9.10
   7  -7   5   81.09   11.50
  -7  -7  -5   90.29   13.00
  -7   7  -5   84.69    7.40
   7   7   5   75.69   11.70
  -8  -7  -5   62.79   13.50
   8  -7   5   46.20   10.90
   8   7   5   28.90    9.60
  -9  -7  -5   11.20    7.70
   9  -7   5    7.00    6.30
  -9   7  -5   -3.10    5.70
   9   7   5    9.50    7.30
 -10  -7  -5   51.59   14.60
  10  -7   5   33.80   11.50
  10   7   5   81.89   16.30
 -11  -8   5   42.70   13.60
  11  -8  -5   24.30    8.90
  11   8  -5   37.60   11.20
  10  -8  -5   28.90    4.80
 -10  -8   5   12.10    9.10
  10  -8  -5   49.10   10.10
  10   8  -5   20.10    9.20
   9  -8  -5   -1.60    3.10
  -9  -8   5    4.30    5.90
   9  -8  -5    8.20    5.10
   9   8  -5   -1.60    5.10
   8  -8  -5   99.49    9.00
  -8  -8   5  110.69   13.30
   8  -8  -5  121.99   11.60
   8  -8  -5  120.79    6.60
   8   8  -5  111.59   12.50
   7  -8  -5    7.30    2.60
   7  -8  -5    8.40    4.20
  -7  -8   5    9.40    5.30
   7   8  -5    4.50    4.40
   6  -8  -5   39.80    5.30
   6  -8  -5   53.69    4.20
  -6  -8   5   32.60    7.60
   5  -8  -5  157.48    7.40
  -5  -8   5  166.18   13.00
   5  -8  -5  168.88    8.40
   5   8  -5  157.38   11.20
  -4  -8   5    0.50    2.80
   4  -8  -5    0.90    1.30
   4  -8  -5    1.10    2.10
   4   8  -5    1.80    2.30
   3  -8  -5   64.19    4.70
  -3  -8   5   61.89    7.20
   3   8  -5   63.19    6.30
  -3   8   5   73.19    6.30
  -3   8   5   56.29    4.40
   2  -8  -5   24.10    3.50
  -2  -8   5   31.50    5.20
  -2   8   5   33.00    3.60
  -1  -8   5   74.09    6.60
   1  -8  -5   66.19    5.80
   1   8  -5   61.59    6.30
   0  -8   5  194.68    9.90
   0  -8  -5  227.58   11.70
   0   8  -5  197.28   11.00
   0   8   5  197.88   10.30
   0   8  -5  200.38   10.20
   0   8   5  206.88   10.40
  -1  -8  -5  681.33   24.30
   1   8   5  685.63   22.90
  -1   8  -5  648.24   20.70
  -1   8  -5  707.43   19.50
  -2  -8  -5   51.49    6.70
  -2   8  -5   52.89    4.70
  -2   8  -5   47.20    4.00
   2   8   5   53.99    6.40
  -3  -8  -5    6.00    3.90
   3  -8   5    9.00    3.70
  -3   8  -5   12.70    2.70
  -3   8  -5   11.90    2.60
   3   8   5    6.20    3.40
   4  -8   5    4.40    3.60
  -4  -8  -5   -0.70    3.00
  -4   8  -5    4.20    2.20
   4   8   5   -0.10    2.90
  -4   8  -5    0.40    2.00
  -5  -8  -5    9.80    4.70
   5  -8   5   14.40    5.50
  -5   8  -5   18.50    3.60
   5   8   5   20.10    5.60
  -5   8  -5   19.10    4.10
  -6  -8  -5    3.70    4.50
   6  -8   5    0.50    3.90
  -6   8  -5   -1.00    2.70
   6   8   5   -1.70    3.60
  -7  -8  -5   25.60    7.40
   7  -8   5   22.10    3.90
   7  -8   5   18.60    6.70
   7   8   5   28.30    8.10
  -7   8  -5   13.30    3.70
  -8  -8  -5    9.10    9.60
   8  -8   5    3.80    5.10
   8   8   5    6.60    6.80
  -8   8  -5    2.60    4.00
  -9  -8  -5   -5.80    8.20
   9  -8   5    1.30    8.00
   9   8   5    7.10    7.50
 -10  -8  -5   -6.50    9.80
  10  -8   5   -4.40    8.70
  10   8   5  -14.10    8.30
 -11  -9   5    6.20    8.90
  11  -9  -5   -2.40    8.10
  11   9  -5   -5.90    8.20
 -10  -9   5   43.60   12.00
  10  -9  -5   44.70   13.60
  10   9  -5   73.49   14.30
   9  -9  -5   50.59   10.00
  -9  -9   5   56.39   12.40
   9  -9  -5   44.00    4.70
   9   9  -5   61.89   12.20
   8  -9  -5    4.00    3.70
  -8  -9   5    3.60    5.00
   8   9  -5    5.50    5.00
   7  -9  -5    4.00    2.90
  -7  -9   5    5.30    4.60
   7  -9  -5    4.70    2.10
   7   9  -5   -0.10    3.90
   6  -9  -5   46.80    4.00
  -6  -9   5   56.79    9.00
   6  -9  -5   43.10    4.70
   6   9  -5   47.20    7.70
   5  -9  -5   71.39    4.90
  -5  -9   5   68.59    9.00
   5  -9  -5   77.39    5.50
   5   9  -5   62.19    7.80
  -4  -9   5  248.18   15.50
   4  -9  -5  269.17   10.50
   4  -9  -5  222.88   10.00
   4   9  -5  291.37   14.80
  -3  -9   5    9.40    4.00
   3  -9  -5    9.00    2.40
  -3   9   5   11.80    2.50
   3   9  -5   17.40    4.10
  -2  -9   5  159.58   10.90
   2  -9  -5  183.48    9.20
  -2   9   5  172.88    8.40
   1  -9  -5   18.90    3.50
  -1  -9   5   24.30    4.40
   1   9  -5   10.00    3.70
  -1   9   5   25.20    4.40
   0  -9   5   39.40    4.70
   0  -9  -5   43.70    5.60
   0   9   5   41.30    5.10
   0   9  -5   44.00    6.10
  -1  -9  -5    9.70    3.60
  -1   9  -5    9.00    2.80
   1   9   5    6.40    3.00
  -1   9  -5    6.10    1.90
  -2  -9  -5  625.64   25.00
  -2   9  -5  623.14   17.80
  -2   9  -5  601.24   18.80
   2   9   5  640.74   23.90
  -3  -9  -5  102.09    9.90
  -3   9  -5   99.99    6.00
   3   9   5  102.19    9.70
  -3   9  -5  105.79    5.60
   4  -9   5  223.78   14.70
  -4  -9  -5  206.88   15.10
  -4   9  -5  213.18    8.20
   4   9   5  196.28   14.10
  -4   9  -5  198.78    8.20
  -5  -9  -5   12.10    5.80
   5  -9   5   16.30    5.50
  -5   9  -5   11.70    2.50
   5   9   5   16.00    5.70
  -5   9  -5   15.70    2.90
   6  -9   5  126.49   12.70
  -6  -9  -5  144.09   15.00
   6   9   5  156.38   14.50
  -6   9  -5  132.09    6.00
  -7  -9  -5   22.20    7.40
   7  -9   5   38.90    9.40
  -7   9  -5   19.90    3.20
   7   9   5   24.10    8.40
   8  -9   5    2.90    5.20
  -8  -9  -5   -0.80    7.10
   8   9   5   -5.40    6.30
   9  -9   5    5.00    8.20
  -9  -9  -5    0.20    7.50
   9   9   5   -8.30    7.70
  10  -9   5   -5.70    8.60
 -10  -9  -5   11.90   11.40
  10   9   5    4.20   10.20
 -11 -10   5   53.59   14.50
  11  10  -5   31.50   12.20
 -10 -10   5   -7.30    7.40
  10  10  -5   13.00    9.00
  -9 -10   5  102.49   14.50
   9  10  -5  111.09   14.60
  -8 -10   5    2.60    5.40
   8  10  -5   12.00    6.40
  -7 -10   5   36.90    8.50
   7  10  -5   24.50    6.50
   6 -10  -5   10.50    1.90
  -6 -10   5   12.50    6.10
   6  10  -5    8.20    4.10
   5 -10  -5  451.25   13.60
  -5 -10   5  466.45   23.40
   5 -10  -5  444.16   14.10
   5  10  -5  460.35   21.40
  -4 -10   5    5.50    3.80
   4 -10  -5    1.50    2.40
   4  10  -5   -4.80    2.10
  -3 -10   5    0.00    2.30
   3 -10  -5    2.30    1.90
   3  10  -5    0.90    2.30
  -3  10   5    1.40    2.00
  -2 -10   5   55.39    6.80
   2 -10  -5   72.39    6.10
  -1 -10   5   27.60    4.90
   1 -10  -5   19.00    3.80
  -1  10   5   24.60    4.70
   0 -10   5   90.09    7.10
   0 -10  -5   98.89    8.30
   0  10   5   81.89    7.30
   0  10  -5   84.89    7.40
  -1 -10  -5  886.81   30.50
  -1  10  -5  926.41   24.50
   1  10   5  877.01   29.50
  -1  10  -5  876.41   26.30
  -2 -10  -5   41.10    6.70
  -2  10  -5   38.50    4.50
  -2  10  -5   37.90    3.70
   2  10   5   28.30    5.50
  -3 -10  -5   85.89    9.80
  -3  10  -5   78.99    5.30
  -3  10  -5   89.09    5.00
   3  10   5   99.39   11.70
  -4 -10  -5  115.39   12.10
  -4  10  -5  122.19    5.20
   4  10   5  125.99   11.80
  -4  10  -5  120.59    5.40
   5 -10   5  205.78   15.40
  -5 -10  -5  211.08   17.00
   5  10   5  193.18   15.60
   6 -10   5   22.80    6.00
  -6 -10  -5   28.00    8.00
   6  10   5   44.50   10.70
   7 -10   5  344.27   22.50
  -7 -10  -5  363.76   25.20
   7  10   5  332.27   22.90
   8 -10   5    0.60    5.70
  -8 -10  -5   -9.90    6.60
   8  10   5    4.20    7.10
   9 -10   5   30.50   10.50
  -9 -10  -5   24.30   10.40
   9  10   5   16.70   10.20
 -10 -10  -5   16.50   11.40
  10 -10   5    5.40   16.00
  10  10   5   10.60   15.30
 -11 -11   5    6.00   13.90
  11  11  -5    3.20    9.50
 -10 -11   5   71.19   15.10
  10  11  -5   58.19   12.90
  -9 -11   5   10.40    8.30
   9  11  -5    8.40    7.90
  -8 -11   5   10.40    7.30
   8  11  -5    5.90    5.60
  -7 -11   5  220.68   18.50
   7  11  -5  205.28   16.60
  -6 -11   5  237.18   18.10
   6  11  -5  263.37   17.30
   5 -11  -5   37.10    4.10
  -5 -11   5   36.60    7.60
   5 -11  -5   34.60    3.30
   5  11  -5   42.50    7.50
   4 -11  -5   75.49    5.60
  -4 -11   5   80.39    9.40
   4  11  -5   90.89    9.30
  -3 -11   5    1.40    2.70
   3 -11  -5    3.20    2.00
   3  11  -5    0.00    2.50
  -2 -11   5    1.60    2.70
   2 -11  -5   -2.90    1.70
   1 -11  -5  283.37   14.00
  -1 -11   5  290.47   14.40
   0 -11   5  222.58   11.50
   0 -11  -5  227.98   13.30
   0  11   5  237.48   13.20
   0  11  -5  221.58   12.10
  -1 -11  -5  331.67   17.40
  -1  11  -5  325.27   12.30
   1  11   5  334.07   16.60
  -2 -11  -5  248.18   15.50
  -2  11  -5  227.18    9.10
   2  11   5  221.28   14.20
  -2  11  -5  245.58   10.60
  -3 -11  -5   93.19   10.60
  -3  11  -5   98.69    5.70
   3  11   5   95.79    9.80
  -3  11  -5   92.99    5.00
  -4 -11  -5   78.59   10.90
   4  11   5   75.89    9.90
  -5 -11  -5   63.29   11.20
   5  11   5   60.99    9.90
  -6 -11  -5  162.58   17.00
   6  11   5  205.78   17.60
   7 -11   5   93.39   15.10
  -7 -11  -5  121.99   18.60
  -8 -11  -5    8.00    8.10
   8 -11   5   -2.10    5.80
   8  11   5   -1.60    8.00
  -9 -11  -5   17.90    9.40
   9 -11   5    4.60    8.50
   9  11   5   -3.50    8.90
 -10 -11  -5   -5.20   13.00
  10 -11   5    7.70   11.00
  10  11   5  -17.30    9.30
 -11 -12   5   54.69   13.50
  11  12  -5   50.09   12.00
 -10 -12   5   26.40   11.00
  10  12  -5    3.90    8.50
  -9 -12   5   10.80    8.10
   9  12  -5    1.00    7.10
  -8 -12   5    1.30    5.10
   8  12  -5    7.90    6.20
  -7 -12   5    4.70    6.30
   7  12  -5    1.00    5.70
  -6 -12   5   51.09   10.20
   6  12  -5   45.40    9.40
   5 -12  -5  587.14   14.70
  -5 -12   5  550.04   27.70
   5  12  -5  604.24   26.70
   4 -12  -5    3.00    2.80
  -4 -12   5    1.60    3.90
   4 -12  -5    6.10    2.80
   4  12  -5    2.10    3.30
   3 -12  -5    3.50    2.80
   3  12  -5    4.40    3.30
  -2 -12   5  164.88   11.80
   2 -12  -5  186.48   10.50
  -1 -12   5   24.20    5.40
   1 -12  -5   36.10    5.60
   0 -12   5    2.70    2.40
   0 -12  -5    1.30    2.50
   0  12   5    0.50    2.60
  -1 -12  -5    3.70    3.10
   1  12   5    5.00    3.00
  -1  12  -5    4.50    2.30
  -2 -12  -5  183.78   13.90
   2  12   5  199.18   14.00
  -2  12  -5  170.08    9.00
  -2  12  -5  183.18    8.00
  -3 -12  -5   69.29   10.10
   3  12   5   62.69    9.10
  -3  12  -5   71.99    4.20
  -3  12  -5   61.59    4.40
  -4 -12  -5   13.70    6.00
   4  12   5   18.30    6.30
  -5 -12  -5  641.74   31.80
   5  12   5  596.94   29.40
  -6 -12  -5    2.00    6.60
   6  12   5    2.60    4.30
  -7 -12  -5   10.10    8.10
   7  12   5    5.80    7.10
  -8 -12  -5   29.20   11.10
   8  12   5   25.60   10.10
  -9 -12  -5   -1.40    8.60
   9  12   5   -0.20   10.40
 -10 -13   5   67.69   15.20
  10  13  -5   55.69   13.60
  -9 -13   5   -8.30    6.90
   9  13  -5    5.00    7.00
  -8 -13   5   14.30    8.50
   8  13  -5   13.70   11.00
  -7 -13   5   27.50    8.20
   7  13  -5    3.70    6.10
  -6 -13   5  220.88   18.30
   6  13  -5  209.08   16.60
  -5 -13   5   30.10    8.20
   5  13  -5   34.50    8.20
   4 -13  -5  254.27   10.20
  -4 -13   5  257.97   17.50
   4  13  -5  234.78   16.20
  -3 -13   5  373.86   20.10
   3 -13  -5  372.86   14.80
   3  13  -5  397.06   20.00
   2 -13  -5   14.90    4.20
  -2 -13   5   10.20    3.60
  -1 -13   5   -0.70    3.10
   1 -13  -5   -0.40    2.50
   0 -13  -5  109.49    9.70
   0 -13   5   91.39    8.00
   0  13   5   87.19    9.30
  -1 -13  -5    4.50    3.90
  -1  13  -5    2.30    2.00
   1  13   5   -1.00    2.90
  -2 -13  -5  287.87   17.90
   2  13   5  257.47   16.40
  -2  13  -5  246.88    9.70
  -3 -13  -5  171.38   14.80
   3  13   5  156.88   13.80
  -3  13  -5  149.19    5.90
  -3  13  -5  149.39    5.50
  -4 -13  -5   76.69   11.40
   4  13   5   85.19   11.20
  -5 -13  -5   -8.40    5.00
   5  13   5    1.50    4.50
  -6 -13  -5  196.48   27.00
   6  13   5  174.28   18.10
  -7 -13  -5   23.60    9.70
   7  13   5   34.30    8.90
  -8 -13  -5    5.70    9.70
   8  13   5   12.40    8.70
  -9 -13  -5   32.40   13.70
   9  13   5   20.20   11.60
  10  14  -5    4.50   10.60
  -9 -14   5  168.88   20.20
   9  14  -5  137.39   18.30
  -8 -14   5   40.90   11.80
   8  14  -5   34.30    8.50
  -7 -14   5   41.80   11.40
   7  14  -5   21.70    7.60
  -6 -14   5    9.60    6.00
   6  14  -5    2.00    4.60
  -5 -14   5   89.29   12.00
   5  14  -5  111.29   11.90
   4 -14  -5   63.79    6.40
   4 -14  -5   78.09    5.50
  -4 -14   5   67.69    9.50
   4  14  -5   60.09    9.40
  -3 -14   5   22.90    5.90
   3 -14  -5   28.20    5.10
   3  14  -5   33.20    7.30
   2 -14  -5  228.78   12.70
  -1 -14   5    2.80    3.40
   1 -14  -5    2.60    3.10
   0 -14  -5    1.60    3.00
   0 -14   5   -2.80    2.90
   0  14   5    2.70    3.10
  -1 -14  -5  100.49   10.90
  -1  14  -5  102.19    6.90
   1  14   5   91.19   10.10
  -2 -14  -5  146.39   13.70
   2  14   5  157.98   13.30
  -2  14  -5  156.98    7.40
  -3 -14  -5    4.90    4.30
   3  14   5    7.30    4.70
  -4 -14  -5   17.30    6.50
   4  14   5   29.70    8.40
  -5 -14  -5  105.39   14.00
   5  14   5   85.99   12.90
  -6 -14  -5    5.70    6.30
   6  14   5   17.20    8.20
  -7 -14  -5  123.29   18.30
   7  14   5   85.49   15.40
  -8 -14  -5   43.30   12.30
   8  14   5   53.99   14.40
  -9 -14  -5   75.19   18.20
   9  14   5   91.89   19.30
  -9 -15   5   21.10    9.30
   9  15  -5    6.50    8.90
  -8 -15   5    1.00    7.00
   8  15  -5    9.20    8.00
  -7 -15   5   84.59   13.70
   7  15  -5   73.99   13.80
  -6 -15   5   27.50    8.10
   6  15  -5   34.60    9.00
  -5 -15   5    1.00    5.30
   5  15  -5    4.20    4.90
   4 -15  -5  342.07   11.70
  -4 -15   5  396.56   22.70
   4  15  -5  397.06   22.30
  -3 -15   5   20.80    5.90
   3 -15  -5   19.00    4.50
   3  15  -5   19.60    6.30
  -2 -15   5   20.60    5.80
   2 -15  -5   31.20    6.00
  -1 -15   5  104.59    9.90
   1 -15  -5  103.29    9.90
   0 -15   5   10.20    4.50
   0 -15  -5    9.50    4.30
   0  15   5   18.10    4.90
  -1 -15  -5   19.00    5.90
   1  15   5   27.00    7.60
  -1  15  -5   17.20    3.70
  -2 -15  -5  155.48   14.30
   2  15   5  166.38   14.30
  -2  15  -5  141.79    7.20
  -3 -15  -5   23.80    7.60
   3  15   5   24.40    6.90
  -4 -15  -5   99.19   13.70
   4  15   5   97.89   12.00
  -5 -15  -5   10.20    8.20
  -6 -15  -5  130.89   16.80
   6  15   5  165.58   16.90
  -7 -15  -5   -2.20    8.50
   7  15   5  -15.70    6.80
  -8 -15  -5   20.80   10.60
   8  15   5   -0.50    9.20
  -9 -16   5   70.39   18.60
   9  16  -5   47.90   12.80
  -8 -16   5   17.20   10.10
   8  16  -5   14.90    8.90
  -7 -16   5    0.10    7.30
   7  16  -5    2.90    7.00
  -6 -16   5   71.79   12.90
   6  16  -5   84.09   13.80
  -5 -16   5  153.68   16.20
   5  16  -5  173.78   16.20
   4 -16  -5    3.60    2.40
  -4 -16   5   -1.40    4.40
   4 -16  -5    2.40    2.80
   4  16  -5   -4.40    3.80
   3 -16  -5    0.50    3.10
  -3 -16   5    3.40    4.60
   3  16  -5    1.20    4.30
  -2 -16   5   96.79   10.30
   2 -16  -5   83.69    8.90
   1 -16  -5  130.49   11.60
  -1 -16   5  121.79   10.80
   0 -16  -5    3.00    4.50
   0 -16   5    2.50    3.90
   0  16   5   -5.50    3.50
  -1 -16  -5  182.68   15.20
  -1  16  -5  180.38    9.60
   1  16   5  212.28   16.30
  -2 -16  -5   -8.00    4.20
  -2  16  -5    3.40    2.20
   2  16   5  -10.50    3.50
  -3 -16  -5   12.50    6.70
   3  16   5   11.70    6.60
  -4 -16  -5  118.69   14.90
   4  16   5  102.39   13.30
  -5 -16  -5  143.99   18.40
   5  16   5  164.58   17.60
  -6 -16  -5   48.10   11.50
   6  16   5   29.20   11.00
  -7 -16  -5   29.70   11.40
   7  16   5    4.70    8.70
  -8 -16  -5   14.20   11.80
   8  16   5   58.89   17.10
  -8 -17   5   -3.60    7.60
   8  17  -5   -3.20    8.80
  -7 -17   5   50.39   14.20
   7  17  -5   57.29   11.40
  -6 -17   5  264.37   21.90
   6  17  -5  229.38   20.20
  -5 -17   5   -0.50    5.20
   5  17  -5    7.40    6.30
  -4 -17   5   -1.20    5.50
   4  17  -5   -4.20    4.80
  -3 -17   5  138.39   13.60
   3 -17  -5  130.89    9.80
   3  17  -5  118.69   13.30
  -2 -17   5   18.00    6.20
   2 -17  -5   27.80    5.90
   1 -17  -5   60.09    9.00
  -1 -17   5   56.29    9.10
   0 -17  -5  581.04   26.60
   0 -17   5  543.75   22.40
   0  17   5  604.74   27.50
  -1 -17  -5   10.50    5.60
  -1  17  -5   10.40    3.40
   1  17   5   14.50    5.90
  -2 -17  -5   24.80    8.00
  -2  17  -5   24.50    4.10
   2  17   5   28.90    7.70
  -3 -17  -5   63.19   11.90
   3  17   5   57.09   11.60
   4  17   5   26.70    9.60
  -5 -17  -5    4.00    6.90
   5  17   5    1.60    7.50
  -6 -17  -5   25.80   10.80
   6  17   5   11.20    8.50
  -7 -17  -5   28.60   12.00
   7  17   5    1.90    9.90
  -8 -18   5   45.10   13.80
   8  18  -5   41.20   13.90
  -7 -18   5    4.40    8.60
   7  18  -5    7.20    8.50
  -6 -18   5    4.10    7.10
   6  18  -5   10.40    6.80
  -5 -18   5  112.99   15.40
   5  18  -5  129.69   15.90
  -4 -18   5   -2.30    6.00
   4  18  -5    1.40    5.50
   3 -18  -5   -1.80    4.40
  -3 -18   5    3.30    5.80
   3  18  -5    2.10    9.00
  -2 -18   5   16.40    7.00
   2 -18  -5   30.80    6.20
   2  18  -5   47.40    9.00
  -1 -18   5   94.79   11.30
  -1  18   5   74.59   10.80
   0 -18  -5    0.40    5.10
   0 -18   5    3.20    4.40
   0  18   5    4.10    4.90
  -1 -18  -5  136.29   15.20
  -1  18  -5  144.89    9.10
   1  18   5  181.88   15.70
  -2 -18  -5   71.79   12.50
   2  18   5   76.59   13.20
  -3 -18  -5    7.00    6.80
   3  18   5   -8.20    5.20
  -4 -18  -5    9.70    7.50
   4  18   5   -0.40    6.20
  -5 -18  -5    6.70    8.00
   5  18   5   15.70    8.80
  -6 -18  -5    8.20    8.70
   6  18   5   12.00    9.30
  -7 -18  -5   16.70   14.10
   7  18   5    8.30   10.50
  -7 -19   5   52.49   13.10
   7  19  -5   35.00   10.30
  -6 -19   5   10.00    8.30
   6  19  -5   33.80   10.30
  -5 -19   5   -4.30    7.00
   5  19  -5   -2.30    6.90
  -4 -19   5  184.88   20.80
   4  19  -5  176.08   17.80
   3 -19  -5  205.48   11.80
  -3 -19   5  218.58   18.90
   3  19  -5  253.77   20.30
  -2 -19   5   62.39   11.30
   2 -19  -5   62.09   12.10
   2  19  -5   45.30   10.10
  -1 -19   5   29.70    7.30
   0 -19  -5   16.50    6.90
  -1 -19  -5    3.00    6.10
   1  19   5   -0.70    5.50
  -1  19  -5   -6.10    3.20
  -2 -19  -5  204.48   18.20
   2  19   5  171.78   17.80
  -3 -19  -5   82.39   14.70
   3  19   5   70.09   12.70
  -4 -19  -5   51.09   11.30
   4  19   5   61.49   13.00
  -5 -19  -5   21.20   10.40
   5  19   5   -2.90    8.70
  -6 -19  -5   16.30   13.30
   6  19   5    0.70    9.40
  -6 -20   5   25.30   11.30
   6  20  -5   31.20   10.80
  -5 -20   5    1.30    7.70
   5  20  -5    9.00    9.20
  -4 -20   5   17.00    9.10
   4  20  -5   21.40   10.00
  -3 -20   5   13.90    8.70
   3  20  -5   17.00    9.40
  -2 -20   5   33.50    8.80
   2 -20  -5   26.80    8.00
   2  20  -5   25.70    7.70
  -1 -20   5   22.70    8.30
  -1  20   5   14.20    8.20
   0 -20  -5    7.90    8.10
  -1 -20  -5   88.39   15.10
  -1  20  -5   82.29    7.70
  -2 -20  -5   -7.70    7.80
   2  20   5    0.80    7.00
  -3 -20  -5   45.50   11.60
   3  20   5   43.60   12.50
  -4 -20  -5  149.39   19.80
   4  20   5  132.99   19.30
  -5 -20  -5   10.20   11.10
   5  20   5    8.70   11.00
  -6 -21   5   11.90   11.10
   6  21  -5    0.20   10.20
  -5 -21   5   56.19   14.20
   5  21  -5   44.80   12.90
  -4 -21   5    9.90    9.10
   4  21  -5    5.30    8.30
  -3 -21   5    8.30   10.70
   3  21  -5    8.80    8.00
   2  21  -5   -3.10    6.60
   1 -21  -5    9.00   12.40
  -1  21   5   19.80    8.20
  -1 -21  -5    3.10    8.10
  -2 -21  -5    0.30    8.60
   2  21   5  -12.40    7.70
  -3 -21  -5   75.59   14.80
   3  21   5   67.89   14.60
  -4 -21  -5   19.20   12.00
   4  21   5    8.90   10.70
  -4 -22   5   11.10   10.30
   4  22  -5   16.40    9.70
   3  22  -5   24.90   10.90
  -2  22   5   49.10   13.30
   2  22  -5   19.00    9.20
  -1 -22   5   40.30   10.10
   1 -22  -5   44.60   17.20
  -1  22   5   29.40   10.90
   0 -22  -5    3.00    9.10
   0  22   5    2.60    8.70
   1  22   5   -1.30    8.30
  -2 -22  -5   -0.10   11.00
   2  22   5    4.30   10.50
  -3 -22  -5   27.20   12.30
   3  22   5   21.30   12.00
   3  23  -5   75.99   15.50
  -2 -23   5    5.60   10.50
  -2  23   5   -2.60    8.90
   2  23  -5   -8.20   12.70
  -1 -23   5    8.60   12.00
   1  23  -5    2.90   10.30
  -1  23   5    2.50    9.40
   0 -23  -5   37.30   12.80
   0  23   5   51.39   13.70
  -1 -23  -5   15.10   14.90
   1  23   5   28.30   11.20
   2  23   5    5.00    9.90
  12   0  -6   33.60   10.30
 -11   0   6  -10.80    7.00
  11   0  -6   -1.70    6.90
 -10   0   6  380.36   22.60
  10   0  -6  323.97   20.40
  -9   0   6   -2.00    4.60
   9   0  -6    1.00    4.70
  -8   0   6  233.88   15.80
   8   0  -6  224.78   14.60
   7   0  -6    1.40    3.10
  -7   0   6   -0.50    3.00
   6   0  -6   37.10    5.20
  -6   0   6   36.30    5.40
  -6   0   6   31.60    6.10
   5   0  -6    1.30    1.80
  -5   0   6   -1.40    1.80
  -5   0   6   -1.90    2.00
   4   0  -6 3633.24   78.19
   4   0  -6 3529.75   84.19
  -4   0   6 3635.44   77.79
  -4   0   6 3616.54   83.99
   3   0  -6    0.80    0.90
  -3   0   6   -1.10    1.30
  -3   0   6   -0.40    0.70
   3   0  -6    3.40    2.30
   2   0  -6  382.76   13.50
   2   0  -6  401.06   15.00
  -1   0   6    1.10    1.30
   1   0  -6    1.30    0.50
   1   0  -6    0.20    1.10
   0   0  -6  530.45   14.30
   0   0   6  531.85   14.40
   0   0   6  535.85   16.60
   0   0  -6  533.05   17.00
  -1   0  -6   -1.50    1.00
  -1   0  -6    0.50    1.40
   1   0   6    0.80    1.20
   2   0   6   23.80    3.40
   2   0   6   20.30    3.60
  -2   0  -6   30.90    4.10
  -2   0  -6   23.00    3.90
  -3   0  -6   -0.80    1.60
   3   0   6   -2.00    1.50
  -3   0  -6   -0.20    2.20
   4   0   6   81.09    7.90
  -4   0  -6   64.79    6.80
  -5   0  -6   -1.10    2.90
   5   0   6   -2.80    2.50
   6   0   6   59.89    9.00
  -6   0  -6   68.79    8.80
   7   0   6   -0.90    4.90
  -7   0  -6   -1.50    4.00
   8   0   6    1.30    5.10
  -8   0  -6    0.40    5.30
  -9   0  -6    1.30    7.30
   9   0   6    6.60    6.90
  10   0   6   55.99   13.70
 -10   0  -6   72.79   14.30
  11   0   6    7.40   12.20
  12  -1  -6   -2.40    8.10
 -12  -1   6   -4.30    8.80
  12   1  -6    0.00    8.20
  11  -1  -6   18.30    8.20
 -11  -1   6   11.80    8.10
 -11   1   6   -4.10    6.80
  11   1  -6   15.80    7.00
 -10  -1   6   15.00    7.20
  10  -1  -6    3.80    5.00
 -10   1   6    9.40    5.90
  10   1  -6    8.20    6.20
  -9  -1   6  446.06   24.20
   9  -1  -6  450.65   22.50
  -9   1   6  441.76   22.70
   9   1  -6  404.36   22.10
   8  -1  -6   61.99    8.40
  -8  -1   6   83.19   10.10
  -8   1   6   64.99    9.40
   8   1  -6   81.09   11.30
   7  -1  -6  292.97   15.20
  -7  -1   6  285.37   16.90
   7   1  -6  330.67   16.00
  -7   1   6  304.27   16.50
   6  -1  -6   55.79    6.00
  -6  -1   6   64.89    7.70
  -6  -1   6   55.99    6.20
   6   1  -6   64.29    6.30
  -6   1   6   52.29    6.20
  -6   1   6   54.09    6.60
   5  -1  -6  633.84   19.80
  -5  -1   6  648.84   23.90
  -5  -1   6  611.04   19.40
  -5   1   6  616.64   22.50
   5   1  -6  665.83   20.50
  -5   1   6  626.34   19.60
   4  -1  -6   22.90    4.90
   4  -1  -6   18.20    2.70
  -4  -1   6   26.50    4.30
  -4  -1   6   27.40    2.90
  -4   1   6   22.10    4.10
   4   1  -6   24.20    3.00
   4   1  -6   33.30    5.10
  -4   1   6   19.80    2.70
   3  -1  -6  103.59    6.50
   3  -1  -6  109.59    4.30
   3  -1  -6   95.69    9.00
  -3  -1   6  102.89    7.50
   3   1  -6   96.29    7.50
  -3   1   6  114.59    4.40
   3   1  -6  113.39    4.90
   2  -1  -6   69.49    5.80
   2  -1  -6   71.89    5.20
   2   1  -6   79.99    5.50
   2   1  -6   74.99    2.90
   2   1  -6   75.69    6.40
   1  -1  -6    0.80    1.40
   1   1  -6    1.60    0.80
  -1   1   6    2.80    1.70
   1   1  -6   -0.60    1.30
   1   1  -6    1.90    1.30
  -1   1   6    1.60    0.50
   0  -1  -6  154.08    6.10
   0  -1   6  157.58    7.60
   0  -1   6  149.79    6.30
   0  -1  -6  156.08    8.00
   0   1  -6  160.78    6.50
   0   1   6  155.18    7.70
   0   1   6  154.98    6.20
   0   1  -6  161.98    7.90
   1  -1   6 1212.28   31.70
  -1  -1  -6 1291.37   31.50
   1  -1   6 1270.87   32.20
  -1  -1  -6 1270.57   33.60
   1   1   6 1225.18   34.70
  -1   1  -6 1252.67   31.70
  -1   1  -6 1267.07   32.80
  -2  -1  -6  196.38   10.60
  -2  -1  -6  188.88    9.70
   2  -1   6  211.58    9.60
   2  -1   6  203.78   10.30
  -2   1  -6  203.38   10.20
   2   1   6  201.88   10.00
  -2   1  -6  212.18   10.20
   2   1   6  222.78   10.70
  -3  -1  -6  424.56   17.10
  -3  -1  -6  424.76   17.70
   3  -1   6  457.75   18.00
   3   1   6  459.95   18.10
  -3   1  -6  411.86   18.70
  -3   1  -6  440.86   17.10
   4  -1   6   19.70    4.60
  -4  -1  -6   24.30    5.30
   4   1   6   28.20    5.10
  -4   1  -6   19.10    4.30
   5  -1   6   56.49    9.70
  -5  -1  -6   53.39    7.60
  -5   1  -6   80.29    8.20
   5   1   6   67.19    9.50
   6  -1   6    6.50    4.20
  -6  -1  -6    3.70    3.90
   6   1   6   11.80    5.30
  -6   1  -6    9.20    5.00
   7  -1   6  116.39   12.80
  -7  -1  -6  136.49   13.10
   7   1   6  135.09   14.00
  -7   1  -6  118.09   11.80
  -8  -1  -6   13.60    7.40
   8  -1   6    7.70    5.20
   8   1   6   15.00    6.60
  -8   1  -6    8.80    6.50
  -9  -1  -6   13.10    8.40
   9  -1   6   21.60    8.20
  -9   1  -6    2.30    7.20
   9   1   6   31.90   10.50
  10  -1   6    1.80    7.00
 -10  -1  -6    2.10    9.10
 -10   1  -6   16.00   10.30
  10   1   6    9.90    8.70
  11  -1   6   10.00   13.90
  11   1   6   -7.10   11.10
 -11   1  -6   15.80   12.20
 -12  -2   6   14.00   10.00
  12  -2  -6    1.40    8.90
  12   2  -6    0.90    8.30
 -11  -2   6   43.50   15.30
  11  -2  -6   38.00    9.80
  11   2  -6   56.19   13.50
 -11   2   6   48.00   10.50
  10  -2  -6   27.10    7.80
 -10  -2   6   30.60    7.80
 -10   2   6   25.20    7.60
  10   2  -6   16.60    6.90
   9  -2  -6   23.70    6.70
  -9  -2   6   42.00    9.10
  -9   2   6   50.59    8.40
   9   2  -6   34.20    8.30
   8  -2  -6  321.87   17.70
  -8  -2   6  291.27   18.80
   8   2  -6  342.47   21.60
  -8   2   6  351.46   18.30
  -7  -2   6   22.90    6.00
   7  -2  -6   29.50    5.90
  -7   2   6   35.40    6.30
   7   2  -6   19.90    5.20
   6  -2  -6   14.20    4.00
  -6  -2   6   17.70    4.00
  -6  -2   6   22.80    5.80
  -6   2   6   18.00    4.10
   6   2  -6   18.00    4.00
  -6   2   6   14.30    4.00
   5  -2  -6    1.80    1.90
  -5  -2   6    3.30    2.30
  -5  -2   6    6.30    3.20
   5   2  -6    7.40    2.50
  -5   2   6    5.50    2.50
  -5   2   6    2.90    2.20
   4  -2  -6 1213.38   32.00
  -4  -2   6 1222.88   36.00
  -4  -2   6 1193.68   29.90
   4  -2  -6 1191.48   29.70
  -4   2   6 1212.58   29.90
  -4   2   6 1190.68   33.70
   4   2  -6 1262.07   31.90
   3  -2  -6  898.91   21.20
  -3  -2   6  914.31   28.00
   3  -2  -6  884.21   24.80
   3  -2  -6  890.51   26.80
   3   2  -6  897.11   22.50
   3   2  -6  894.31   28.10
  -3   2   6  932.01   21.50
   2  -2  -6  199.78    8.80
   2  -2  -6  199.58    9.70
  -2  -2   6  177.68    9.80
   2   2  -6  182.08    6.20
   2   2  -6  178.68   10.90
   1  -2  -6    1.00    1.20
   1   2  -6    1.20    1.20
   1   2  -6    1.70    1.70
  -1   2   6    0.90    0.70
   1   2  -6    1.80    0.80
   0  -2   6   91.79    5.60
   0  -2  -6  103.99    6.60
   0  -2  -6   95.09    4.60
   0  -2   6   94.59    5.00
   0   2   6   96.69    6.10
   0   2   6   90.59    4.80
   0   2  -6  102.99    5.30
   0   2  -6   87.09    5.70
   1  -2   6  536.25   16.60
  -1  -2  -6  513.25   17.90
  -1  -2  -6  507.15   15.90
   1  -2   6  513.45   16.20
  -1   2  -6  518.25   16.70
  -1   2  -6  496.55   16.20
   1   2   6  493.45   16.80
   1   2   6  533.85   16.80
  -2  -2  -6 1419.36   39.00
   2  -2   6 1340.27   36.90
  -2  -2  -6 1370.66   37.80
   2  -2   6 1352.56   36.50
   2   2   6 1389.06   36.70
  -2   2  -6 1332.07   36.40
  -2   2  -6 1391.46   35.80
   2   2   6 1346.17   36.20
   3  -2   6   97.79    7.80
  -3  -2  -6   93.19    9.30
  -3  -2  -6   98.79    8.40
  -3   2  -6  101.09    7.40
   3   2   6   97.29    8.00
  -4  -2  -6  192.98   12.40
   4  -2   6  197.68   12.40
   4  -2   6  188.78   11.70
   4   2   6  198.28   12.60
  -4   2  -6  186.28   11.00
   5  -2   6  163.38   16.70
  -5  -2  -6  143.79   12.00
  -5   2  -6  145.49   10.60
  -6  -2  -6   52.69    8.80
   6  -2   6   63.59    9.10
   6   2   6   75.69   10.10
  -6   2  -6   63.19    8.20
   7  -2   6    1.70    4.30
  -7  -2  -6    3.50    5.10
   7   2   6    5.00    5.30
   8  -2   6  324.67   21.80
  -8  -2  -6  311.27   21.80
  -8   2  -6  347.37   20.70
   8   2   6  331.17   22.60
  -9  -2  -6   16.70    9.00
   9  -2   6   36.20    9.20
  -9   2  -6   29.10    8.70
   9   2   6   19.50    9.10
 -10  -2  -6   62.69   14.00
  10  -2   6   39.90   11.10
  10   2   6   51.39   11.80
  11  -2   6   22.70   13.00
 -11  -2  -6   -6.60   12.00
 -11   2  -6    7.00   12.10
  11   2   6   18.00   12.10
  12  -3  -6   19.20   10.00
 -12  -3   6   -5.10    9.50
  12   3  -6   -5.20    7.60
 -12   3   6    6.10    9.60
 -11  -3   6   11.20    8.20
  11  -3  -6    5.10    6.80
 -11   3   6    2.50    7.20
  11   3  -6    3.80   11.30
  10  -3  -6   76.69   11.90
 -10  -3   6   83.79   13.80
  10   3  -6  104.89   12.90
 -10   3   6  129.79   13.30
  -9  -3   6  195.88   16.60
   9  -3  -6  171.88   14.10
  -9   3   6  173.68   13.50
   9   3  -6  205.78   15.50
  -8  -3   6   60.69    9.40
   8  -3  -6   62.19   13.50
  -8   3   6   67.09    8.70
   8   3  -6   58.69    8.80
   7  -3  -6   20.60    5.00
  -7  -3   6   23.30    6.50
   7   3  -6   21.20    5.50
  -7   3   6   26.10    5.90
   6  -3  -6   43.40    5.50
  -6  -3   6   47.30    7.20
  -6   3   6   38.10    5.60
  -6   3   6   40.30    6.00
   6   3  -6   52.19    6.10
  -5  -3   6  110.69    9.40
   5  -3  -6  111.89    7.00
   5  -3  -6  122.49    8.90
  -5  -3   6  117.39    7.40
   5  -3  -6  121.29    7.40
  -5   3   6  111.79    7.30
   5   3  -6  119.39    7.90
  -5   3   6  102.39    7.70
   4  -3  -6    8.50    2.20
   4  -3  -6    6.70    2.40
  -4  -3   6   12.30    4.00
   4   3  -6   14.40    3.30
  -4   3   6   11.10    2.60
   3  -3  -6  488.55   15.80
   3  -3  -6  465.45   16.90
  -3  -3   6  484.45   18.70
   3   3  -6  472.15   14.30
  -3   3   6  458.85   13.20
   3   3  -6  479.85   18.80
   2  -3  -6  191.78    8.70
  -2  -3   6  195.08   10.30
  -2   3   6  178.68    8.40
   2   3  -6  197.98   10.50
  -2   3   6  183.78    6.00
   2   3  -6  186.08    6.90
   1  -3  -6   18.70    3.00
   1   3  -6   20.90    2.50
  -1   3   6   24.10    2.10
   1   3  -6   27.30    3.30
   0  -3  -6  431.06   12.80
   0  -3  -6  448.96   15.90
   0   3  -6  436.16   14.70
   0   3  -6  482.95   16.40
   0   3   6  442.46   13.40
   0   3  -6  443.66   14.00
   1  -3   6 1083.19   28.40
  -1  -3  -6 1036.60   27.30
  -1  -3  -6 1068.79   30.30
   1  -3   6 1060.49   27.30
  -1   3  -6 1002.40   28.10
   1   3   6 1068.49   28.20
   1   3   6 1036.20   29.00
  -1   3  -6 1038.30   27.90
  -2  -3  -6  182.68    9.50
   2  -3   6  181.18    8.50
   2  -3   6  186.88   10.00
  -2  -3  -6  196.58   11.10
  -2   3  -6  180.78    9.80
   2   3   6  184.48   13.00
   2   3   6  190.28   10.00
  -2   3  -6  194.08    9.30
   3  -3   6  299.57   12.10
  -3  -3  -6  327.97   15.90
   3  -3   6  325.67   15.00
   3   3   6  320.87   15.20
  -3   3  -6  339.87   13.90
   4  -3   6  122.19    9.90
   4  -3   6  124.59    7.80
  -4  -3  -6  124.19   10.20
  -4   3  -6  116.99    8.60
   4   3   6  133.39   10.50
  -5  -3  -6  203.08   14.50
   5  -3   6  234.48   15.00
   5   3   6  219.78   14.90
  -5   3  -6  222.48   12.80
  -6  -3  -6   85.99   10.70
   6  -3   6   96.99   10.80
   6   3   6   97.79   10.90
  -6   3  -6   82.19    8.90
  -7  -3  -6  217.18   17.20
   7  -3   6  210.08   16.50
   7   3   6  229.18   17.60
  -7   3  -6  258.17   15.70
   8  -3   6   -7.20    4.10
  -8  -3  -6   -0.90    6.60
   8   3   6    9.50    5.70
  -8   3  -6   -2.90    5.20
  -9  -3  -6    0.10    8.20
   9  -3   6    8.50    7.00
   9   3   6    8.10    7.30
  -9   3  -6    7.00    7.30
  10  -3   6   11.70    9.40
 -10  -3  -6   13.70    9.30
  10   3   6   21.70    9.50
 -11  -3  -6   -4.70   13.00
  11  -3   6   29.30   11.90
  11   3   6    7.70   10.20
  12  -4  -6    6.70    9.00
 -12  -4   6    5.20   10.00
 -12   4   6    6.40    9.30
  12   4  -6   22.00    9.80
 -11  -4   6    9.70    8.50
 -11   4   6    1.20    7.00
  11   4  -6   19.30    7.80
 -10  -4   6  157.38   17.40
  10  -4  -6  155.38   15.30
 -10   4   6  144.49   13.50
  10   4  -6  149.19   14.70
   9  -4  -6    3.30    4.60
  -9  -4   6    9.00    5.30
  -9   4   6    3.10    8.00
   9   4  -6   -3.30    4.60
  -8  -4   6  191.58   15.50
   8  -4  -6  212.58   14.30
  -8   4   6  219.28   13.50
   8   4  -6  193.28   14.20
   7  -4  -6   59.39    7.00
  -7  -4   6   54.09    8.30
   7   4  -6   53.89    7.70
  -7   4   6   55.69    7.10
   6  -4  -6   60.29    6.30
  -6  -4   6   60.69    8.20
   6  -4  -6   44.60    5.10
   6  -4  -6   49.99    6.80
   6   4  -6   59.79    6.80
  -6   4   6   64.59    8.40
  -5  -4   6   43.30    4.90
   5  -4  -6   48.00    4.60
   5  -4  -6   46.10    5.90
   5  -4  -6   42.90    4.70
  -5  -4   6   38.10    6.40
  -5   4   6   35.00    5.70
   5   4  -6   54.99    5.70
   4  -4  -6  202.88    8.90
  -4  -4   6  207.38   12.50
   4  -4  -6  224.28    9.70
  -4   4   6  225.78    9.50
   4   4  -6  201.88    9.70
   3  -4  -6    4.00    2.10
  -3  -4   6    0.00    1.70
   3  -4  -6   -0.90    1.80
   3   4  -6    3.30    1.50
  -3   4   6    3.60    1.70
  -2  -4   6  319.27   14.00
   2  -4  -6  300.77   11.70
  -2   4   6  313.67   11.60
   2   4  -6  297.47   13.70
  -2   4   6  305.27    9.50
   1  -4  -6  189.28    9.10
  -1  -4   6  157.18    9.00
  -1   4   6  176.38    8.30
  -1   4   6  159.48    6.50
   1   4  -6  165.78    8.20
   1   4  -6  165.68    7.30
   0  -4  -6  576.34   19.40
   0   4   6  588.54   17.20
   0   4  -6  588.84   17.70
   0   4  -6  606.24   19.40
   0   4  -6  576.14   18.00
  -1  -4  -6   38.40    4.80
   1  -4   6   38.60    4.40
  -1  -4  -6   37.10    4.00
  -1   4  -6   43.80    4.50
   1   4   6   34.40    3.80
   1   4   6   30.40    4.20
  -1   4  -6   30.30    3.90
  -1   4  -6   31.30    3.50
   2  -4   6  671.53   19.50
  -2  -4  -6  676.73   23.80
  -2  -4  -6  667.63   21.50
   2  -4   6  686.33   22.50
  -2   4  -6  704.83   20.80
  -2   4  -6  652.63   22.20
   2   4   6  664.63   22.30
   3  -4   6    3.30    1.80
  -3  -4  -6    2.30    2.80
   3   4   6    3.90    2.70
  -3   4  -6    2.30    1.80
   4  -4   6   -1.50    2.00
  -4  -4  -6    4.50    3.50
   4  -4   6    1.80    2.60
   4   4   6    1.10    2.70
  -4   4  -6    1.40    2.10
  -5  -4  -6   11.90    4.30
   5  -4   6   15.70    5.70
   5   4   6   10.70    4.30
  -5   4  -6   11.10    3.80
  -6  -4  -6  425.16   23.30
   6  -4   6  417.56   22.20
  -6   4  -6  405.26   18.80
   6   4   6  488.05   24.00
  -7  -4  -6   18.80    6.30
   7  -4   6   17.80    5.70
   7   4   6   13.30    6.40
  -7   4  -6   23.40    6.10
   8  -4   6   35.10   10.10
  -8  -4  -6   20.90    8.70
   8   4   6   28.90    8.30
  -8   4  -6   22.20    8.50
   9  -4   6   93.19   14.60
  -9   4  -6   81.99   12.80
   9   4   6  113.39   16.30
 -10  -4  -6  -10.50    9.60
  10  -4   6   -1.90    7.40
  10   4   6    2.60    7.80
 -10   4  -6   -2.40    8.10
 -11  -4  -6   -7.20   12.00
  11  -4   6   14.80   10.70
  11   4   6    0.90   10.30
 -12  -5   6  -11.40   10.80
  12  -5  -6    3.30    8.70
  12   5  -6    5.40    9.70
 -11  -5   6    4.40    8.60
  11  -5  -6   14.70    8.00
  11   5  -6   15.30    7.80
  10  -5  -6   28.60    7.50
 -10  -5   6   45.50   12.80
  10   5  -6   16.20    7.20
  -9  -5   6   33.00    8.10
   9  -5  -6   34.40    5.80
   9  -5  -6   34.10    7.70
  -9   5   6   29.70    7.00
   9   5  -6   23.80    6.40
  -8  -5   6   13.60    6.00
   8  -5  -6    5.70    3.30
   8  -5  -6    8.20    3.80
   8   5  -6    8.20    4.90
  -7  -5   6    6.20    4.20
   7  -5  -6   19.30    4.40
   7  -5  -6   10.50    3.00
   7   5  -6   12.50    4.40
   6  -5  -6    2.40    4.30
  -6  -5   6    1.90    3.00
   6  -5  -6    2.20    1.80
   6  -5  -6   -1.10    2.10
   6   5  -6    2.20    2.90
   5  -5  -6 1113.59   32.10
   5  -5  -6 1112.59   29.90
  -5  -5   6 1120.39   37.10
   5  -5  -6 1149.89   31.30
  -5   5   6 1069.39   31.30
   5   5  -6 1167.48   33.20
   4  -5  -6    5.00    3.00
  -4  -5   6    4.40    2.90
   4  -5  -6    6.70    2.20
   4   5  -6    5.50    2.50
  -4   5   6    4.00    2.20
   3  -5  -6   13.60    2.80
   3  -5  -6   17.70    3.50
  -3  -5   6   10.80    3.40
   3   5  -6   12.70    3.00
  -3   5   6   10.90    2.30
  -2  -5   6   95.59    7.60
   2  -5  -6   94.99    6.40
  -2   5   6  109.79    6.50
   2   5  -6  125.39    8.70
  -2   5   6  120.59    5.80
  -1  -5   6 1075.49   30.90
   1  -5  -6 1045.00   29.40
  -1   5   6 1136.69   36.50
   1   5  -6 1069.59   31.10
  -1   5   6 1072.89   26.70
   0  -5  -6   30.80    4.20
   0   5   6   34.70    3.70
   0   5  -6   30.70    3.70
   0   5  -6   35.00    4.50
   0   5   6   28.20    4.10
   0   5  -6   29.40    3.40
   1  -5   6 1440.36   37.40
  -1  -5  -6 1413.26   39.20
  -1  -5  -6 1404.56   35.70
  -1   5  -6 1484.65   35.70
  -1   5  -6 1436.06   36.90
   1   5   6 1364.06   37.80
   1   5   6 1444.16   37.20
  -1   5  -6 1376.86   37.10
  -2  -5  -6   40.60    5.60
   2  -5   6   32.60    3.30
   2  -5   6   36.50    4.80
  -2  -5  -6   39.90    4.90
  -2   5  -6   40.30    5.20
   2   5   6   30.40    4.80
  -2   5  -6   42.30    4.20
  -3  -5  -6    9.00    3.80
   3  -5   6    0.80    2.30
   3  -5   6    2.80    1.80
  -3   5  -6    2.30    2.00
   3   5   6    6.50    2.80
   4  -5   6   83.09    6.00
  -4  -5  -6   83.49    9.20
   4  -5   6   83.39    8.70
   4   5   6   95.19    9.00
  -4   5  -6   75.29    6.50
   5  -5   6    3.10    3.70
   5  -5   6    1.90    2.80
  -5  -5  -6   -1.10    3.00
  -5   5  -6    7.40    3.00
   5   5   6    3.20    3.50
  -6  -5  -6    0.10    3.30
   6  -5   6   -6.20    3.40
   6   5   6    6.00    4.90
  -6   5  -6    0.30    3.20
   7  -5   6  208.78   16.60
  -7  -5  -6  188.18   16.40
   7   5   6  188.78   16.50
  -7   5  -6  183.08   12.50
  -8  -5  -6    7.90    7.60
   8  -5   6   12.80    6.80
  -8   5  -6   21.10    5.80
   8   5   6   14.10    6.70
  -9  -5  -6   18.10   10.90
   9  -5   6   18.80    7.70
  -9   5  -6   17.30    7.20
   9   5   6    2.80    8.10
 -10  -5  -6   16.10   11.10
  10  -5   6   10.60    9.20
 -10   5  -6    9.90    9.00
  10   5   6   -4.90    9.30
  12  -6  -6   -1.60    9.90
 -12  -6   6   14.10   10.90
  12   6  -6   17.60   10.80
 -11  -6   6   16.90   10.30
  11  -6  -6   14.50    8.30
  11   6  -6   23.70    9.70
  10  -6  -6   96.39   12.40
 -10  -6   6   76.89   13.50
  10   6  -6   95.59   13.40
   9  -6  -6   27.20    5.30
   9  -6  -6   19.60    6.20
  -9  -6   6   42.20   10.10
   9   6  -6   22.20    8.30
   8  -6  -6   76.09    7.00
   8  -6  -6   88.49    9.30
  -8  -6   6   80.99   11.10
   8   6  -6   85.49   10.00
  -7  -6   6   53.89    9.40
   7  -6  -6   63.39    7.30
   7  -6  -6   57.89    5.60
   6  -6  -6   70.19    7.00
  -6  -6   6   69.79    8.90
   6  -6  -6   74.49    7.50
   6  -6  -6   64.69    5.40
   6   6  -6   66.59    7.60
  -5  -6   6   24.30    6.00
   5  -6  -6   27.40    3.50
   5  -6  -6   32.50    6.00
   5   6  -6   26.00    4.80
  -5   6   6   19.60    4.30
  -4  -6   6    2.90    3.10
   4  -6  -6    4.00    1.70
   4  -6  -6    7.70    2.70
   4   6  -6    4.00    2.00
  -4   6   6    6.80    2.60
   3  -6  -6   18.80    3.60
  -3  -6   6   10.50    3.80
   3  -6  -6   23.80    3.30
   3   6  -6   18.60    3.40
  -3   6   6   16.30    3.30
  -2  -6   6  452.05   18.10
   2  -6  -6  410.26   15.20
   2   6  -6  478.75   22.70
   1  -6  -6   81.39    6.20
  -1  -6   6   85.89    6.90
  -1   6   6   83.79    6.00
  -1   6   6   77.19    5.10
   1   6  -6   87.09    7.00
   0  -6  -6  338.27   14.30
   0   6   6  305.87   12.20
   0   6   6  300.37   12.90
   0   6  -6  312.57   14.50
   0   6  -6  337.77   15.90
   0   6  -6  346.47   12.50
  -1  -6  -6   -2.90    1.50
  -1   6  -6    1.70    1.70
   1   6   6    1.40    2.00
  -1   6  -6    1.40    1.30
  -1   6  -6    0.30    1.70
  -2  -6  -6  529.35   21.40
   2  -6   6  562.94   20.50
  -2   6  -6  529.65   17.80
  -2   6  -6  536.25   17.20
   2   6   6  524.85   19.90
   3  -6   6   23.50    3.50
   3  -6   6   28.30    5.10
  -3  -6  -6   26.50    5.90
   3   6   6   27.90    5.30
  -3   6  -6   23.10    3.60
  -4  -6  -6   87.49   15.00
   4  -6   6   79.09    5.60
   4  -6   6   76.49    8.70
   4   6   6   72.29    8.60
  -4   6  -6   82.99    6.60
  -5  -6  -6   46.30    7.70
   5  -6   6   52.09    7.90
  -5   6  -6   57.69    6.00
   5   6   6   43.00    7.70
  -6  -6  -6  167.68   14.60
   6  -6   6  185.38   14.80
  -6   6  -6  143.09   10.00
   6   6   6  160.88   14.50
  -7  -6  -6   35.60    9.10
   7  -6   6   69.49   10.70
  -7   6  -6   42.60    8.00
   7   6   6   42.80   10.20
  -8  -6  -6   18.80    8.40
  -8   6  -6   19.10    5.80
   8   6   6   16.10   10.70
  -9  -6  -6   87.39   15.70
   9  -6   6   87.89   14.40
   9   6   6   67.79   13.70
  -9   6  -6   49.80    9.10
 -10  -6  -6    0.80    9.30
  10  -6   6   -0.70    9.00
  10   6   6    5.20    8.20
 -12  -7   6    9.40   12.20
  12  -7  -6   14.80    9.90
  12   7  -6   -8.70    8.90
  11  -7  -6    2.80    7.50
 -11  -7   6    5.40    8.50
  11   7  -6    8.30    8.10
  10  -7  -6    5.00    6.90
 -10  -7   6    1.00    6.80
  10  -7  -6    0.50    6.30
  10   7  -6   -1.50    6.30
  -9  -7   6  253.67   20.50
   9  -7  -6  243.28   17.00
   9   7  -6  273.67   19.50
   8  -7  -6   33.00    5.00
   8  -7  -6   28.40    6.30
  -8  -7   6   45.60    9.50
   8   7  -6   44.10    8.50
   7  -7  -6   13.00    3.20
  -7  -7   6   17.00    6.90
   7  -7  -6   11.40    4.10
   7   7  -6    9.90    4.50
   6  -7  -6    1.40    1.90
  -6  -7   6    2.80    3.50
   6   7  -6    1.60    2.60
   5  -7  -6   47.40    5.60
   5  -7  -6   46.10    4.40
   5   7  -6   43.20    5.90
   4  -7  -6   43.70    5.00
   4  -7  -6   37.60    4.10
  -4  -7   6   49.99    6.90
   4   7  -6   63.99    6.40
  -4   7   6   45.40    5.40
  -3  -7   6 1283.27   38.30
   3  -7  -6 1176.08   32.80
   3  -7  -6 1262.47   32.60
  -3   7   6 1196.98   31.50
  -3   7   6 1239.38   33.00
   3   7  -6 1286.07   34.30
  -2  -7   6   78.59    7.30
   2  -7  -6   72.89    5.80
  -2   7   6   76.29    6.50
   1  -7  -6   12.00    3.40
  -1  -7   6   13.40    3.50
  -1   7   6    8.40    2.30
   1   7  -6   10.40    3.30
   0  -7  -6    8.90    3.20
   0   7   6   14.40    3.20
   0   7   6   12.80    3.30
   0   7  -6   13.40    2.90
   0   7  -6    8.90    3.00
  -1  -7  -6  265.67   13.70
  -1   7  -6  234.28   10.00
  -1   7  -6  235.88   11.30
   1   7   6  250.17   12.20
  -2  -7  -6   33.00    5.80
  -2   7  -6   26.70    4.40
   2   7   6   29.80    4.80
  -2   7  -6   28.80    3.50
  -3  -7  -6  539.35   23.70
   3  -7   6  566.14   22.40
   3   7   6  543.05   22.50
  -3   7  -6  548.65   17.90
  -3   7  -6  542.05   17.70
   4  -7   6   12.50    4.60
  -4  -7  -6   13.20    4.80
   4   7   6   16.60    6.60
  -4   7  -6   13.10    3.50
  -5  -7  -6  251.57   17.60
   5  -7   6  254.37   16.20
   5   7   6  218.28   15.60
  -5   7  -6  218.88   11.00
   6  -7   6   23.10    6.80
  -6  -7  -6   23.40    6.90
   6   7   6   29.10    8.00
  -6   7  -6   29.80    5.40
   7  -7   6  192.88   11.10
  -7  -7  -6  203.58   17.90
   7  -7   6  229.78   17.60
   7   7   6  189.78   17.20
  -7   7  -6  200.28   11.70
  -8  -7  -6   -3.70    8.50
   8  -7   6   -3.40    5.90
  -8   7  -6   -2.20    4.60
   8   7   6   17.20    6.70
  -9  -7  -6   -0.40    8.50
   9  -7   6    4.60    7.00
  -9   7  -6    1.50    6.30
   9   7   6    0.10    8.00
  10  -7   6    5.50    9.00
 -10  -7  -6   48.80   14.90
  10   7   6   23.90   10.60
  11  -8  -6   67.09   13.40
 -11  -8   6   45.50   13.00
  11   8  -6   71.19   13.60
  10  -8  -6    7.00    4.90
 -10  -8   6   32.10   10.10
  10  -8  -6   15.10    7.10
  -9  -8   6   26.00    9.20
   9  -8  -6   57.39    9.90
   9   8  -6   39.60    9.60
   8  -8  -6  252.17   16.10
   8  -8  -6  257.17   13.70
  -8  -8   6  247.28   19.20
   8  -8  -6  267.47   11.10
   8   8  -6  280.97   18.50
   7  -8  -6    1.80    2.20
  -7  -8   6    6.00    4.90
   7   8  -6    4.40    3.50
   6  -8  -6   -1.90    1.90
  -6  -8   6   -1.70    2.80
   6   8  -6    3.20    3.60
   5  -8  -6  132.59    8.60
  -5  -8   6  135.89   12.00
   5  -8  -6  142.39    7.50
   5   8  -6  145.29   10.50
   4  -8  -6  155.48    8.10
  -4  -8   6  166.38   12.40
   4  -8  -6  150.68    8.90
   4   8  -6  165.88   10.50
  -4   8   6  155.28    9.70
  -3  -8   6    6.10    3.60
   3  -8  -6    1.60    2.00
  -3   8   6    1.60    2.60
   3   8  -6    2.80    2.10
   2  -8  -6  380.86   14.80
  -2  -8   6  398.86   17.50
  -2   8   6  362.76   13.70
   1  -8  -6  209.48   11.00
  -1  -8   6  202.68   11.30
  -1   8   6  202.98   10.50
   0  -8  -6  106.09    8.30
   0  -8   6  122.49    7.80
   0   8  -6  114.89    6.90
   0   8  -6   98.59    7.80
   0   8   6  110.99    7.50
  -1  -8  -6  213.18   12.90
  -1   8  -6  230.88   11.00
  -1   8  -6  230.88   10.00
   1   8   6  234.78   12.20
  -2  -8  -6 1314.07   40.80
  -2   8  -6 1319.67   34.60
   2   8   6 1321.27   38.90
  -2   8  -6 1291.07   33.20
  -3  -8  -6    0.00    2.70
   3  -8   6   -1.20    2.40
  -3   8  -6    2.50    2.50
   3   8   6    0.40    2.90
  -3   8  -6    1.40    1.70
   4  -8   6    0.20    2.50
  -4  -8  -6    4.50    3.30
  -4   8  -6   -1.00    2.40
   4   8   6    0.10    2.90
  -4   8  -6    1.10    2.10
   5  -8   6  107.69   11.20
  -5  -8  -6  115.29   12.50
   5   8   6  115.39   11.60
  -5   8  -6   98.99    6.90
  -6  -8  -6   91.59   11.90
   6  -8   6  110.09   11.70
   6   8   6  120.49   12.80
  -6   8  -6   96.39    7.40
  -7  -8  -6    1.50    6.10
   7  -8   6    2.80    4.80
   7   8   6    2.60    5.40
  -7   8  -6    3.10    4.50
  -8  -8  -6  194.98   19.80
   8  -8   6  199.48   17.80
  -8   8  -6  137.59    9.90
   8   8   6  227.28   20.40
   9  -8   6    6.20    7.90
  -9  -8  -6   15.00    9.40
   9   8   6    4.40    8.20
 -10  -8  -6   26.90   12.60
  10  -8   6   19.90   10.20
  10   8   6   17.40   10.30
 -11  -9   6    7.20    8.80
  11   9  -6    5.10    9.00
 -10  -9   6    4.90    7.70
  10   9  -6    4.00    6.60
  -9  -9   6   42.30    9.90
   9  -9  -6   26.00    4.30
   9   9  -6   30.70    9.60
   8  -9  -6    9.10    5.40
  -8  -9   6    3.30    5.20
   8   9  -6    4.30    4.70
   7  -9  -6    3.40    2.40
  -7  -9   6    3.50    3.90
   7  -9  -6    9.20    4.50
   7   9  -6    2.00    3.80
  -6  -9   6  208.38   15.60
   6  -9  -6  176.28   10.70
   6  -9  -6  190.58    8.60
   6   9  -6  161.88   12.90
   5  -9  -6  129.29    8.20
   5  -9  -6  126.79    7.20
  -5  -9   6  131.79   12.20
   5   9  -6  128.69   10.40
   4  -9  -6   30.60    3.90
   4  -9  -6   32.40    4.80
  -4  -9   6   35.70    6.60
   4   9  -6   26.00    5.80
  -3  -9   6  217.58   13.90
   3  -9  -6  243.98   10.90
  -3   9   6  210.18   15.10
   3   9  -6  223.58   12.30
  -2  -9   6   54.89    6.60
   2  -9  -6   59.29    5.70
  -2   9   6   62.39    5.50
  -1  -9   6   54.59    6.20
   1  -9  -6   42.50    5.20
   0  -9  -6   51.89    6.20
   0  -9   6   59.19    5.70
   0   9   6   50.19    5.70
   0   9  -6   55.09    6.30
  -1  -9  -6  482.85   20.80
  -1   9  -6  487.15   16.30
   1   9   6  487.45   19.40
  -2  -9  -6  111.29   10.20
  -2   9  -6   98.79    6.30
   2   9   6   96.69    8.80
  -3  -9  -6   71.99    9.20
  -3   9  -6   71.59    5.10
   3   9   6   77.59    8.60
  -3   9  -6   71.89    5.80
   4  -9   6   41.40    7.10
  -4  -9  -6   37.00    7.80
   4   9   6   55.79    8.00
  -4   9  -6   31.70    4.20
  -4   9  -6   36.80    4.60
  -5  -9  -6   72.59   10.50
   5  -9   6   97.49   10.90
  -5   9  -6   99.19    7.30
   5   9   6  107.59   11.90
  -6  -9  -6   14.90    6.80
   6  -9   6   10.30    5.50
   6   9   6   10.50    6.00
   7  -9   6   93.29   12.50
  -7  -9  -6   77.29   13.70
   7   9   6   95.49   14.20
  -8  -9  -6  -11.10    6.50
   8  -9   6    5.50    5.90
   8   9   6    4.70    6.60
  -9  -9  -6  -11.50    8.10
   9  -9   6   -3.80    6.80
   9   9   6    3.90    8.00
 -10  -9  -6   22.90   13.90
 -11 -10   6   22.60   12.20
  11  10  -6   11.00   10.00
 -10 -10   6  103.49   16.60
  10  10  -6  110.99   15.80
  -9 -10   6    5.50    6.80
   9  10  -6   -1.10    5.30
   8 -10  -6   -2.90    2.40
   8 -10  -6    1.90    3.70
  -8 -10   6   -7.40    4.90
   8  10  -6   -2.40    4.50
   7 -10  -6   46.70    6.20
  -7 -10   6   47.10   10.20
   7  10  -6   37.80    8.40
  -6 -10   6   67.69   10.10
   6 -10  -6   72.09    5.20
   6  10  -6   75.29    9.20
  -5 -10   6   98.39   10.80
   5 -10  -6   82.99    6.80
   5 -10  -6   85.89    6.00
   5  10  -6   70.99    9.30
   4 -10  -6  697.03   22.00
   4 -10  -6  749.33   22.00
  -4 -10   6  758.02   29.90
   4  10  -6  712.93   26.80
   3 -10  -6    9.50    3.10
  -3 -10   6    3.30    3.90
   3  10  -6    9.30    3.70
  -2 -10   6   54.79    7.10
   2 -10  -6   55.09    6.00
  -2  10   6   54.29    5.40
   1 -10  -6   91.29    7.60
  -1 -10   6  117.49    9.20
   0 -10   6  143.29    9.10
   0 -10  -6  112.09    9.20
   0  10   6  142.09    9.50
  -1 -10  -6   20.90    4.90
   1  10   6   27.60    5.80
  -1  10  -6   15.60    3.10
  -2 -10  -6  261.47   16.20
  -2  10  -6  258.67   10.70
   2  10   6  275.47   15.40
  -3 -10  -6  355.16   20.20
   3  10   6  358.96   18.70
  -3  10  -6  330.67   12.80
  -3  10  -6  343.87   12.30
  -4 -10  -6   26.40    7.00
  -4  10  -6   33.90    4.10
  -4  10  -6   28.90    4.30
   4  10   6   31.40    7.50
  -5 -10  -6   -0.50    4.10
   5 -10   6    3.30    4.60
   5  10   6    3.70    5.70
  -5  10  -6   -0.20    2.10
  -6 -10  -6  118.79   14.50
   6 -10   6  118.89   13.40
   6  10   6  145.99   14.90
  -6  10  -6  144.59    6.30
   7 -10   6   98.79   18.30
   7  10   6   76.59   17.80
   8 -10   6   51.09   11.00
  -8 -10  -6   59.59   13.30
   8  10   6   53.49   11.40
  -9 -10  -6   25.40   11.40
   9 -10   6    9.70    8.30
   9  10   6   35.50   12.80
  10 -10   6   12.70    9.50
 -10 -10  -6   -0.60   13.20
  10  10   6   -5.90   10.70
  11  11  -6   20.80   11.50
 -10 -11   6    8.00   10.10
  10  11  -6   -2.60    7.20
  -9 -11   6   28.60    9.50
   8  11  -6   34.30    9.20
   7 -11  -6   28.50    4.60
  -7 -11   6   25.00    8.70
   7  11  -6   41.30    9.10
  -6 -11   6    7.30    4.90
   6 -11  -6   14.60    3.30
   6 -11  -6   18.40    3.50
   6  11  -6   12.80    5.40
   5 -11  -6   81.29    5.70
  -5 -11   6   71.19   10.20
   5 -11  -6   74.39    6.50
   5  11  -6   87.29    9.80
  -4 -11   6   48.20    7.80
   4 -11  -6   43.70    5.00
   4  11  -6   49.00    7.40
   3 -11  -6  257.37   12.20
  -3 -11   6  293.17   16.90
   3  11  -6  280.57   15.30
   2 -11  -6  347.37   15.40
  -2 -11   6  370.26   18.10
   1 -11  -6  256.17   13.60
  -1 -11   6  241.48   13.60
   0 -11   6   21.40    4.20
   0 -11  -6   23.50    5.90
   0  11   6   36.30    5.80
  -1 -11  -6   73.49    8.40
  -1  11  -6   57.59    5.30
   1  11   6   67.99    8.00
  -2 -11  -6   46.50    8.90
  -2  11  -6   29.40    3.80
  -3 -11  -6  123.19   12.40
   3  11   6  120.09   11.50
  -3  11  -6  112.39    6.50
  -3  11  -6  125.79   11.30
  -4 -11  -6  123.99   13.50
  -4  11  -6  127.49    6.10
   4  11   6  138.49   12.60
  -5 -11  -6  131.29   14.40
   5  11   6  111.39   13.30
  -6 -11  -6   55.29   11.00
   6  11   6   85.39   11.50
   7 -11   6   23.50    8.70
  -7 -11  -6   31.90   10.90
   7  11   6   37.20    9.70
   8 -11   6    6.20    8.50
  -8 -11  -6    0.00    7.50
   8  11   6   -6.60    7.80
   9 -11   6    5.10    9.00
  -9 -11  -6   -3.30   10.40
   9  11   6   51.39   13.70
 -10 -12   6    3.40    8.00
  10  12  -6   -1.20    7.90
  -9 -12   6   30.10   10.20
   9  12  -6   29.60    9.50
  -8 -12   6   29.20    8.10
   8  12  -6   58.69   11.40
  -7 -12   6   -2.60    4.00
   7  12  -6    0.30    5.80
   6 -12  -6    2.40    2.40
  -6 -12   6    5.00    4.90
   6  12  -6   -3.50    3.80
   5 -12  -6   69.09    6.00
  -5 -12   6   75.09   11.00
   5  12  -6   62.49    9.40
  -4 -12   6  374.46   20.90
   4 -12  -6  341.07   16.00
   4 -12  -6  391.96   14.40
   4  12  -6  396.26   19.80
  -3 -12   6  209.48   14.80
   3 -12  -6  203.58   10.80
   3  12  -6  221.28   14.10
  -2 -12   6   19.90    5.40
   1 -12  -6    0.40    2.50
  -1 -12   6   -0.50    2.50
   0 -12  -6  181.88   12.50
   0 -12   6  161.18   10.40
   0  12   6  176.18   11.80
  -1 -12  -6   13.20    4.90
  -1  12  -6   15.30    3.50
  -2 -12  -6   70.59    9.90
   2  12   6   72.19    9.00
  -2  12  -6   78.49    5.70
  -3 -12  -6  243.08   17.50
  -3  12  -6  198.98   13.80
   3  12   6  195.68   15.00
  -4 -12  -6   -2.30    4.40
   4  12   6   -1.60    3.90
  -5 -12  -6    2.00    5.50
   5  12   6    0.50    4.70
  -6 -12  -6    9.20    7.40
   6  12   6   28.50    8.70
  -7 -12  -6    2.90    7.50
   7  12   6   -7.20    6.20
  -8 -12  -6   72.89   14.20
   8  12   6   54.49   13.20
  -9 -12  -6   26.60   12.50
   9  12   6   15.90   10.90
 -10 -13   6   31.50   13.50
  10  13  -6   32.50   10.40
  -9 -13   6   77.09   15.40
   9  13  -6   69.99   13.10
  -8 -13   6   14.60    8.20
  -7 -13   6  130.29   16.10
   7  13  -6  121.89   13.90
  -6 -13   6  150.38   15.20
   6  13  -6  155.58   14.20
   5 -13  -6   -6.00    3.10
  -5 -13   6    4.50    4.30
   5  13  -6   -0.30    4.20
   4 -13  -6  100.99    7.10
  -4 -13   6   98.49   11.60
   4  13  -6   87.99   10.20
  -3 -13   6  779.42   31.70
   3 -13  -6  837.52   26.40
   3  13  -6  871.71   31.80
   2 -13  -6   24.10    5.10
  -2 -13   6   38.20    7.70
   1 -13  -6  314.07   16.50
  -1 -13   6  306.07   16.20
   0 -13  -6  239.78   15.20
   0 -13   6  219.58   12.50
   0  13   6  218.08   13.90
  -1 -13  -6   51.19    7.80
   1  13   6   49.30    8.20
  -1  13  -6   49.00    5.10
  -2 -13  -6  152.58   13.10
  -2  13  -6  140.99    7.60
   2  13   6  141.39   12.60
  -3 -13  -6  231.58   17.70
  -3  13  -6  234.08    8.80
   3  13   6  259.47   17.40
  -4 -13  -6   19.90    7.00
   4  13   6   16.90    6.50
  -5 -13  -6   16.70    8.10
   5  13   6   13.80    6.70
  -6 -13  -6    7.10    8.10
   6  13   6   -1.20    6.70
  -7 -13  -6  113.39   17.90
   7  13   6   71.79   14.30
  -8 -13  -6   -2.50    9.70
   8  13   6    8.70    9.50
  -9 -13  -6   48.80   14.10
   9  13   6   51.39   15.10
 -10 -14   6    3.50   11.30
  10  14  -6   -8.30    9.10
  -9 -14   6    6.20    8.20
   9  14  -6    1.40    8.40
  -8 -14   6   23.80    9.00
   8  14  -6   31.00    9.60
  -7 -14   6   -4.30    5.90
   7  14  -6   -5.40    5.50
  -6 -14   6    0.10    4.90
   6  14  -6    1.40    4.10
  -5 -14   6   71.49   11.50
   5 -14  -6   79.19    5.30
   5  14  -6   80.89   10.70
   4 -14  -6  414.56   15.60
   4 -14  -6  455.75   16.20
  -4 -14   6  433.86   24.00
   4  14  -6  457.15   23.20
   3 -14  -6   73.29    7.40
  -3 -14   6   69.89    9.50
   3  14  -6   78.99    9.50
  -2 -14   6   42.10    8.00
   2 -14  -6   34.30    6.50
   1 -14  -6  139.09   11.20
  -1 -14   6  127.39   10.70
   0 -14   6  181.38   11.70
   0 -14  -6  192.18   14.00
   0  14   6  221.08   14.60
  -1 -14  -6   38.80    8.70
  -1  14  -6   32.90    4.70
   1  14   6   25.40    6.30
  -2 -14  -6    6.80    4.50
  -2  14  -6    8.00    2.90
   2  14   6    7.10    4.20
  -3 -14  -6    4.90    5.00
  -3  14  -6    0.20    2.60
  -3  14  -6    1.30    1.90
   3  14   6    3.10    4.90
  -4 -14  -6   99.29   13.20
   4  14   6  122.59   14.00
  -5 -14  -6   68.19   13.70
   5  14   6   44.00    9.90
  -6 -14  -6  242.48   21.60
   6  14   6  233.58   20.50
  -7 -14  -6    8.10    9.30
   7  14   6   14.10    7.80
  -8 -14  -6   -5.30   11.90
   8  14   6   23.80   10.80
  -9 -15   6    1.90    8.70
   9  15  -6    7.80    9.40
  -8 -15   6   22.10    9.90
   8  15  -6   25.70    9.80
  -7 -15   6    5.60    6.50
   7  15  -6    5.20    6.20
  -6 -15   6   29.40    9.20
   6  15  -6   24.20    7.60
  -5 -15   6  187.98   16.60
   5  15  -6  178.88   15.40
   4 -15  -6   -3.20    4.00
  -4 -15   6    5.90    4.10
   4 -15  -6   -1.90    3.00
   4  15  -6   11.20    5.20
  -3 -15   6   83.49   10.60
   3 -15  -6   88.89    8.00
   3  15  -6   93.09   10.90
  -2 -15   6  133.39   12.10
   2 -15  -6  131.39   10.70
  -1 -15   6   74.19    9.30
   1 -15  -6   74.89    9.30
  -1  15   6   70.19    8.90
   0 -15  -6    3.30    3.80
   0 -15   6    1.60    3.50
   0  15   6   14.10    4.50
  -1 -15  -6  282.97   18.70
  -1  15  -6  263.17   12.20
   1  15   6  266.47   17.50
  -2 -15  -6   13.30    6.00
   2  15   6   15.40    4.90
  -2  15  -6   14.50    3.20
  -3 -15  -6    3.40    5.10
  -3  15  -6    5.70    2.10
   3  15   6   10.10    5.50
  -4 -15  -6  151.48   16.90
   4  15   6  130.59   14.80
  -5 -15  -6    7.40    7.20
   5  15   6   18.10    8.10
  -6 -15  -6    5.20    7.80
   6  15   6   -1.30    6.10
  -7 -15  -6   11.70    9.90
   7  15   6   43.20   11.10
  -8 -15  -6   44.20   20.90
   8  15   6    5.30   11.10
  -9 -16   6   73.59   24.20
  -8 -16   6  220.98   23.10
   8  16  -6  284.27   24.00
  -7 -16   6  143.59   18.00
   7  16  -6  158.98   18.10
  -6 -16   6    9.80    6.90
   6  16  -6   29.70    9.80
  -5 -16   6    3.00    5.20
   5  16  -6   10.30    6.60
   4 -16  -6   50.89    7.70
  -4 -16   6   52.19   11.10
   4  16  -6   73.39   10.80
   3 -16  -6    0.50    3.90
  -3 -16   6    0.30    4.60
   3  16  -6   -1.40    4.00
  -2 -16   6  140.59   12.80
   2 -16  -6  100.79   10.10
  -1 -16   6  323.77   18.30
   1 -16  -6  301.17   17.90
  -1  16   6  366.86   20.00
   0 -16  -6   75.59   10.50
   0 -16   6   70.29    8.40
   0  16   6   77.49   10.20
  -1 -16  -6   92.89   12.10
  -1  16  -6   91.29    7.30
   1  16   6   83.89   11.30
  -2 -16  -6   80.59   11.80
   2  16   6   91.89   11.80
  -2  16  -6   64.89    5.60
  -3 -16  -6   34.30    9.30
   3  16   6   33.30    9.20
  -4 -16  -6   10.20    8.30
  -5 -16  -6   -1.40    7.20
   5  16   6   15.20    7.50
  -6 -16  -6   58.29   13.80
   6  16   6   82.39   15.60
  -7 -16  -6    4.60   10.60
   7  16   6   -4.60    8.90
  -8 -17   6   -6.30    8.60
   8  17  -6  -19.30    8.20
  -7 -17   6    1.90    6.50
   7  17  -6   20.70    8.90
  -6 -17   6   24.50    9.50
   6  17  -6   34.50    9.50
  -5 -17   6    5.10    6.60
   5  17  -6   -2.20    5.60
  -4 -17   6   33.20   10.00
   4  17  -6   21.60    7.70
  -3 -17   6   92.59   11.80
   3  17  -6   85.29   11.70
   2 -17  -6   25.10    6.70
  -2 -17   6   36.00    8.10
  -1 -17   6   85.39   10.50
   1 -17  -6   82.49   10.90
  -1  17   6  114.39   11.90
   0 -17  -6  155.88   14.40
   0 -17   6  149.19   11.50
   0  17   6  156.38   14.10
  -1 -17  -6    9.70    5.90
  -1  17  -6   28.30    5.30
   1  17   6   30.40    7.90
  -2 -17  -6   22.00    7.90
   2  17   6   10.50    5.30
  -2  17  -6   22.60    4.40
  -3 -17  -6   14.00    6.80
   3  17   6    8.30    9.90
  -4 -17  -6   -5.10    5.60
   4  17   6   -1.10    6.40
  -5 -17  -6   28.50   10.40
   5  17   6   28.20    9.50
  -6 -17  -6   26.90   12.10
   6  17   6   37.60   13.50
  -7 -17  -6   31.90   15.20
   7  17   6   14.90   11.80
  -8 -18   6   35.00   23.00
   8  18  -6   30.40   14.40
  -7 -18   6    3.60    9.20
   7  18  -6    8.20    8.50
  -6 -18   6   33.40   10.00
   6  18  -6   21.30    9.30
  -5 -18   6   45.10   10.50
   5  18  -6   43.00   10.50
   4 -18  -6   17.30    6.20
  -4 -18   6    8.30    7.00
   4  18  -6   13.30    6.90
  -3 -18   6   -2.10    6.10
  -2 -18   6   16.70    6.50
  -1 -18   6   26.10    7.20
   1 -18  -6   26.80    7.30
  -1  18   6   21.90    7.60
   0 -18  -6   38.00    9.00
   0  18   6   42.70    9.00
  -1 -18  -6    0.90    6.10
  -1  18  -6    0.70    3.20
   1  18   6   -1.60    5.20
  -2 -18  -6   46.00   10.80
   3  18   6   -8.60    5.80
  -4 -18  -6    4.60    8.30
   4  18   6   13.90    8.70
  -5 -18  -6  264.07   23.70
   5  18   6  252.17   24.00
  -6 -18  -6   56.29   13.20
   6  18   6   36.30   12.00
  -7 -19   6    6.30   10.20
   7  19  -6   -1.30    8.80
  -6 -19   6   32.00   11.70
   6  19  -6   36.40   10.20
  -5 -19   6   51.09   11.90
   5  19  -6   50.09   11.00
  -4 -19   6   -7.70   12.60
   4  19  -6   12.70    7.00
  -3 -19   6   43.90   10.10
   3 -19  -6   26.60    7.00
   3  19  -6   36.80    9.60
  -2 -19   6   11.90    6.40
   2  19  -6   21.00    6.70
  -1 -19   6   50.69    9.50
   1 -19  -6   54.39   10.20
  -1  19   6   45.50   10.40
   0 -19  -6   41.00    9.60
  -1 -19  -6  215.48   18.40
   1  19   6  189.78   26.60
  -1  19  -6  175.38   10.40
  -2 -19  -6   69.69   12.70
  -3 -19  -6    1.40    7.30
  -4 -19  -6   23.00    9.20
   4  19   6   19.90    9.30
  -5 -19  -6   16.90   11.30
   5  19   6    6.20    8.50
   6  19   6   22.80   13.00
  -6 -20   6   13.70   11.30
   6  20  -6   13.30    9.90
  -5 -20   6   20.80    9.00
   5  20  -6   14.80   10.30
  -4 -20   6   60.09   13.10
   4  20  -6   50.39   11.30
  -3 -20   6   10.50    7.80
   3  20  -6   14.00    7.80
   2 -20  -6    7.00   11.10
  -2 -20   6   10.50    7.00
   2  20  -6    3.00    5.80
   0 -20  -6   15.20    7.70
   0  20  -6    5.10    4.30
   0  20   6   14.10    7.20
  -1 -20  -6   17.60    7.90
  -1  20  -6    3.00    4.30
  -2 -20  -6   89.29   14.90
  -3 -20  -6   37.50   12.60
   3  20   6   32.60   10.70
  -4 -20  -6    8.60    9.70
   4  20   6   16.90   11.00
  -5 -20  -6   43.60   13.10
   5  20   6   28.00   15.10
  -5 -21   6   12.20   10.80
   5  21  -6    2.40    8.80
  -4 -21   6   62.59   12.40
   4  21  -6   73.99   14.50
  -3 -21   6  117.09   16.80
   3  21  -6  116.29   16.30
   2 -21  -6  143.89   20.80
   2  21  -6  184.58   19.10
  -2  21   6  191.88   17.60
   1 -21  -6    8.00    8.10
  -1  21   6   11.80    7.70
   0  21  -6    7.40    5.00
   0  21   6   14.20    8.80
   1  21   6   31.00   10.40
  -2 -21  -6   52.69   12.60
   2  21   6   32.10   10.90
  -3 -21  -6  112.79   19.20
   3  21   6   84.09   16.40
  -4 -21  -6  160.18   22.40
   4  21   6  181.18   32.00
  -4 -22   6    1.60   10.40
   4  22  -6   12.10   11.80
   3  22  -6   12.70    9.90
  -2  22   6   16.20    9.60
   2  22  -6   12.20    9.50
  -1 -22   6   54.29   11.30
   1 -22  -6   52.19   12.30
  -1  22   6   72.39   13.60
   0 -22  -6    9.60   11.80
   0  22   6   -2.70    8.90
   1  22   6   42.00   12.90
  -2 -22  -6  123.09   23.40
   2  22   6   94.89   18.90
  -3 -22  -6   11.90   12.80
   3  22   6   16.30   17.90
  -2 -23   6   -9.20   10.60
   2  23  -6   -9.70    9.20
  -2  23   6   -5.50    9.20
  -1  23   6    7.10    9.10
   1  23  -6    0.60   10.20
   0 -23  -6   83.49   18.00
   0  23   6   52.69   13.80
  -1 -23  -6   34.70   15.70
 -12   0   7    4.30    9.40
 -11   0   7   -5.30    7.40
  11   0  -7    5.30    7.20
  10   0  -7   -4.40    4.90
 -10   0   7   -5.70    5.20
   9   0  -7   66.49    9.40
  -9   0   7   77.29   11.10
  -8   0   7   -0.20    3.50
   8   0  -7    1.30    3.50
   7   0  -7  136.89   10.00
  -7   0   7  150.28   12.30
   6   0  -7   -0.20    1.80
  -6   0   7   -4.60    2.40
  -6   0   7    2.40    2.60
  -5   0   7   86.49    5.90
  -5   0   7   82.99    8.00
   5   0  -7   90.59    6.00
  -4   0   7   -1.30    1.80
   4   0  -7   -1.00    1.00
  -4   0   7   -0.60    1.10
   3   0  -7  146.39    4.50
   3   0  -7  135.69    8.00
   3   0  -7  144.69    9.50
   2   0  -7    1.80    1.60
   2   0  -7   -0.40    1.90
  -1   0   7 1206.08   32.20
   1   0  -7 1237.98   32.60
   1   0  -7 1279.97   26.90
   0   0  -7    0.40    1.00
   0   0  -7    0.90    1.20
   0   0   7    0.80    0.90
   0   0   7   -1.40    1.40
  -1   0  -7    6.40    2.00
   1   0   7    7.00    2.20
  -1   0  -7    8.70    2.80
   1   0   7    6.90    2.30
  -2   0  -7    0.90    1.80
   2   0   7    0.40    1.70
   2   0   7    1.90    1.80
  -2   0  -7    0.50    1.70
  -3   0  -7 1729.53   47.00
   3   0   7 1744.13   47.00
  -4   0  -7    2.40    2.60
   4   0   7    4.60    2.50
  -5   0  -7   95.89   10.00
   5   0   7   89.49    9.80
   6   0   7    0.20    4.00
  -6   0  -7    0.60    3.70
   7   0   7   16.00    6.60
  -7   0  -7   28.50    7.40
   8   0   7    0.70    6.40
  -8   0  -7    1.40    6.00
   9   0   7  176.38   18.50
  -9   0  -7  156.68   17.20
  10   0   7   -4.50    8.00
 -12  -1   7   -9.70   10.80
 -11  -1   7   12.40    9.80
  11  -1  -7   12.30    7.20
 -11   1   7   18.40    8.00
  11   1  -7    9.30    7.40
 -10  -1   7   43.80   10.30
  10  -1  -7   33.00    8.40
 -10   1   7   42.40    9.80
  10   1  -7   27.60    8.20
   9  -1  -7   16.60    5.30
  -9  -1   7    3.20    5.50
   9   1  -7    1.60    4.10
  -9   1   7    4.60    5.60
  -8  -1   7  652.83   28.70
   8  -1  -7  604.74   24.80
  -8   1   7  705.33   28.20
   8   1  -7  655.43   25.80
  -7  -1   7   22.20    6.60
   7  -1  -7   18.40    4.80
   7   1  -7   20.60    4.80
  -7   1   7   19.10    5.90
  -6  -1   7    5.10    3.20
  -6  -1   7    6.60    3.90
   6  -1  -7    6.60    2.90
  -6   1   7    7.10    3.80
   6   1  -7   -0.60    2.20
  -6   1   7    8.70    2.90
   5  -1  -7  170.78    8.30
  -5  -1   7  171.18    8.30
  -5  -1   7  172.68   11.50
  -5   1   7  168.78   11.00
   5   1  -7  163.68    8.40
  -5   1   7  170.78    8.30
   4  -1  -7  165.08    6.70
  -4  -1   7  175.78    6.90
  -4  -1   7  160.68   10.50
   4  -1  -7  173.08    9.30
  -4   1   7  172.48    6.70
  -4   1   7  177.58   10.60
   4   1  -7  171.38    7.20
  -3  -1   7    8.30    2.80
   3  -1  -7    6.60    2.20
   3  -1  -7    5.50    2.50
   3   1  -7   10.70    3.20
   3   1  -7   11.40    1.60
  -3   1   7    7.70    1.00
   2  -1  -7  857.81   25.20
   2  -1  -7  883.01   26.90
   2   1  -7  891.11   19.10
   2   1  -7  901.61   27.70
   2   1  -7  881.41   25.40
   2   1  -7  902.81   19.10
   1  -1  -7  712.93   21.60
  -1   1   7  697.93   15.70
   1   1  -7  712.53   16.90
   1   1  -7  687.33   22.70
  -1   1   7  701.43   21.00
   1   1  -7  724.83   21.60
   0  -1   7   23.50    2.70
   0  -1  -7   21.90    3.40
   0  -1  -7   16.20    2.20
   0  -1   7   18.60    3.00
   0   1  -7   20.00    2.50
   0   1   7   23.30    2.50
   0   1   7   19.30    3.70
   0   1  -7   16.80    2.90
   1  -1   7  261.97   11.30
  -1  -1  -7  239.98   10.10
   1  -1   7  281.87   11.20
  -1  -1  -7  257.87   12.20
   1   1   7  278.77   11.80
  -1   1  -7  264.67   11.80
  -1   1  -7  270.17   10.80
   1   1   7  270.27   10.90
  -2  -1  -7  356.26   15.40
   2  -1   7  369.16   14.90
   2  -1   7  337.77   13.60
  -2  -1  -7  346.97   14.00
  -2   1  -7  336.07   14.50
   2   1   7  363.86   14.70
  -2   1  -7  340.57   14.10
   3  -1   7   89.09    7.90
  -3  -1  -7   94.89    8.20
   3   1   7   95.29    8.10
  -3   1  -7  102.49    8.10
  -4  -1  -7  471.15   20.70
   4  -1   7  438.56   20.10
   4   1   7  498.75   21.10
  -4   1  -7  471.05   20.00
   5  -1   7    7.50    4.30
  -5  -1  -7    8.70    4.00
   5   1   7    1.10    2.60
  -5   1  -7    2.50    3.60
  -6  -1  -7  193.68   15.00
   6  -1   7  197.48   15.10
   6   1   7  207.68   15.40
  -7  -1  -7   57.89   10.30
   7  -1   7   51.09   10.00
  -7   1  -7   52.99    9.60
   7   1   7   51.79   10.10
   8  -1   7  143.79   16.00
  -8  -1  -7  147.89   15.50
  -8   1  -7  106.79   13.50
   8   1   7  131.99   15.40
  -9  -1  -7   -2.10    7.10
   9  -1   7   -0.40    7.10
  -9   1  -7   -2.90    7.70
   9   1   7   -0.20    8.00
  10  -1   7   80.29   15.80
 -10  -1  -7   50.59   13.10
  10   1   7   48.90   12.60
 -12  -2   7    9.00    9.60
  12   2  -7   34.10   17.10
  11  -2  -7    6.30    6.10
 -11  -2   7   -6.60    7.10
 -11   2   7   -9.80    7.40
  11   2  -7    0.20    7.20
 -10  -2   7   -6.10    6.20
  10  -2  -7   -3.30    4.70
  10   2  -7    2.10    5.40
 -10   2   7    2.10    6.00
  -9  -2   7  178.98   15.60
   9  -2  -7  197.98   14.40
  -9   2   7  172.08   14.20
   9   2  -7  169.48   14.10
  -8  -2   7   16.70    6.20
   8  -2  -7   29.10    6.20
  -8   2   7   20.60    5.90
   8   2  -7   25.50    5.30
  -7  -2   7  139.09   12.20
   7  -2  -7  161.28   10.40
  -7   2   7  187.48   12.70
   7   2  -7  135.59   10.50
  -6  -2   7  270.47   12.40
  -6  -2   7  286.07   16.30
   6  -2  -7  275.17   12.50
  -6   2   7  288.27   15.00
   6   2  -7  261.47   12.80
  -6   2   7  263.77   12.30
   5  -2  -7    1.70    2.10
  -5  -2   7    1.60    2.10
  -5  -2   7    5.10    3.60
   5  -2  -7    1.00    1.40
   5   2  -7    2.00    1.90
  -5   2   7    0.00    1.80
  -5   2   7   -1.20    2.20
   4  -2  -7   19.80    2.40
   4  -2  -7   20.80    3.40
  -4  -2   7   18.70    4.70
   4   2  -7   21.00    3.00
  -4   2   7   22.00    2.60
   3  -2  -7 1259.37   33.70
   3  -2  -7 1244.28   35.50
  -3  -2   7 1286.87   36.90
   3   2  -7 1298.57   29.70
  -3   2   7 1277.27   27.60
   2  -2  -7  210.08   10.90
   2  -2  -7  217.58   10.10
   2   2  -7  241.08   10.70
   2   2  -7  218.28    6.90
   2   2  -7  220.38   11.60
   2   2  -7  224.78    6.90
   1  -2  -7   32.30    4.00
   1   2  -7   22.40    4.20
   1   2  -7   25.50    3.60
  -1   2   7   24.70    1.90
  -1   2   7   30.40    3.80
   1   2  -7   29.50    2.50
   0  -2  -7   98.59    6.90
   0  -2   7   86.29    6.00
   0  -2  -7   88.39    4.70
   0  -2   7   91.49    5.20
   0   2  -7   91.29    5.30
   0   2   7   89.59    6.30
   0   2   7   95.49    5.00
   0   2  -7   90.19    6.20
  -1  -2  -7  219.58   11.20
  -1  -2  -7  222.18    9.50
   1  -2   7  222.88    9.90
   1  -2   7  217.48    9.80
   1   2   7  202.58   10.20
   1   2   7  213.28    9.70
  -1   2  -7  199.08   10.00
  -1   2  -7  211.28    9.80
   2  -2   7    1.50    1.90
  -2  -2  -7   -1.70    1.60
  -2  -2  -7    1.80    2.00
  -2   2  -7   -0.10    1.50
  -2   2  -7    0.70    1.90
   2   2   7    0.40    1.70
   3  -2   7  423.36   17.80
  -3  -2  -7  440.66   18.80
  -3   2  -7  383.86   16.50
   3   2   7  396.76   17.50
  -4  -2  -7   41.80    6.50
   4  -2   7   30.40    5.60
   4   2   7   28.10    6.90
  -4   2  -7   30.40    5.50
  -5  -2  -7   48.40   10.20
   5  -2   7   52.39    7.50
   5   2   7   54.19    8.20
  -5   2  -7   42.30    6.80
  -6  -2  -7   20.00    5.60
   6  -2   7   17.90    5.20
   6   2   7   27.30    7.30
  -6   2  -7   26.50    6.40
   7  -2   7   66.39   10.80
  -7  -2  -7   86.99   12.00
   7   2   7  103.49   12.90
  -7   2  -7   92.89   10.40
   8  -2   7    1.10    5.70
  -8  -2  -7    6.20    6.90
  -8   2  -7   -4.10    6.00
   8   2   7    7.60    6.90
   9  -2   7   13.90    8.00
  -9  -2  -7   12.80    8.70
  -9   2  -7   -8.10    7.80
   9   2   7    8.90    7.30
 -10  -2  -7   -4.30    9.70
  10  -2   7    1.70    8.40
  10   2   7   -6.90    7.70
 -12  -3   7    4.90   10.40
 -12   3   7   10.90    9.70
  12   3  -7    7.60   13.80
  11  -3  -7    3.70    6.30
 -11  -3   7    7.80    9.30
 -11   3   7    6.90    6.80
  11   3  -7   19.60    8.60
  10  -3  -7    0.40    4.60
 -10  -3   7    1.90    5.90
  10   3  -7   -5.80    5.10
 -10   3   7   -6.30    5.80
   9  -3  -7   -1.20    3.90
  -9  -3   7    2.30    4.80
  -9   3   7    2.80    4.70
   9   3  -7    3.70    4.30
   8  -3  -7  186.18   12.80
  -8  -3   7  203.68   16.20
  -8   3   7  183.58   13.10
  -7  -3   7  219.28   15.30
   7  -3  -7  208.68   12.10
  -7   3   7  193.48   12.70
   7   3  -7  209.98   12.80
  -6  -3   7   47.30    7.20
   6  -3  -7   47.50    5.40
  -6  -3   7   39.50    5.70
   6  -3  -7   48.40    5.40
  -6   3   7   38.60    6.30
  -6   3   7   36.60    5.80
   6   3  -7   50.69    5.90
  -5  -3   7   78.39    8.50
   5  -3  -7   87.89    5.80
   5  -3  -7   80.99    6.50
   5   3  -7   93.49    6.90
  -5   3   7   87.59    6.30
   4  -3  -7  990.70   28.20
  -4  -3   7 1021.00   32.80
  -4   3   7 1007.40   25.40
   4   3  -7 1006.80   26.80
   3  -3  -7  137.39    7.80
  -3  -3   7  146.99    9.80
  -3   3   7  138.69    5.30
   3   3  -7  140.39    6.40
  -2  -3   7  227.08   11.80
   2  -3  -7  231.28   10.50
  -2   3   7  224.18   10.10
   2   3  -7  225.98   12.10
  -2   3   7  226.68    6.40
   2   3  -7  226.08   10.60
  -2   3   7  231.48    6.50
   1  -3  -7  314.77   12.80
   1   3  -7  324.97   14.10
  -1   3   7  312.47   12.50
  -1   3   7  306.27    9.30
   1   3  -7  306.37   10.30
   1   3  -7  312.67   12.50
   0  -3  -7   38.10    3.20
   0  -3  -7   37.20    4.70
   0   3  -7   40.00    4.20
   0   3   7   37.20    3.40
   0   3  -7   38.20    3.80
   0   3  -7   34.90    4.50
   0   3   7   42.70    4.60
   1  -3   7    6.30    2.40
  -1  -3  -7    8.70    2.40
  -1  -3  -7    8.90    3.00
  -1   3  -7    7.10    2.40
  -1   3  -7    4.40    2.10
   1   3   7    8.00    2.50
  -2  -3  -7  535.05   20.90
  -2  -3  -7  536.65   18.70
   2  -3   7  533.65   19.50
   2   3   7  567.94   19.80
  -2   3  -7  513.35   19.10
  -2   3  -7  562.34   20.70
  -3  -3  -7   41.80    6.30
   3  -3   7   38.50    5.60
   3  -3   7   42.20    5.00
  -3   3  -7   42.50    5.10
   3   3   7   45.70    6.00
  -4  -3  -7   38.60    6.80
   4  -3   7   43.10    6.30
  -4   3  -7   45.80    5.90
   4   3   7   56.69    7.30
  -5  -3  -7   44.30    7.60
   5  -3   7   58.19    8.00
  -5   3  -7   52.19    7.30
   5   3   7   45.00    7.50
   6  -3   7   75.49   10.10
  -6  -3  -7   83.29   10.90
  -6   3  -7   89.19    9.50
   6   3   7   80.09   11.20
   7  -3   7   30.70    8.00
  -7  -3  -7   30.60    7.80
   7   3   7   34.70    8.60
  -7   3  -7   57.59    8.90
   8  -3   7    5.50    6.70
  -8  -3  -7   10.40    7.90
  -8   3  -7   16.90    7.60
   8   3   7   20.60    8.70
   9  -3   7    3.80    6.80
  -9  -3  -7   -1.70    9.80
  -9   3  -7   18.60    8.50
   9   3   7    6.30    7.70
  10  -3   7    8.70   10.20
 -10  -3  -7    5.00   10.80
  10   3   7   12.50    8.90
  12  -4  -7   23.60   10.00
 -12  -4   7   49.40   12.70
  12   4  -7   58.19   12.70
  11  -4  -7    8.30    7.00
 -11  -4   7    3.10    8.10
  10  -4  -7   75.69   11.20
 -10  -4   7   84.19   13.80
  10  -4  -7   61.39    8.90
  10   4  -7   67.89   11.30
 -10   4   7   62.09   10.90
   9  -4  -7   48.30    8.80
  -9  -4   7   62.29   10.90
  -9   4   7   43.90    8.80
   9   4  -7   74.69   10.40
  -8  -4   7  296.47   20.00
   8  -4  -7  321.37   15.40
   8  -4  -7  330.17   17.00
  -8   4   7  371.06   18.00
   8   4  -7  332.77   18.30
  -7  -4   7  813.42   33.00
   7  -4  -7  899.81   28.50
   7  -4  -7  844.92   26.80
   7   4  -7  817.42   29.30
   6  -4  -7  237.08   11.50
   6  -4  -7  236.88   11.50
  -6  -4   7  222.98   15.00
   6   4  -7  235.78   12.60
  -6   4   7  215.08   11.70
  -5  -4   7   58.99    7.40
   5  -4  -7   47.10    4.50
   5  -4  -7   45.80    4.80
  -5   4   7   36.50    4.60
   5   4  -7   42.40    5.00
  -4  -4   7    2.10    2.50
   4  -4  -7   -0.20    1.60
   4  -4  -7   -1.70    2.10
  -4   4   7    0.30    1.60
   4   4  -7    0.40    1.50
  -3  -4   7  717.93   25.10
   3  -4  -7  715.53   21.70
   3   4  -7  710.53   21.60
  -3   4   7  690.63   18.30
   2  -4  -7   58.89    5.30
  -2  -4   7   57.59    6.10
   2   4  -7   57.59    6.20
  -2   4   7   59.89    3.30
  -2   4   7   59.49    3.30
  -2   4   7   53.59    4.80
   1  -4  -7  983.50   28.00
  -1   4   7  962.50   23.60
   1   4  -7  966.50   27.10
   1   4  -7  938.51   28.90
   1   4  -7  935.21   24.70
  -1   4   7  953.60   26.90
   0  -4  -7  182.78   10.00
   0   4  -7  175.98    9.90
   0   4  -7  183.78    8.50
   0   4  -7  201.98    9.50
   0   4   7  168.68    9.30
   0   4   7  181.88    8.20
  -1  -4  -7   46.30    5.50
   1  -4   7   60.69    5.50
  -1  -4  -7   48.90    4.50
   1   4   7   64.39    5.40
  -1   4  -7   47.20    4.60
  -1   4  -7   52.49    6.60
  -2  -4  -7   24.10    4.00
  -2  -4  -7   12.60    3.60
   2  -4   7   11.10    3.20
  -2   4  -7   25.30    4.80
  -2   4  -7   28.20    3.90
   2   4   7   17.30    3.90
   3  -4   7  387.56   14.80
   3  -4   7  427.66   18.50
  -3  -4  -7  437.76   19.80
  -3   4  -7  446.16   16.80
   3   4   7  408.36   18.30
  -4  -4  -7   54.69    7.90
   4  -4   7   73.69    8.20
   4   4   7   58.59    7.70
  -4   4  -7   67.89    7.00
  -5  -4  -7   -1.00    3.10
   5  -4   7   -2.70    2.80
   5   4   7    1.20    3.20
  -5   4  -7    0.10    2.90
   6  -4   7   51.49    9.00
  -6  -4  -7   41.90    9.20
   6   4   7   67.69   10.30
  -6   4  -7   42.40    7.40
   7  -4   7  116.39   13.00
  -7  -4  -7  138.49   14.40
  -7   4  -7  119.69   11.70
   7   4   7  119.09   13.10
  -8  -4  -7   15.10    9.10
  -8   4  -7    7.50    7.10
   8   4   7   14.00   14.10
  -9  -4  -7  145.19   19.20
   9  -4   7  120.99   16.90
   9   4   7  149.29   18.20
  -9   4  -7  161.48   15.50
 -10  -4  -7   23.20   11.40
  10  -4   7   37.30   11.70
 -10   4  -7   19.60   10.20
  10   4   7   25.70   11.80
 -12  -5   7   34.90   13.70
  12   5  -7   32.30   11.80
  11  -5  -7    0.70    7.10
  11  -5  -7   -4.50    6.70
 -11  -5   7    3.30    8.60
  11   5  -7    0.20    7.20
  10  -5  -7   23.60    7.80
 -10  -5   7   21.70   11.10
  10  -5  -7   19.70    6.20
  10   5  -7   18.50    7.10
  -9  -5   7   13.70    7.60
   9  -5  -7   21.70    4.60
   9  -5  -7   24.90    6.60
   9   5  -7   27.40    7.70
   8  -5  -7  166.18   10.60
  -8  -5   7  168.88   15.00
   8   5  -7  172.88   13.60
   7  -5  -7    0.40    2.90
  -7  -5   7    5.50    4.20
   7  -5  -7   10.60    3.30
   7   5  -7    5.50    3.40
   6  -5  -7    9.20    2.80
  -6  -5   7    3.10    3.40
   6  -5  -7    9.40    2.80
  -6   5   7    2.70    3.50
   6   5  -7    5.20    2.90
   5  -5  -7  130.99    8.00
  -5  -5   7  125.89   10.80
   5  -5  -7  125.69    9.30
   5   5  -7  149.39    9.40
  -5   5   7  125.59    9.00
   4  -5  -7   -0.80    2.70
  -4  -5   7    1.60    2.20
   4  -5  -7    4.10    2.10
   4   5  -7    1.20    1.80
  -4   5   7    3.30    1.70
   3  -5  -7   51.69    4.90
  -3  -5   7   68.89    7.30
  -3   5   7   50.49    3.90
   3   5  -7   46.40    4.30
   2  -5  -7 1327.37   34.90
  -2  -5   7 1280.17   37.40
  -2   5   7 1295.17   34.00
  -2   5   7 1306.37   31.10
   1  -5  -7   38.60    4.50
  -1   5   7   41.90    4.50
   1   5  -7   36.50    5.10
   1   5  -7   39.50    4.40
   1   5  -7   39.20    3.90
  -1   5   7   35.90    3.30
   0  -5  -7  186.88   10.30
   0   5  -7  180.78    9.00
   0   5  -7  191.08    9.30
   0   5   7  174.88    8.50
   0   5  -7  178.88   10.20
  -1  -5  -7  282.27   13.20
   1  -5   7  295.67   12.90
  -1  -5  -7  302.77   14.60
   1   5   7  305.77   12.80
  -1   5  -7  264.27   12.40
  -1   5  -7  297.27   12.20
   2  -5   7  116.69    8.60
  -2  -5  -7  100.99    7.60
   2  -5   7  110.99    6.90
  -2  -5  -7  132.89   10.10
   2   5   7  122.39    8.70
  -2   5  -7  114.49    7.40
   3  -5   7   96.99    6.70
  -3  -5  -7  120.79   10.20
   3  -5   7  101.69    8.70
   3   5   7  104.99    9.10
  -3   5  -7  102.49    7.30
   4  -5   7  279.27   16.00
  -4  -5  -7  282.17   17.20
   4   5   7  266.47   16.00
  -4   5  -7  287.27   13.60
   5  -5   7    1.60    2.80
  -5  -5  -7    0.70    3.00
  -5   5  -7   -2.40    2.80
   5   5   7    4.90    3.90
  -6  -5  -7   27.90    7.40
   6  -5   7   33.40    7.10
  -6   5  -7   38.10    6.80
   6   5   7   32.90    8.30
   7  -5   7    0.30    4.80
  -7  -5  -7   -1.70    4.90
  -7   5  -7    2.50    4.50
   7   5   7   -3.90    4.80
  -8  -5  -7   89.29   14.10
   8  -5   7   91.39   13.50
   8   5   7   79.99   13.60
  -8   5  -7  100.39   12.30
   9  -5   7   -2.60    6.80
  -9  -5  -7    4.50    9.00
   9   5   7    9.60    8.80
  -9   5  -7    6.70    7.40
 -10  -5  -7   15.40   10.90
  10  -5   7    0.90    9.20
 -10   5  -7   19.50   12.90
  10   5   7   33.20   12.20
 -12  -6   7   10.70   10.20
  12   6  -7  -11.10    9.30
 -11  -6   7    1.30    8.40
  11   6  -7   11.40    8.10
 -10  -6   7   56.09   12.70
  10  -6  -7   61.09   11.40
  10   6  -7   65.89   12.10
  -9  -6   7   46.20   11.00
   9  -6  -7   49.80    8.80
   9  -6  -7   34.70    5.90
   9   6  -7   44.60    9.30
   8  -6  -7    0.70    3.10
  -8  -6   7    5.30    5.30
   8  -6  -7    0.30    3.00
   8   6  -7    3.10    4.30
   7  -6  -7   64.19    7.60
   7  -6  -7   73.49    6.40
  -7  -6   7   57.09    8.80
   7   6  -7   68.29    8.60
   6  -6  -7   65.29    5.70
  -6  -6   7   34.60    7.70
   6   6  -7   41.00    6.30
   5  -6  -7   91.39    8.10
   5  -6  -7  102.59    7.00
  -5   6   7  112.69    8.00
   5   6  -7  100.29    8.00
   4  -6  -7  109.89    7.90
   4  -6  -7  118.79    7.30
  -4  -6   7  107.69    9.90
   4   6  -7  119.29    7.90
  -4   6   7  105.59    6.80
   3  -6  -7  854.21   26.50
   3  -6  -7  907.91   25.70
  -3  -6   7  888.11   30.00
  -3   6   7  868.01   23.90
   3   6  -7  848.42   24.90
  -2  -6   7   32.70    5.20
   2  -6  -7   36.90    4.70
  -2   6   7   47.10    5.80
  -1  -6   7  353.06   15.40
   1  -6  -7  378.36   15.20
  -1   6   7  342.57   12.30
   1   6  -7  351.26   14.00
  -1   6   7  332.97   13.70
   1   6  -7  355.56   13.50
   1   6  -7  349.67   15.50
   0  -6  -7   86.69    7.40
   0   6  -7   91.29    7.40
   0   6   7   78.59    6.00
   0   6  -7   73.89    5.70
   0   6  -7   87.99    6.50
  -1  -6  -7  186.38   11.60
  -1   6  -7  188.48    9.30
  -1   6  -7  171.38   10.00
  -1   6  -7  188.18   10.40
   1   6   7  193.98   10.40
   2  -6   7   -0.60    2.00
  -2  -6  -7    2.50    2.30
  -2   6  -7    3.90    2.20
   2   6   7   -1.30    1.90
  -2   6  -7    0.30    2.40
   3  -6   7  147.39   10.70
  -3  -6  -7  155.98   12.00
   3  -6   7  150.78    8.20
   3   6   7  147.69   11.10
  -3   6  -7  156.88    9.10
  -4  -6  -7    9.50    4.30
   4  -6   7   11.50    4.80
   4  -6   7   19.40    4.10
  -4   6  -7    8.90    3.10
   4   6   7   18.50    5.80
   5  -6   7   -0.20    3.70
  -5  -6  -7    0.60    3.40
   5   6   7    2.10    3.60
  -5   6  -7   -2.90    2.60
  -6  -6  -7  112.59   12.80
   6  -6   7  118.79   12.90
  -6   6  -7  117.79   10.00
   6   6   7  122.89   13.30
  -7  -6  -7  287.87   22.10
   7  -6   7  386.66   23.40
  -7   6  -7  340.57   17.50
   7   6   7  350.16   22.40
   8  -6   7   30.60    8.50
   8   6   7   23.90    8.80
  -8   6  -7   18.20    6.90
  -9  -6  -7   10.70   10.00
   9  -6   7   45.50   12.00
  -9   6  -7   38.60    9.50
   9   6   7   38.50   10.90
  10  -6   7   11.80   10.40
 -10  -6  -7   22.00   13.10
  10   6   7   16.10   11.10
 -12  -7   7   43.80   15.60
  12   7  -7   17.40   10.80
 -11  -7   7    1.60    9.30
  11   7  -7    4.80    8.00
  10  -7  -7    4.80    6.00
 -10  -7   7   -4.50    7.00
  10   7  -7    8.30    5.80
   9  -7  -7   -0.40    4.70
   9  -7  -7    1.00    3.50
  -9  -7   7    1.10    6.30
   9   7  -7   -1.30    5.20
   8  -7  -7  146.69    9.10
  -8  -7   7  139.19   15.10
   8  -7  -7  174.78   12.50
   8   7  -7  152.38   13.50
  -7  -7   7    4.90    4.60
   7  -7  -7    3.70    2.70
   7   7  -7    8.00    4.10
  -6  -7   7   82.89   10.20
   6  -7  -7   71.59    6.00
   6   7  -7   68.99    8.10
   5  -7  -7    6.50    4.30
   5  -7  -7   13.80    3.20
  -5  -7   7   13.80    5.10
   5   7  -7   17.20    4.60
  -5   7   7   15.90    4.10
  -4  -7   7  373.96   19.10
   4  -7  -7  379.26   15.70
   4  -7  -7  390.76   14.50
  -4   7   7  377.46   15.70
   4   7  -7  402.36   16.20
  -3  -7   7   27.90    6.20
   3  -7  -7   27.40    3.90
  -3   7   7   26.50    4.10
  -3   7   7   29.30    4.00
   3   7  -7   29.90    4.00
  -2  -7   7  784.12   26.80
   2  -7  -7  749.73   23.80
  -2   7   7  759.02   23.20
  -1  -7   7   23.70    4.20
   1  -7  -7   17.70    3.70
   1   7  -7   16.30    3.60
  -1   7   7   22.60    3.10
   0  -7  -7   70.79    7.00
   0   7  -7   60.19    6.10
   0   7  -7   67.09    5.60
   0   7   7   63.99    5.70
   0   7  -7   64.29    6.50
  -1  -7  -7  225.28   13.20
  -1   7  -7  198.38   10.90
  -1   7  -7  223.18   10.20
   1   7   7  227.88   11.70
  -2  -7  -7 1022.90   34.30
   2   7   7  984.20   31.80
  -2   7  -7 1013.80   28.20
  -3  -7  -7  100.59   12.20
   3  -7   7  100.09    8.80
  -3   7  -7   89.09    7.00
   3   7   7   95.09    9.10
   4  -7   7   49.20    7.40
  -4  -7  -7   45.40    7.40
  -4   7  -7   55.59    6.00
   4   7   7   55.19    8.10
  -5  -7  -7   48.30    9.50
   5  -7   7   62.79    9.10
   5   7   7   59.89    9.30
  -5   7  -7   58.09    6.70
   6  -7   7    7.20    5.20
  -6  -7  -7   -1.20    4.90
   6  -7   7    3.90    5.30
   6   7   7    4.00    4.80
  -6   7  -7    8.80    4.00
  -7  -7  -7    1.10    5.60
   7  -7   7   -2.20    5.30
  -7   7  -7   -0.20    4.20
   7   7   7    2.00    5.10
  -8  -7  -7  114.49   16.80
   8  -7   7  159.18   16.30
   8   7   7  108.29   15.40
  -8   7  -7  146.19   11.70
   9  -7   7   -1.20    7.90
  -9  -7  -7   -1.70    8.70
   9   7   7   -1.40    7.10
 -10  -7  -7   -7.20   11.70
  10  -7   7    7.60   11.00
  10   7   7    8.40   11.20
 -11  -8   7   21.40   11.10
  11   8  -7   33.40   10.30
  10  -8  -7   -0.80    5.70
  10  -8  -7   -0.40    4.60
 -10  -8   7    4.00    7.70
  10   8  -7  -14.00    6.40
  -9  -8   7  136.69   23.80
   9   8  -7  133.79   14.10
   8  -8  -7    2.20    2.90
  -8  -8   7    2.30    4.60
   8   8  -7    1.30    4.70
   7  -8  -7   61.89    5.80
  -7  -8   7   71.99   10.70
   7   8  -7   76.19    9.40
  -6  -8   7   75.19    9.90
   6  -8  -7   64.49    5.70
   6   8  -7   77.89    9.00
   5  -8  -7   23.60    4.50
   5  -8  -7   16.50    3.60
  -5  -8   7   21.50    5.30
   5   8  -7   20.60    4.70
  -4  -8   7    5.60    3.10
   4  -8  -7    8.80    2.70
   4  -8  -7    9.50    3.80
  -4   8   7    9.30    3.50
   4   8  -7    8.20    2.80
   3  -8  -7  916.51   27.10
  -3  -8   7  948.81   32.10
  -3   8   7  914.71   26.80
   3   8  -7  894.31   27.90
  -3   8   7  908.21   26.30
  -2  -8   7  108.99    9.20
   2  -8  -7  126.09    8.50
   1  -8  -7  586.34   21.70
  -1  -8   7  623.14   22.70
  -1   8   7  652.53   20.50
   0  -8  -7  108.59    8.90
   0   8  -7  118.59    7.40
   0   8   7  110.79    7.80
  -1  -8  -7  364.26   17.50
  -1   8  -7  314.87   14.20
  -1   8  -7  338.17   13.20
   1   8   7  310.77   14.80
  -2  -8  -7   85.19    8.90
  -2   8  -7   77.49    6.10
   2   8   7   75.19    7.90
  -3  -8  -7  103.99   10.60
   3   8   7  110.49   10.10
  -3   8  -7  120.69    7.50
   4  -8   7   59.49    8.20
  -4  -8  -7   49.60    8.00
   4   8   7   67.79    9.00
  -4   8  -7   63.39    5.80
  -5  -8  -7    2.20    5.10
   5  -8   7    1.90    3.80
   5   8   7    2.80    3.90
  -5   8  -7    4.30    3.30
  -6  -8  -7    7.60    6.30
   6  -8   7   -2.80    4.20
  -6   8  -7   10.60    3.90
   6   8   7    3.50    5.90
  -7  -8  -7  232.88   20.00
   7  -8   7  219.68   18.30
   7   8   7  240.28   19.40
  -8  -8  -7    6.80    8.00
   8  -8   7    1.20    7.30
  -8   8  -7    7.00    5.60
   8   8   7    8.20    6.70
  -9  -8  -7   17.10   10.90
   9  -8   7   30.10   11.10
   9   8   7   11.00    8.80
 -10  -8  -7   -6.70   11.90
  10  -8   7    4.50    8.70
  10   8   7    4.30   12.90
 -11  -9   7   10.30   10.80
  11   9  -7   54.59   12.80
 -10  -9   7    4.70    8.10
  10   9  -7   12.10    7.30
   9  -9  -7   -0.80    3.70
  -9  -9   7   15.80    7.70
   9   9  -7   -2.50    5.60
   8  -9  -7  124.99   12.40
  -8  -9   7  137.99   15.00
   8  -9  -7  139.39   12.10
   8   9  -7  147.69   14.00
   7  -9  -7   89.99    6.70
  -7  -9   7   97.29   12.30
   7  -9  -7   82.79    9.40
   7   9  -7  100.99   11.10
  -6  -9   7   16.10    5.50
   6  -9  -7   11.70    3.10
   6   9  -7   14.30    5.40
   5  -9  -7   85.19    8.70
  -5  -9   7   76.29    9.70
   5  -9  -7   63.59    5.70
   5   9  -7   80.29    8.50
   4  -9  -7   81.59    7.60
   4  -9  -7   84.09    6.60
  -4  -9   7   93.59    9.90
   4   9  -7  102.99    8.80
  -3  -9   7   33.30    6.90
   3  -9  -7   22.60    4.00
   3   9  -7   25.50    4.80
  -3   9   7   16.00    4.60
  -3   9   7   21.80    4.60
  -2  -9   7  689.23   25.70
   2  -9  -7  661.63   22.80
   1  -9  -7  246.28   13.10
  -1  -9   7  228.38   12.90
  -1   9   7  252.27   11.90
   0  -9  -7   50.49    6.80
   0   9   7   41.10    5.50
   0   9  -7   47.40    5.00
  -1  -9  -7    6.90    3.40
  -1   9  -7   15.00    3.30
  -1   9  -7   19.00    4.10
   1   9   7    8.10    3.00
  -2   9  -7  353.46   13.80
   2   9   7  356.76   17.40
  -3  -9  -7    3.40    3.10
  -3   9  -7    0.80    1.90
   3   9   7    2.40    5.90
   4  -9   7  160.88   13.30
  -4  -9  -7  185.98   15.20
   4   9   7  163.98   13.50
  -4   9  -7  185.58    9.70
   5  -9   7  161.78   13.80
  -5  -9  -7  175.88   15.70
  -5   9  -7  178.88    9.80
   5   9   7  166.68   14.50
  -6  -9  -7  123.49   15.10
   6  -9   7  141.49   14.00
   6   9   7  126.39   14.50
  -6   9  -7  130.49    8.20
  -7  -9  -7   27.00   13.90
   7  -9   7    9.30    7.00
   7   9   7   13.10    9.20
  -7   9  -7   20.70    4.60
  -8  -9  -7   51.39   12.40
   8  -9   7   20.40    7.80
   8   9   7   32.00    9.90
   9  -9   7   -0.60    7.30
  -9  -9  -7    1.10   10.50
   9   9   7   11.50    9.00
  10  -9   7    5.50   10.20
 -10  -9  -7    9.40   13.70
  10   9   7   20.70   11.40
 -11 -10   7    1.40   10.30
  11  10  -7   -0.80    8.90
 -10 -10   7   10.90    8.20
  10  10  -7   12.80    8.20
  -9 -10   7   13.80    6.90
   9 -10  -7   10.10    4.20
   9  10  -7    9.80    6.60
  -8 -10   7    6.70    6.80
   8  10  -7    6.30    6.00
   7 -10  -7  330.87   12.50
   7 -10  -7  340.47   17.90
  -7 -10   7  346.77   22.90
   7  10  -7  280.27   18.20
   6 -10  -7  162.18    8.60
  -6 -10   7  155.38   14.90
   6  10  -7  155.98   12.80
   5 -10  -7    1.40    2.50
  -5 -10   7    2.50    4.20
  -4 -10   7   15.80    5.50
   4 -10  -7   18.00    3.90
   4 -10  -7   10.00    4.20
   4  10  -7   17.50    5.40
   3 -10  -7  177.98    9.90
  -3 -10   7  157.38   12.20
   3  10  -7  160.78   10.80
   2 -10  -7    8.50    3.60
  -2 -10   7    7.30    3.80
  -1 -10   7  219.28   12.80
   1 -10  -7  218.28   12.70
  -1  10   7  226.88   11.90
   0 -10  -7   12.30    3.70
   0  10  -7   12.70    3.20
   0  10   7    7.30    3.50
  -1 -10  -7   42.90    7.20
   1  10   7   58.89    7.10
  -1  10  -7   59.39    5.50
  -2 -10  -7   61.19    8.10
  -2  10  -7   58.09    5.30
   2  10   7   46.80    7.40
  -3 -10  -7  562.34   26.60
   3  10   7  551.44   24.90
  -3  10  -7  541.25   17.90
  -4 -10  -7  218.08   17.00
   4  10   7  207.68   15.60
  -4  10  -7  209.58    9.90
   5 -10   7   26.90    6.70
  -5 -10  -7   25.70    8.40
  -5  10  -7   21.40    3.80
   5  10   7   24.90    7.00
   6 -10   7    8.20    5.00
  -6 -10  -7    8.00    6.40
   6  10   7   -3.30    4.80
   7 -10   7   17.90    7.90
  -7 -10  -7   18.40    8.80
   7  10   7   17.10    7.40
   8 -10   7    5.80    6.80
  -8 -10  -7   13.10    9.10
   8  10   7   11.30    8.50
   9 -10   7  119.19   17.30
  -9 -10  -7  100.19   18.60
   9  10   7   87.19   17.50
 -11 -11   7  -21.00   10.80
  11  11  -7    7.70   10.70
 -10 -11   7   26.30   11.10
  10  11  -7   26.00    9.70
  -9 -11   7   47.10   12.10
   9  11  -7   52.59   11.70
  -8 -11   7   89.09   13.10
   8 -11  -7   68.19    5.40
   8  11  -7   70.59   11.20
   7 -11  -7    1.20    2.60
   7 -11  -7   -1.50    4.30
  -7 -11   7   -3.40    4.60
   7  11  -7    4.00    5.00
  -6 -11   7   96.69   12.20
   6 -11  -7  102.49    8.50
   6 -11  -7   95.69    6.70
   6  11  -7   97.19   11.00
  -5 -11   7    7.00    4.80
   5 -11  -7    8.50    3.10
   5  11  -7    6.90    4.40
  -4 -11   7   39.70    7.80
   4 -11  -7   44.90    5.50
   4  11  -7   48.40    7.70
  -3 -11   7   85.39    9.70
   3 -11  -7   96.79    7.80
   3  11  -7  107.79    9.50
   2 -11  -7   74.79    7.50
  -2 -11   7   77.09    8.50
  -1 -11   7  122.79    9.70
   1 -11  -7  124.19    9.90
  -1  11   7  145.29    9.80
   0 -11  -7  201.48   13.50
   0  11   7  201.28   12.40
   0  11  -7  203.78   10.80
  -1  11  -7  492.25   17.30
   1  11   7  473.45   21.10
  -2 -11  -7  482.05   23.80
  -2  11  -7  509.55   17.20
   2  11   7  515.55   23.00
  -3 -11  -7   67.49   10.20
   3  11   7   90.69   10.30
  -3  11  -7   82.19    6.10
  -4 -11  -7   34.00    8.40
   4  11   7   46.60    9.10
  -4  11  -7   40.40    4.70
  -5 -11  -7   13.70    7.10
   5  11   7   -1.30    4.40
  -5  11  -7    5.60    3.00
  -6 -11  -7    1.80    6.20
   6  11   7   -8.20    4.50
  -7 -11  -7    6.40    8.20
   7 -11   7   -3.50    5.30
   7  11   7   -8.60    5.50
   8 -11   7   74.59   14.90
  -8 -11  -7   68.79   14.90
   8  11   7   97.69   17.50
   9 -11   7  -12.70    7.70
  -9 -11  -7    1.70   11.00
   9  11   7   31.80   11.00
 -10 -12   7    6.60    9.60
  10  12  -7  -10.70    7.60
  -9 -12   7  113.29   16.10
   9  12  -7  121.69   15.00
  -8 -12   7   -2.60    6.00
   8  12  -7    1.80    5.70
   7 -12  -7   12.70    2.80
   7 -12  -7    9.30    3.70
  -7 -12   7   11.30    6.90
   7  12  -7    9.40    6.20
   6 -12  -7   10.90    4.70
  -6 -12   7   10.10    5.50
   6  12  -7   28.30    7.20
   5 -12  -7   15.90    3.50
  -5 -12   7   17.90    7.20
   5  12  -7   21.00    5.90
  -4 -12   7   50.89    8.80
   4 -12  -7   38.30    5.50
   4  12  -7   46.00    7.60
   3 -12  -7  285.17   14.00
  -3 -12   7  253.37   16.50
   3  12  -7  287.27   16.20
   2 -12  -7    0.50    2.70
  -2 -12   7   -0.70    2.90
  -1 -12   7    2.40    2.60
   1 -12  -7    0.80    2.30
  -1  12   7    1.70    2.70
   0 -12  -7    1.30    2.90
   0  12   7   -3.70    2.40
   0  12  -7    1.50    2.00
  -1 -12  -7  199.68   14.30
  -1  12  -7  203.68   10.50
   1  12   7  200.28   13.50
  -2 -12  -7   43.70    8.60
  -2  12  -7   32.60    4.40
   2  12   7   28.10    6.60
  -3 -12  -7  237.38   17.60
  -3  12  -7  195.08    9.40
   3  12   7  232.28   16.00
  -4 -12  -7   30.10    9.00
   4  12   7   38.20    9.00
  -4  12  -7   36.20    4.40
  -5 -12  -7   43.40   10.10
   5  12   7   47.60   10.80
  -6 -12  -7    7.40    7.10
  -7 -12  -7  170.98   19.20
   7  12   7  135.99   17.40
  -8 -12  -7   13.90   10.60
   8  12   7    7.10    9.00
  -9 -12  -7    4.60   13.50
   9  12   7   60.29   18.80
 -10 -13   7  101.59   19.80
  10  13  -7   73.69   14.40
  -9 -13   7   33.60   11.00
   9  13  -7   30.90    9.90
  -8 -13   7   59.49   12.30
   8  13  -7   43.10   11.50
  -7 -13   7  121.49   23.80
   7  13  -7  141.29   15.10
   6 -13  -7   95.59    6.20
  -6 -13   7  107.69   13.10
   6 -13  -7   96.39    7.40
   6  13  -7   99.39   12.50
   5 -13  -7   18.80    5.20
   5 -13  -7    9.90    3.50
  -5 -13   7   10.10    5.30
   5  13  -7    3.50    4.40
  -4 -13   7  154.98   13.50
   4 -13  -7  166.88   10.00
   4  13  -7  177.58   13.70
  -3 -13   7   41.50    7.80
   3 -13  -7   39.30    6.40
   3  13  -7   32.70    6.80
  -2 -13   7   73.89    9.30
   2 -13  -7   82.69    8.30
   1 -13  -7   74.59    8.00
  -1 -13   7   85.29    8.60
  -1  13   7   81.69   11.50
   0  13  -7   24.20    4.70
   0  13   7   12.90    4.50
  -1 -13  -7   18.10    5.30
   1  13   7   27.40    6.10
  -1  13  -7   13.00    3.60
  -2 -13  -7  230.88   16.70
  -2  13  -7  239.08   10.90
   2  13   7  266.87   16.90
  -3 -13  -7   24.10    7.80
   3  13   7   28.30    8.00
  -3  13  -7   40.10    4.70
  -4  13  -7   41.00    4.10
   4  13   7   52.19   10.30
  -5 -13  -7   98.39   14.30
   5  13   7  124.99   15.00
  -6 -13  -7    6.70    8.50
   6  13   7   12.70    6.20
  -7 -13  -7   27.60   10.80
   7  13   7    8.50    8.30
  -8 -13  -7   52.09   14.90
   8  13   7   53.49   14.40
 -10 -14   7   19.40   11.40
  10  14  -7  -10.60    9.30
  -9 -14   7   30.50    9.20
   9  14  -7   11.20    9.00
  -8 -14   7    6.50    7.90
   8  14  -7   -1.60    7.30
  -7 -14   7   77.79   13.00
   7  14  -7   77.39   13.00
  -6 -14   7   26.20    7.00
   6  14  -7   17.80    8.00
   5 -14  -7   63.59    6.50
  -5 -14   7   58.79   10.70
   5 -14  -7   54.19    8.00
   5  14  -7   72.79   10.30
  -4 -14   7    1.00    4.20
   4 -14  -7   12.40    5.30
   4 -14  -7    3.10    3.20
   4  14  -7    4.50    4.30
  -3 -14   7   11.20    6.20
   3 -14  -7    6.00    3.60
   3  14  -7   12.10    4.90
  -2 -14   7  101.49   10.70
   2 -14  -7   99.19    9.40
  -1 -14   7   65.19    8.30
   1 -14  -7   51.89    8.40
  -1  14   7   61.49    8.40
   0 -14  -7   37.20    7.40
   0  14   7   43.40    7.80
   0  14  -7   39.40    5.90
  -1 -14  -7  346.07   20.20
   1  14   7  328.87   18.80
  -1  14  -7  307.67   13.80
  -2 -14  -7    4.20    4.50
  -2  14  -7    3.00    2.50
   2  14   7   -2.90    3.50
  -3 -14  -7  235.68   19.00
   3  14   7  271.97   18.20
  -3  14  -7  234.98    9.90
  -4 -14  -7    2.00    5.30
   4  14   7    0.40    5.70
  -5 -14  -7   -1.80    6.30
  -6 -14  -7    8.60    8.10
   6  14   7   -5.00    6.00
  -7 -14  -7   22.50    9.90
   7  14   7   22.90   10.30
  -8 -14  -7    0.40   11.80
   8  14   7   -4.50   10.20
  -9 -15   7   21.20   10.20
   9  15  -7    2.90    9.10
  -8 -15   7    7.10    7.50
   8  15  -7    3.50    7.30
  -7 -15   7   36.80    9.80
   7  15  -7   66.79   13.20
  -6 -15   7   41.60   16.50
   6  15  -7   44.50    9.80
   5 -15  -7   76.99    8.90
  -5 -15   7   74.79   12.20
   5  15  -7   60.29   11.90
   4 -15  -7    9.00    4.50
   4 -15  -7   15.80    6.40
  -4 -15   7   14.00    5.80
   4  15  -7   18.80    6.20
  -3 -15   7   22.10    6.60
   3 -15  -7   23.80    5.30
   3  15  -7   23.30    6.60
   2 -15  -7  154.38   12.20
  -2 -15   7  142.99   13.00
  -1 -15   7  164.18   15.60
  -1  15   7  144.99   12.10
   0 -15  -7   59.89    9.50
   0  15  -7   69.39    7.20
   0  15   7   53.29    8.40
  -1 -15  -7   27.50    7.80
  -1  15  -7   21.80    4.70
   1  15   7   15.40    5.60
  -2 -15  -7   12.90    5.60
   2  15   7    7.40    4.90
  -2  15  -7   21.00    4.00
  -3 -15  -7   26.70    8.30
   3  15   7   22.60    7.60
  -4 -15  -7  100.39   15.20
   4  15   7   80.39   12.80
  -5 -15  -7   19.50    9.00
   5  15   7   16.60    7.30
  -6 -15  -7    0.50    8.90
   6  15   7  -10.90    7.10
  -7 -15  -7   59.59   16.30
   7  15   7   69.39   15.70
  -8 -15  -7   -3.80   11.30
   8  15   7   33.10   14.00
  -9 -16   7  126.89   24.30
   9  16  -7   94.29   17.80
  -8 -16   7    9.00    9.00
   8  16  -7   10.50    8.00
  -7 -16   7   38.90   10.10
   7  16  -7   76.79   13.70
  -6 -16   7    5.10    6.90
   6  16  -7    1.70    6.60
  -5 -16   7    2.70    5.00
   5 -16  -7    1.50    3.40
   5  16  -7    1.00    5.50
  -4 -16   7  189.68   16.40
   4  16  -7  165.38   15.20
   3 -16  -7   65.69    8.40
  -3 -16   7   62.39   10.50
   3  16  -7   52.39    9.20
  -2 -16   7   96.19   11.10
   2 -16  -7   92.59   10.40
  -1 -16   7   96.29   10.60
   1 -16  -7   95.99   11.30
  -1  16   7  108.59   11.40
   0 -16  -7  148.79   13.90
   0  16   7  141.19   13.20
   0  16  -7  148.99   10.30
  -1 -16  -7   33.30    8.60
  -1  16  -7   35.90    5.70
   1  16   7   48.80   10.20
  -2 -16  -7    2.10    5.40
   2  16   7   -4.40    4.90
  -3 -16  -7   36.60    9.40
   3  16   7   36.90    8.90
  -3  16  -7   24.20    3.40
  -4 -16  -7   -5.30    6.40
   4  16   7    9.50    6.70
  -5 -16  -7   14.40    8.70
   5  16   7   -0.20    6.30
  -6 -16  -7  199.88   22.60
   6  16   7  230.98   21.80
  -7 -16  -7   71.19   16.50
   7  16   7   34.20   12.50
  -8 -17   7   18.60   11.90
   8  17  -7  -12.20    9.00
  -7 -17   7   22.00   10.80
   7  17  -7    1.40    7.00
  -6 -17   7    4.60    6.80
   6  17  -7    1.20    7.00
  -5 -17   7   40.70   11.00
   5  17  -7   34.80   10.00
  -4 -17   7  147.29   16.00
   4 -17  -7  148.49   10.30
   4  17  -7  171.08   15.80
   3 -17  -7   23.70    5.60
  -3 -17   7   24.40    7.90
   3  17  -7   28.00    7.60
   2 -17  -7    5.60    4.80
  -2 -17   7    6.30    5.80
   1 -17  -7  168.38   14.00
  -1 -17   7  156.28   13.20
  -1  17   7  150.28   13.90
   0 -17  -7   29.20    7.90
   0  17  -7   22.40    8.10
   0  17   7   25.10    7.00
  -1 -17  -7    4.20    5.90
   1  17   7    0.60    5.40
  -1  17  -7    3.10    3.40
  -2 -17  -7  127.19   14.90
  -2  17  -7  132.79    8.10
   2  17   7  152.98   14.90
  -3 -17  -7   -6.40    6.60
  -4 -17  -7   65.19   13.00
  -5 -17  -7    1.00    9.00
   5  17   7    8.10    7.60
  -6 -17  -7   18.60   11.70
   6  17   7   29.60   11.00
  -7 -17  -7   -1.80   11.80
   7  17   7   36.60   14.30
  -8 -18   7   -3.20   11.10
   8  18  -7   -0.50    9.40
  -7 -18   7    3.50    8.50
   7  18  -7    9.80    9.40
  -6 -18   7  132.79   17.10
   6  18  -7   96.79   16.40
  -5 -18   7   -1.00    7.90
   5  18  -7   -3.90    6.20
   4 -18  -7   47.20    8.00
  -4 -18   7   91.09   13.70
   4  18  -7   60.99   11.30
  -3 -18   7  112.79   14.30
   3  18  -7  112.09   13.20
  -2 -18   7   25.50    7.80
  -2  18   7   25.00    6.80
   1 -18  -7   89.09   11.90
  -1 -18   7  101.29   11.50
  -1  18   7  110.39   11.90
   0 -18  -7  118.99   14.50
   0  18  -7  128.39   10.30
   0  18   7  116.09   13.30
  -1 -18  -7   12.90    7.00
  -1  18  -7    8.40    4.50
   1  18   7    0.40    6.20
  -2 -18  -7    8.20    7.40
  -2  18  -7    0.90    5.10
  -3 -18  -7   16.20    7.40
  -4 -18  -7   28.00   10.50
  -5 -18  -7    5.40    9.40
   5  18   7    2.20    8.60
  -6 -18  -7    6.20   10.60
   6  18   7   33.60   12.10
  -7 -19   7   -3.30   10.00
   7  19  -7   -2.20    8.90
  -6 -19   7   -1.20    8.30
   6  19  -7   -8.00    7.60
  -5 -19   7   72.79   15.00
   5  19  -7   73.29   14.00
  -4 -19   7   12.30    7.20
   4  19  -7   -1.90    6.10
   3 -19  -7   26.90    7.50
  -3 -19   7   38.10    9.40
   3  19  -7   32.80    8.60
  -2 -19   7  288.97   19.90
  -2  19   7  253.97   23.80
  -1 -19   7   55.39   10.90
   1 -19  -7   64.89   11.90
   0 -19  -7   31.80    9.40
   0  19  -7   23.80    6.20
   0  19   7   17.80    8.10
  -1 -19  -7    5.40    7.10
   1  19   7   -5.00    5.60
  -1  19  -7   -0.10    3.90
  -2 -19  -7  -11.30    9.40
   2  19   7   13.80    7.50
  -3 -19  -7   42.30   12.10
   3  19   7   32.60   10.30
  -4 -19  -7  105.09   18.60
   4  19   7   80.79   15.70
  -5 -19  -7    5.70   11.10
   5  19   7   20.10   10.90
  -6 -20   7   24.10   10.00
   6  20  -7  -19.80    8.20
  -5 -20   7   13.50    9.00
   5  20  -7   25.30   10.80
  -4 -20   7  129.79   17.50
   4  20  -7  108.49   16.70
  -3 -20   7   39.40   11.90
   3  20  -7   19.50    7.00
   2 -20  -7   28.80    9.20
  -2 -20   7   30.10    9.60
  -2  20   7   32.40    9.60
   2  20  -7   35.00    9.80
   0 -20  -7   39.40   10.90
   0  20  -7   40.50    7.00
  -1 -20  -7   53.39   12.20
   1  20   7   64.49   13.10
  -2 -20  -7   21.10    9.30
   2  20   7    2.50    7.30
  -3 -20  -7   40.80   12.00
   3  20   7   45.50   12.10
  -4 -20  -7   18.30   12.80
   4  20   7   14.10   11.10
  -5 -21   7   69.39   16.00
   5  21  -7   45.70   13.30
  -4 -21   7   64.89   14.00
   4  21  -7   87.89   15.80
  -3 -21   7   -7.20    7.80
   3  21  -7   -0.50    7.80
  -2  21   7    2.90    8.10
   2  21  -7    7.80    7.30
   1 -21  -7   24.90   10.30
  -1 -21   7   42.10   11.80
  -1  21   7   49.30   11.50
   0  21   7    9.80    7.40
   0  21  -7    4.70    5.70
   1  21   7   41.10   11.30
  -2 -21  -7   96.99   17.50
   2  21   7   97.29   17.60
  -3 -21  -7   17.80   11.80
   3  21   7   24.60   13.40
  -4 -22   7    5.40   10.90
   4  22  -7   30.00   17.40
  -3  22   7   59.59   13.70
   3  22  -7   52.39   14.20
  -2  22   7   22.30   10.10
   2  22  -7   27.80   11.10
   1 -22  -7    8.90   11.60
   1  22  -7   15.20    6.90
  -1  22   7   21.60    9.70
   0  22   7   29.90   10.10
   1  22   7   -1.90    9.80
  -2 -22  -7   18.60   13.40
   2  22   7   35.20   13.30
 -12   0   8   36.10   11.60
  11   0  -8   10.20    7.70
 -11   0   8    2.90    7.50
 -10   0   8   -1.10    6.90
  10   0  -8    3.50    5.90
   9   0  -8    0.50    4.10
  -9   0   8  -10.20    4.50
  -8   0   8   42.00    8.40
   8   0  -8   39.50    7.20
   7   0  -8    1.80    2.90
  -7   0   8   -2.10    3.60
   6   0  -8  406.96   15.10
  -6   0   8  368.26   18.70
  -6   0   8  350.06   14.70
  -5   0   8   -1.40    1.40
   5   0  -8   -0.60    2.20
  -5   0   8   -1.90    2.40
   4   0  -8  105.39    7.70
  -4   0   8  114.49    9.00
   4   0  -8   94.49    4.40
   3   0  -8    0.70    1.60
   2   0  -8  838.12   25.40
   1   0  -8    0.00    0.90
  -1   0   8   -0.40    1.80
   1   0  -8    0.20    1.30
   0   0   8   20.30    4.30
   0   0  -8   27.40    3.90
   0   0   8   24.70    2.90
   0   0  -8   22.20    2.80
   1   0   8    1.90    1.20
  -1   0  -8    0.90    1.90
  -1   0  -8    2.20    1.80
  -2   0  -8  615.84   22.50
   2   0   8  664.93   22.10
  -2   0  -8  647.34   21.50
  -3   0  -8    0.20    2.60
   3   0   8    1.00    2.60
  -4   0  -8   95.99    9.60
   4   0   8   91.39    9.10
  -5   0  -8    1.40    5.00
   5   0   8    1.70    3.50
   6   0   8   95.89   11.60
  -6   0  -8   91.29   10.20
   7   0   8    0.60    5.10
  -7   0  -8   -0.60    5.20
   8   0   8  324.07   25.30
  -8   0  -8  368.46   23.60
   9   0   8    3.40    7.20
  -9   0  -8    4.30    8.50
  10   0   8   11.10   10.90
 -10   0  -8    3.70   11.20
 -12  -1   8   -1.60    9.30
 -11  -1   8   -1.70    7.90
  11  -1  -8   32.90   10.50
 -11   1   8   13.50    9.10
  11   1  -8    2.60    6.80
  10  -1  -8   -3.20    5.20
 -10  -1   8    3.50    6.20
  10   1  -8   -0.10    5.90
 -10   1   8   -7.70    5.10
  -9  -1   8   -5.80    5.20
   9  -1  -8   -5.00    3.80
  -9   1   8    6.10    5.30
   9   1  -8   -0.70    4.30
  -8  -1   8    2.40    4.70
   8  -1  -8    2.00    3.50
   8   1  -8    1.50    3.80
  -8   1   8    6.50    4.60
   7  -1  -8   87.39    7.90
  -7  -1   8   94.79   10.10
   7   1  -8   93.89    8.00
  -6  -1   8  274.27   16.10
  -6  -1   8  238.38   12.70
   6  -1  -8  255.07   11.40
   6   1  -8  276.67   12.20
  -6   1   8  247.98   11.30
  -6   1   8  258.67   15.00
  -5  -1   8  228.18   14.00
   5  -1  -8  259.07   12.80
  -5  -1   8  269.27    9.90
   5  -1  -8  261.67    9.90
   5   1  -8  269.27   10.60
  -5   1   8  259.67    9.70
  -5   1   8  259.97   14.30
  -4  -1   8   35.70    5.20
   4  -1  -8   30.90    2.40
   4  -1  -8   32.40    4.40
   4   1  -8   28.80    2.80
  -4   1   8   29.80    2.40
   3  -1  -8  357.56   14.50
   3   1  -8  363.56    8.80
   3   1  -8  345.57   14.70
   2  -1  -8  367.76   14.50
   2  -1  -8  345.47   17.60
   2   1  -8  369.46   14.60
   1  -1  -8  904.51   20.10
   1  -1  -8  874.11   26.80
   1   1  -8  899.61   28.40
  -1   1   8  898.11   26.30
   1   1  -8  942.41   27.00
  -1   1   8  906.51   20.20
   1   1  -8  946.71   21.60
   0  -1  -8  583.04   20.00
   0  -1   8  561.04   16.20
   0  -1   8  538.05   18.50
   0  -1  -8  560.34   15.80
   0   1  -8  568.14   16.40
   0   1  -8  572.74   19.50
   0   1   8  564.24   16.00
  -1  -1  -8  112.29    8.20
  -1  -1  -8  108.09    6.70
   1  -1   8  112.89    6.80
  -1   1  -8  104.89    6.70
   1   1   8  106.59    6.80
  -1   1  -8  113.59    7.90
  -2  -1  -8  100.59    7.50
   2  -1   8   97.79    7.40
  -2  -1  -8  106.29    8.40
  -2   1  -8  102.59    7.70
  -2   1  -8  103.49    8.00
   2   1   8  107.99    7.90
   3  -1   8  471.55   19.70
  -3  -1  -8  479.35   20.50
  -3   1  -8  494.95   20.10
   3   1   8  482.85   19.90
  -4  -1  -8    3.50    3.30
   4  -1   8   -0.40    3.00
   4   1   8   -4.40    2.40
  -4   1  -8   -2.10    2.30
   5  -1   8   89.09    9.80
  -5  -1  -8   86.69   10.10
  -5   1  -8   89.69    9.40
   5   1   8   86.49   10.00
   6  -1   8   24.30    7.00
  -6  -1  -8   19.70    6.60
  -6   1  -8   34.60    7.90
   6   1   8   21.90    6.60
  -7  -1  -8    3.50    5.10
   7  -1   8    4.10    4.70
  -7   1  -8    3.40    5.70
   7   1   8    7.40    6.20
  -8  -1  -8   33.10    8.70
   8  -1   8   18.40    8.20
  -8   1  -8   40.40    9.50
   8   1   8   25.20    9.40
   9  -1   8   51.99   11.30
  -9  -1  -8   55.49   15.80
  -9   1  -8   88.89   14.90
   9   1   8   93.49   15.10
  10  -1   8    4.20   10.20
 -10  -1  -8   12.00   10.80
  10   1   8   28.90   13.60
 -12  -2   8  118.39   17.60
 -11  -2   8   -1.40    7.70
 -11   2   8   -7.70    7.10
  11   2  -8    5.10    7.20
  10  -2  -8   44.50    9.00
 -10  -2   8   66.29   12.20
 -10   2   8   27.40    7.60
  10   2  -8   44.20    9.50
   9  -2  -8    1.60    3.90
  -9  -2   8    6.40    5.40
  -9   2   8   -4.70    4.60
   9   2  -8    1.00    4.40
   8  -2  -8   33.20    6.50
  -8  -2   8   39.40    8.70
   8   2  -8   27.70    6.10
  -8   2   8   35.20    7.90
   7  -2  -8  103.59    8.10
  -7  -2   8   97.29   11.00
   7   2  -8  118.49    9.10
  -7   2   8  100.89    9.90
   6  -2  -8 1527.45   41.70
   6  -2  -8 1549.84   38.90
  -6  -2   8 1449.76   38.40
  -6   2   8 1468.95   39.00
  -6   2   8 1479.65   44.00
   6   2  -8 1585.34   40.60
   5  -2  -8   30.40    4.40
   5  -2  -8   27.10    4.90
  -5  -2   8   40.80    6.70
   5   2  -8   44.10    4.40
  -5   2   8   36.60    3.80
   4  -2  -8  145.39    8.80
  -4  -2   8  133.49   10.10
   4   2  -8  132.79    6.50
  -4   2   8  139.59    5.40
  -3  -2   8  114.29    8.70
   3  -2  -8  107.99    7.40
   3   2  -8  110.29    4.70
   3   2  -8  104.69    7.70
   2  -2  -8   47.70    4.90
   2  -2  -8   49.60    6.90
   2   2  -8   52.29    2.80
  -2   2   8   48.90    6.80
   2   2  -8   52.59    2.90
   2   2  -8   48.40    4.90
   1  -2  -8  135.39    8.60
   1   2  -8  151.68    8.80
  -1   2   8  154.18    5.30
   1   2  -8  168.38    6.50
  -1   2   8  160.48   10.90
   1   2  -8  152.18   10.70
   0  -2  -8  555.34   15.50
   0  -2  -8  515.85   19.30
   0  -2   8  519.25   18.00
   0  -2   8  548.25   16.30
   0   2  -8  552.94   18.90
   0   2   8  547.45   16.00
   0   2  -8  542.55   16.40
   1  -2   8   19.90    3.60
   1  -2   8   22.80    3.60
  -1  -2  -8   17.90    3.30
  -1  -2  -8   21.00    4.10
   1   2   8   20.20    3.40
  -1   2  -8   18.10    3.50
  -1   2  -8   18.90    3.60
   2  -2   8  123.49    8.40
  -2  -2  -8  114.49    9.10
  -2  -2  -8  119.69    8.10
  -2   2  -8  121.09    8.40
  -2   2  -8  115.79    8.50
   2   2   8  126.49    8.60
   3  -2   8    1.80    2.50
  -3  -2  -8    3.40    2.70
  -3   2  -8    1.50    2.40
   3   2   8    3.00    2.70
  -4  -2  -8  531.25   23.40
   4  -2   8  514.65   22.20
  -4   2  -8  509.95   21.30
   4   2   8  469.95   21.50
  -5  -2  -8   50.69    8.30
   5  -2   8   58.49    8.60
   5   2   8   67.69    9.40
  -5   2  -8   46.30    8.40
   6  -2   8    8.40    4.50
  -6  -2  -8   17.90    6.00
   6   2   8   13.10    5.00
  -6   2  -8   13.70    5.80
  -7  -2  -8   -2.10    5.50
   7  -2   8   -1.80    4.60
   7   2   8    2.00    5.70
  -7   2  -8    0.50    5.60
  -8  -2  -8   27.50    9.80
   8  -2   8   29.50    8.70
   8   2   8   35.80    9.60
  -8   2  -8   14.00    6.70
   9  -2   8    6.80    8.40
  -9  -2  -8   15.20    9.50
   9   2   8    5.80    6.70
  -9   2  -8    8.70    8.30
 -10  -2  -8   71.69   15.80
  10  -2   8  147.29   20.10
  10   2   8  116.19   19.50
 -12  -3   8   -9.20    9.50
  12  -3  -8   10.80   11.80
 -11  -3   8  104.69   16.10
  11   3  -8   65.29   11.50
 -11   3   8   68.79   13.30
  10  -3  -8   20.00    7.00
 -10  -3   8   20.20    8.90
  10   3  -8   12.90    6.50
 -10   3   8   17.50    7.80
   9  -3  -8   40.60    8.10
  -9  -3   8   46.80   10.50
  -9   3   8   39.10    8.20
   9   3  -8   42.40    8.60
   8  -3  -8   -2.80    2.60
  -8  -3   8   -0.40    4.40
   8  -3  -8    1.30    3.30
  -8   3   8   -4.50    4.20
   8   3  -8    1.20    3.30
   7  -3  -8   34.40    5.30
  -7  -3   8   40.00    7.60
   7  -3  -8   37.80    5.60
   7   3  -8   29.80    5.80
  -6  -3   8   58.09    8.10
   6  -3  -8   55.99    6.10
   6  -3  -8   51.89    5.10
   6   3  -8   45.60    5.80
  -5  -3   8    4.90    3.40
   5  -3  -8    1.60    1.80
   5  -3  -8   -1.10    1.70
  -5   3   8    3.20    2.10
   5   3  -8    4.20    2.40
  -4  -3   8   21.50    5.10
   4  -3  -8   20.30    4.20
  -4   3   8   20.60    2.60
   4   3  -8   21.20    4.00
  -3  -3   8   27.90    5.10
   3  -3  -8   27.80    3.90
  -3   3   8   31.20    1.80
   3   3  -8   35.90    3.10
   2  -3  -8    4.50    2.20
   2   3  -8    3.30    2.30
  -2   3   8    4.30    0.80
   2   3  -8    6.50    1.60
  -2   3   8    5.70    0.90
   1  -3  -8  659.23   21.90
   1   3  -8  666.43   18.20
   1   3  -8  632.54   21.20
  -1   3   8  666.73   16.70
   0  -3  -8   22.80    4.80
   0  -3  -8   19.80    2.50
   0   3  -8   21.30    4.60
   0   3   8   14.30    2.70
   0   3  -8   19.00    3.20
   0   3  -8   17.90    3.40
   1  -3   8  397.36   14.80
  -1  -3  -8  400.86   14.20
  -1  -3  -8  401.86   17.00
  -1   3  -8  364.06   16.40
  -1   3  -8  382.96   15.30
   1   3   8  403.06   14.90
   2  -3   8   25.50    4.50
  -2  -3  -8   23.00    4.40
  -2  -3  -8   36.60    5.60
  -2   3  -8   35.50    5.10
   2   3   8   30.30    4.60
  -2   3  -8   31.40    6.20
   3  -3   8  156.08   10.90
  -3  -3  -8  173.68   12.10
  -3   3  -8  149.29   10.00
   3   3   8  153.08   10.70
  -4  -3  -8   57.39    8.10
   4  -3   8   58.19    7.70
   4   3   8   44.80    7.30
  -4   3  -8   57.29    7.10
   5  -3   8  187.18   13.90
  -5  -3  -8  193.88   14.90
   5   3   8  194.18   14.80
  -5   3  -8  196.88   13.40
  -6  -3  -8    9.60    5.80
   6  -3   8   -0.70    4.20
   6   3   8    2.90    4.10
  -6   3  -8   -1.70    4.90
  -7  -3  -8    1.10    4.60
   7  -3   8    4.70    6.70
  -7   3  -8    7.00    5.30
   7   3   8    2.20    5.30
  -8  -3  -8   10.40    7.20
   8  -3   8   -2.70    6.10
   8   3   8   -1.30    5.60
  -8   3  -8   -4.90    6.50
  -9  -3  -8   26.50   10.80
   9  -3   8   22.00    9.10
  -9   3  -8   31.40    9.70
   9   3   8   27.90    9.00
  10  -3   8   -1.70    9.20
 -10  -3  -8   -2.20   11.60
  10   3   8    0.50    9.70
 -10   3  -8    7.10   11.30
 -12  -4   8    4.60   10.80
  12  -4  -8   21.80    9.10
 -11  -4   8   -6.20    8.30
  11   4  -8   -1.80    7.00
  10  -4  -8    3.80    5.50
 -10  -4   8    3.40    9.00
  10  -4  -8    1.90    5.90
  10   4  -8    0.70    5.00
   9  -4  -8   39.30    7.50
  -9  -4   8   22.80    7.60
   9  -4  -8   31.30    6.60
   9   4  -8   55.39    9.10
  -8  -4   8  346.87   21.10
   8  -4  -8  318.37   16.20
   8  -4  -8  309.17   15.80
   8   4  -8  318.87   20.50
   7  -4  -8   36.50    5.70
   7  -4  -8   37.90    5.90
  -7  -4   8   53.99    8.70
   7   4  -8   58.99    7.30
  -6  -4   8  233.48   15.70
   6  -4  -8  226.88   10.90
   6  -4  -8  243.08   12.20
   6   4  -8  237.08   12.40
  -6   4   8  207.68   11.00
  -5  -4   8   79.59    9.30
   5  -4  -8   92.39    7.20
  -5   4   8   93.39    6.40
   5   4  -8   98.19    7.10
   4  -4  -8   92.89    7.10
  -4  -4   8  107.69    9.40
   4   4  -8  105.09    6.30
  -4   4   8   93.29    5.30
  -3  -4   8  141.99   10.40
   3  -4  -8  158.48    8.90
   3   4  -8  143.39    8.00
  -3   4   8  157.98    5.90
   2  -4  -8  930.21   27.60
   2   4  -8  928.51   27.80
  -2   4   8  922.31   21.80
  -2   4   8  942.51   21.80
   2   4  -8  926.41   24.00
   1  -4  -8   -1.00    1.50
   1   4  -8    0.20    1.50
   1   4  -8    1.50    1.50
  -1   4   8   -0.30    1.00
   0  -4  -8  795.92   26.20
   0   4  -8  846.42   24.90
   0   4  -8  787.82   26.10
   0   4   8  799.52   24.90
   0   4  -8  811.52   23.40
  -1  -4  -8   20.10    3.50
   1  -4   8   23.40    3.80
  -1  -4  -8   21.50    4.30
  -1   4  -8   23.20    4.20
   1   4   8   19.70    3.60
  -1   4  -8   17.80    3.60
   2  -4   8  175.98   10.50
  -2  -4  -8  161.78   11.20
  -2  -4  -8  176.18    9.90
  -2   4  -8  177.38   10.20
   2   4   8  183.58   10.70
  -3  -4  -8  114.49   10.60
   3  -4   8  106.49    9.50
   3   4   8  109.69    9.50
  -3   4  -8  126.59    9.00
  -4  -4  -8  374.26   19.90
   4   4   8  388.66   19.50
  -4   4  -8  376.86   17.30
  -5  -4  -8   18.40    6.40
   5  -4   8   15.10    5.20
  -5   4  -8   16.30    5.20
   5   4   8   15.90    5.00
   6  -4   8    6.00    5.40
  -6  -4  -8    0.40    4.70
  -6   4  -8    1.70    4.00
   6   4   8   -1.40    4.80
   7  -4   8  109.89   12.50
  -7  -4  -8  108.69   13.30
   7   4   8  113.69   13.50
  -7   4  -8  115.69   12.00
   8  -4   8  130.39   15.70
  -8  -4  -8  113.69   16.30
  -8   4  -8  150.98   14.30
   8   4   8  135.19   15.90
  -9  -4  -8   -8.20    8.70
   9  -4   8   -9.50    7.90
   9   4   8    4.80    7.60
 -10  -4  -8  -18.90   10.90
  10  -4   8   16.60    9.80
 -10   4  -8    7.10   10.70
  10   4   8    9.50   10.10
  12  -5  -8  -12.60   11.90
 -12  -5   8    1.90   10.60
 -11  -5   8   22.20   11.40
  11  -5  -8   48.10    9.20
 -10  -5   8    8.70    7.70
  10  -5  -8  -10.30    4.80
  10  -5  -8   -1.20    4.80
  10   5  -8   -2.80    6.00
   9  -5  -8   41.80    8.00
   9  -5  -8   37.10    6.80
  -9  -5   8   26.20    8.10
   9   5  -8   60.69   10.00
   8  -5  -8    0.70    2.90
   8  -5  -8   -2.90    3.40
  -8  -5   8   -1.00    4.20
   8   5  -8   -0.40    3.50
   7  -5  -8  264.47   13.00
   7  -5  -8  233.68   12.60
  -7  -5   8  217.08   16.50
   7   5  -8  225.38   14.00
  -6  -5   8    5.90    4.30
   6  -5  -8    2.60    2.60
  -6   5   8   -1.20    3.10
   6   5  -8    5.10    3.30
   5  -5  -8  431.46   16.40
  -5  -5   8  431.36   24.70
   5   5  -8  431.76   16.60
  -5   5   8  404.26   15.00
   4  -5  -8    6.90    2.20
  -4  -5   8   13.10    4.30
  -4   5   8    4.80    2.00
   4   5  -8   10.50    2.90
  -3  -5   8  438.86   19.50
   3  -5  -8  423.36   16.30
   3   5  -8  439.06   14.70
  -3   5   8  424.46   12.90
   2  -5  -8   26.80    4.20
  -2  -5   8   26.20    5.10
  -2   5   8   29.80    2.90
  -2   5   8   31.40    2.90
   1  -5  -8  269.37   12.90
   1   5  -8  273.07   12.40
   1   5  -8  232.68   10.30
  -1   5   8  278.57   10.00
   0  -5  -8   77.19    7.20
   0   5   8   78.29    5.70
   0   5  -8   84.39    6.60
  -1  -5  -8  319.47   12.90
  -1  -5  -8  338.97   16.20
  -1   5  -8  323.57   14.30
   1   5   8  349.57   14.20
  -1   5  -8  345.17   14.10
   2  -5   8   18.20    4.50
  -2  -5  -8   18.70    5.40
  -2   5  -8   14.40    3.40
   2   5   8   12.50    3.70
   3  -5   8  803.72   28.40
  -3   5  -8  819.22   26.30
   3   5   8  815.72   29.00
   4  -5   8   30.10    6.70
  -4  -5  -8   27.10    6.30
  -4   5  -8   29.50    5.80
  -5  -5  -8   15.70    6.50
   5  -5   8   13.30    4.70
  -5   5  -8   17.90    4.40
   5   5   8   16.10    5.90
   6  -5   8    6.90    5.20
  -6  -5  -8    4.90    4.70
   6   5   8    5.90    4.70
  -6   5  -8    1.10    4.30
  -7  -5  -8   24.30    8.00
   7  -5   8   23.20    7.20
   7   5   8   16.00    7.90
  -8  -5  -8   13.10    9.00
   8  -5   8    8.50    6.70
   8   5   8   18.10    7.90
  -8   5  -8   21.20    7.80
  -9  -5  -8   94.09   17.50
   9  -5   8  101.29   16.20
  -9   5  -8   66.29   11.70
   9   5   8   70.89   14.20
  10  -5   8   -5.90   12.20
 -10  -5  -8  -23.00   11.80
  10   5   8  -13.00   11.20
 -12  -6   8   22.60   10.40
 -11  -6   8   10.90    9.40
  11  -6  -8   20.80    7.30
  11   6  -8   20.90    9.20
  10  -6  -8  106.89   12.50
 -10  -6   8  156.68   16.90
  10   6  -8  143.59   15.60
   9  -6  -8    7.00    5.20
  -9  -6   8   10.20    6.10
   9  -6  -8   10.10    5.10
   9   6  -8   10.80    5.50
   8  -6  -8  209.18   13.80
  -8  -6   8  205.98   17.20
   8  -6  -8  201.48   11.90
   8   6  -8  217.68   14.70
  -7  -6   8   22.80    6.60
   7  -6  -8   16.80    4.10
   7   6  -8   17.20    5.60
  -6  -6   8    3.60    3.60
   6  -6  -8    3.40    2.40
   6   6  -8    4.40    3.10
  -6   6   8    4.30    3.40
   5  -6  -8  690.43   22.50
  -5  -6   8  685.23   28.30
   5   6  -8  712.63   23.90
  -4  -6   8   -1.20    2.10
   4  -6  -8    1.20    1.80
  -4   6   8   -0.90    2.00
   4   6  -8    0.30    2.20
   3  -6  -8   44.40    5.10
  -3  -6   8   33.70    5.80
   3   6  -8   43.30    4.60
  -3   6   8   33.80    3.80
   2  -6  -8  813.02   26.00
  -2  -6   8  782.62   27.80
  -2   6   8  841.42   22.30
   1  -6  -8   98.19    7.70
  -1   6   8   92.49    5.80
   1   6  -8   90.49    6.90
   0  -6  -8  467.15   19.40
   0   6  -8  462.95   17.40
   0   6  -8  467.45   17.30
   0   6   8  512.15   17.10
  -1  -6  -8    4.30    3.20
  -1   6  -8    4.00    2.20
   1   6   8    2.70    2.20
  -2  -6  -8  256.07   15.00
   2  -6   8  250.27   13.50
  -2   6  -8  238.38   11.70
   2   6   8  223.48   12.70
   3  -6   8  108.49    9.50
  -3  -6  -8  109.59   10.70
  -3   6  -8  101.49    7.80
   3   6   8   96.39    9.00
   4  -6   8  343.07   18.20
  -4  -6  -8  315.07   19.50
  -4   6  -8  337.87   15.70
   4   6   8  354.76   19.00
  -5  -6  -8  166.98   15.00
   5  -6   8  205.48   14.80
  -5   6  -8  174.38   11.80
   5   6   8  189.68   15.20
   6  -6   8    7.10    5.00
  -6  -6  -8   -0.10    5.00
  -6   6  -8   -0.80    3.90
   6   6   8   -2.00    5.10
  -7  -6  -8    1.20    6.10
   7  -6   8    3.20    6.10
   7   6   8   -6.10    5.00
  -7   6  -8    0.10    4.90
   8  -6   8  164.38   17.00
  -8  -6  -8  125.29   16.90
   8   6   8  127.59   15.50
  -8   6  -8  128.59   13.30
   9  -6   8    8.70   10.20
  -9  -6  -8   19.00   10.90
   9   6   8    3.00    9.20
  -9   6  -8    1.30    8.20
 -10  -6  -8  -16.30   11.50
  10  -6   8   26.30   14.40
  10   6   8    2.30   13.80
 -11  -7   8   99.99   17.10
  11   7  -8  115.19   16.50
  10  -7  -8   52.19   10.30
 -10  -7   8   33.10   11.10
  10   7  -8   32.10    8.80
   9  -7  -8   13.80    5.80
  -9  -7   8   16.90    9.50
   9   7  -8   14.30    6.50
  -8  -7   8   28.30    8.10
   8  -7  -8   13.70    4.10
   8   7  -8   23.40    6.50
  -7  -7   8  388.56   22.90
   7  -7  -8  397.76   16.00
  -6  -7   8   49.20    8.30
   6  -7  -8   48.10    5.60
   6   7  -8   51.89    6.90
   5  -7  -8   51.99    5.50
  -5  -7   8   49.80    8.00
  -5   7   8   48.70    5.80
   5   7  -8   51.49    6.30
   4  -7  -8  295.67   13.30
  -4  -7   8  319.87   20.50
  -4   7   8  308.97   12.60
   4   7  -8  279.67   13.40
  -3  -7   8   27.10    6.20
   3  -7  -8   19.60    4.00
  -3   7   8   20.30    3.80
   3   7  -8   22.20    3.70
  -2  -7   8   15.60    4.50
   2  -7  -8   10.70    3.00
  -2   7   8   15.80    3.10
   1  -7  -8 1066.29   32.60
   1   7  -8 1139.59   31.80
   1   7  -8 1016.90   30.10
  -1   7   8 1081.99   29.10
   0  -7  -8   30.20    5.20
   0   7  -8   46.20    8.90
   0   7   8   51.09    5.40
   0   7  -8   39.70    4.80
  -1  -7  -8   69.29    7.80
  -1   7  -8   65.69    5.80
   1   7   8   50.49    5.90
  -2  -7  -8    4.40    4.00
  -2   7  -8    3.60    2.50
   2   7   8    3.30    3.10
  -3  -7  -8   34.30    7.50
   3  -7   8   34.10    6.10
   3   7   8   38.10    6.20
  -3   7  -8   33.20    5.00
  -4  -7  -8   54.89    8.80
   4  -7   8   71.29    8.90
  -4   7  -8   66.29    6.70
   4   7   8   67.49    9.40
  -5  -7  -8  202.58   17.00
   5  -7   8  265.57   17.30
   5   7   8  250.47   17.50
  -5   7  -8  227.98   13.10
  -6  -7  -8   47.60    9.80
   6  -7   8   43.40   10.40
  -6   7  -8   58.29    8.20
   6   7   8   46.30   10.20
   7  -7   8  146.09   15.70
  -7  -7  -8  159.68   17.20
  -7   7  -8  158.68   12.10
   7   7   8  183.68   16.80
   8  -7   8    3.50    7.60
  -8  -7  -8   -5.30    7.50
  -8   7  -8    5.30    6.30
   8   7   8   -2.90    6.30
  -9  -7  -8   37.00   12.40
   9  -7   8   36.50   10.80
   9   7   8   39.20   12.40
  10  -7   8   12.70   11.50
 -10  -7  -8   -0.20   12.20
 -11  -8   8   52.19   12.20
  11   8  -8   31.20   10.90
 -10  -8   8   11.30    9.10
  10  -8  -8    8.20    5.10
  10   8  -8    0.40    7.10
  -9  -8   8   72.59   13.30
   9  -8  -8   57.49    7.20
   9   8  -8   50.29   10.20
   8  -8  -8   12.00    4.10
  -8  -8   8    7.80    6.30
   8   8  -8    2.80    4.90
  -7  -8   8   -0.30    4.70
   7  -8  -8    3.60    2.60
   7   8  -8    1.70    3.50
  -6  -8   8  211.08   16.30
   6  -8  -8  201.58   10.50
   6   8  -8  203.98   13.50
  -5  -8   8   33.20    7.90
   5  -8  -8   23.60    4.40
  -5   8   8   31.20    6.10
   5   8  -8   21.80    5.00
  -4  -8   8  219.98   14.90
   4  -8  -8  215.18   11.10
   4   8  -8  223.68   12.30
  -4   8   8  225.28   11.30
  -3  -8   8    6.30    3.40
   3  -8  -8    6.20    2.70
   3   8  -8   12.50    3.50
  -3   8   8    4.30    3.50
   2  -8  -8  168.48   10.20
  -2  -8   8  158.88   11.40
  -2   8   8  158.68    8.40
   1  -8  -8  307.77   15.30
  -1   8   8  340.57   13.80
   1   8  -8  327.37   14.40
   0  -8  -8   33.10    5.60
   0   8  -8   28.80    4.60
   0   8   8   39.50    5.00
  -1  -8  -8    1.10    2.70
  -1   8  -8    5.00    2.10
   1   8   8    3.20    2.70
  -2  -8  -8   90.59    9.80
  -2   8  -8   98.29    7.30
   2   8   8   75.69    8.20
   3  -8   8  120.19   10.60
  -3  -8  -8  127.29   11.90
   3   8   8  110.69   10.30
  -3   8  -8  112.29    7.90
   4  -8   8  281.67   17.10
  -4  -8  -8  306.07   19.60
  -4   8  -8  292.27   13.70
   4   8   8  292.07   17.80
   5  -8   8    7.60    4.60
  -5  -8  -8    5.00    5.50
   5   8   8    2.40    5.40
  -5   8  -8    1.30    3.80
   6  -8   8   27.80    7.80
  -6  -8  -8   21.10    7.80
   6   8   8   26.70    9.10
  -6   8  -8   25.80    5.90
   7  -8   8   22.00    8.50
  -7  -8  -8   14.60    9.10
  -7   8  -8   11.30    4.90
  -8  -8  -8   12.40   10.00
   8  -8   8   14.00    9.40
  -8   8  -8   17.60    6.70
   8   8   8   11.30    8.70
   9  -8   8   42.10   11.40
  -9  -8  -8   32.40   13.10
   9   8   8   60.09   14.50
 -11  -9   8   51.79   13.90
  11   9  -8   47.20   11.40
 -10  -9   8   11.90    8.00
  10   9  -8    8.20   16.10
  -9  -9   8   17.80    8.40
   9   9  -8   17.30    7.00
  -8  -9   8   27.80    8.80
   8   9  -8   19.60    6.30
  -7  -9   8  309.57   20.90
   7  -9  -8  313.17   13.40
   7   9  -8  314.57   18.40
   6  -9  -8   33.90    5.40
  -6  -9   8   53.89    9.00
   6   9  -8   47.50    8.30
  -5  -9   8    6.60    5.30
   5  -9  -8   14.20    3.70
   5   9  -8   21.60    5.30
  -4  -9   8   94.19   10.30
   4  -9  -8   95.59    7.40
   4   9  -8  100.89    8.60
  -4   9   8   93.09    8.20
   3  -9  -8  400.86   16.40
  -3  -9   8  417.46   20.30
  -3   9   8  359.16   15.30
   3   9  -8  388.36   16.80
   2  -9  -8  214.08   12.20
  -2  -9   8  220.88   13.70
  -1  -9   8  332.57   16.30
   1  -9  -8  340.37   16.40
   1   9  -8  327.27   14.80
  -1   9   8  353.56   14.80
   0  -9  -8   28.70    6.10
   0   9  -8   40.80    4.80
   0   9   8   33.80    5.40
  -1  -9  -8    3.20    3.50
  -1   9  -8    3.90    2.40
   1   9   8    0.90    2.70
  -2  -9  -8   16.70    5.50
   2   9   8    9.80    3.70
  -2   9  -8   15.70    3.70
  -3  -9  -8  485.75   24.70
   3   9   8  502.85   22.90
  -3   9  -8  455.55   17.50
  -4  -9  -8    2.50    4.70
   4  -9   8    1.40    3.90
   4   9   8    3.00    4.30
  -4   9  -8    0.80    2.90
   5  -9   8   20.70    6.70
  -5  -9  -8   32.90    7.80
  -5   9  -8   31.10    5.70
   5   9   8   38.00    8.90
  -6  -9  -8    1.90    5.60
   6  -9   8   21.70    6.00
   6   9   8   17.10    8.00
  -6   9  -8    6.40    4.20
   7  -9   8   11.10    7.00
  -7  -9  -8   22.70    7.40
   7   9   8   11.60    7.60
  -7   9  -8    8.80    5.30
   8  -9   8    4.60    7.80
  -8  -9  -8   -2.50    8.60
   8   9   8    1.00    6.80
  -9  -9  -8   27.20   11.40
   9  -9   8   87.59   17.10
   9   9   8   43.90   13.00
 -11 -10   8    3.10   10.90
  11  10  -8   -2.00    9.80
 -10 -10   8   26.40   10.00
  10  10  -8   22.10    8.80
   9 -10  -8    1.70    4.20
  -9 -10   8   10.50    8.00
   9  10  -8    2.40    5.90
   8  10  -8  139.29   13.60
   7 -10  -8   70.69   10.60
   7 -10  -8   67.49    6.80
  -7 -10   8  102.59   13.20
   7  10  -8   86.19   10.60
   6 -10  -8  247.48   11.50
  -6 -10   8  254.47   18.80
   6  10  -8  229.68   15.20
   5 -10  -8  282.77   13.30
  -5 -10   8  308.37   19.50
   4 -10  -8   23.00    4.80
  -4 -10   8   27.70    6.60
   4  10  -8   34.60    7.10
  -3 -10   8   54.29    7.80
   3 -10  -8   55.89    6.30
   3  10  -8   45.70    6.50
   2 -10  -8  715.23   25.50
  -2 -10   8  720.63   27.60
   1 -10  -8   12.00    4.20
  -1 -10   8   10.10    3.90
  -1  10   8   11.80    3.60
   0 -10  -8   69.59    8.40
   0  10   8   81.39    8.00
   0  10  -8   88.69    7.00
  -1 -10  -8  135.19   11.70
  -1  10  -8  132.69    8.70
   1  10   8  119.09   10.10
  -2 -10  -8   13.70    5.20
  -2  10  -8   11.20    3.60
   2  10   8   18.20    5.40
  -3 -10  -8  152.88   14.00
  -3  10  -8  145.59    8.90
   3  10   8  136.49   12.10
  -4 -10  -8  141.59   14.80
  -4  10  -8  118.79    8.30
   4  10   8  133.59   12.40
  -5 -10  -8    2.70    6.20
   5  10   8    8.90    5.20
  -5  10  -8    7.10    3.60
  -6 -10  -8   46.00   12.00
   6 -10   8   46.00    9.70
   6  10   8   55.19   11.70
  -6  10  -8   42.60    7.60
  -7 -10  -8   -6.10    6.60
   7 -10   8    0.00    6.90
   7  10   8   13.70    8.30
   8 -10   8   62.09   11.90
  -8 -10  -8   57.39   13.10
   8  10   8   64.99   14.90
   9 -10   8    2.00    9.60
  -9 -10  -8   -3.60   12.30
   9  10   8    8.60   11.20
 -11 -11   8   19.30   13.50
  11  11  -8   -1.60   10.30
 -10 -11   8    5.40    8.20
  10  11  -8   -6.50    8.10
  -9 -11   8   -0.40    6.90
   9  11  -8   -1.90    6.00
   8 -11  -8   21.60    4.60
  -8 -11   8   13.00    7.30
   8  11  -8   32.50    9.00
  -7 -11   8  243.88   20.00
   7 -11  -8  215.28   11.80
   7 -11  -8  191.18   13.20
   7  11  -8  226.18   16.90
  -6 -11   8   51.49    9.80
   6 -11  -8   75.39    9.10
   6 -11  -8   51.09    5.80
   6  11  -8   65.29    8.90
  -5 -11   8    9.90    5.70
   5 -11  -8    6.70    3.30
   5  11  -8    8.00    4.50
  -4 -11   8    2.80    3.90
   4 -11  -8    4.10    3.00
   4  11  -8    3.20    3.50
  -3 -11   8  398.06   21.00
   3 -11  -8  445.06   18.40
   3  11  -8  444.96   19.60
  -2 -11   8   41.30    6.90
   2 -11  -8   42.80    6.30
  -1 -11   8  247.48   14.30
   1 -11  -8  240.08   14.30
  -1  11   8  240.68   13.10
   0 -11  -8  100.09   10.20
   0  11  -8   84.39    7.30
   0  11   8   86.89    8.40
  -1 -11  -8    0.80    3.50
   1  11   8   -2.40    2.90
  -1  11  -8   -0.10    2.20
  -2 -11  -8    5.20    3.80
  -2  11  -8    0.80    2.50
   2  11   8   -0.80    2.30
  -3 -11  -8  290.17   19.70
   3  11   8  297.17   18.40
  -3  11  -8  288.67   12.80
  -4 -11  -8   32.00    8.30
  -4  11  -8   26.50    5.00
   4  11   8   27.30    6.70
  -5 -11  -8   84.99   12.90
   5  11   8   58.49   10.60
  -5  11  -8   71.29    6.60
  -6 -11  -8   35.50    9.30
   6  11   8   27.70    9.40
  -6  11  -8   36.90    7.40
  -7 -11  -8   18.60    9.60
   7  11   8   24.50   10.20
   8 -11   8    7.40    9.40
  -8 -11  -8   -6.30   10.10
   8  11   8   11.90    9.20
   9 -11   8   45.00   13.10
  -9 -11  -8   22.40   16.10
   9  11   8   36.30   18.00
 -10 -12   8   12.20    9.90
  10  12  -8    8.30    8.40
  -9 -12   8    3.80    7.60
   9  12  -8   -4.70    6.20
   8 -12  -8   -1.40    4.60
  -8 -12   8    7.90    6.70
   8  12  -8   -2.00    5.10
   7 -12  -8   20.50    5.70
  -7 -12   8   22.70    8.00
   7  12  -8   27.90    8.70
   6 -12  -8  229.38   11.40
  -6 -12   8  260.97   19.50
   6 -12  -8  215.28   13.20
   6  12  -8  230.18   16.70
  -5 -12   8  249.28   18.10
   5 -12  -8  226.68   11.70
   5 -12  -8  191.18   17.90
   5  12  -8  231.58   15.60
   4 -12  -8   23.50    5.30
  -4 -12   8   18.80    6.40
   4  12  -8   20.20    6.30
  -3 -12   8   -1.60    3.10
   3 -12  -8    1.70    3.00
   3  12  -8    5.10    3.40
   2 -12  -8  103.99    9.70
  -2 -12   8  117.29   10.70
   1 -12  -8    3.70    3.50
  -1 -12   8   -2.00    2.50
  -1  12   8    3.40    2.80
   0 -12  -8   25.30    6.40
   0  12  -8   19.00    4.70
   0  12   8   18.30    5.30
  -1 -12  -8  122.19   11.90
  -1  12  -8  147.49    9.20
   1  12   8  143.89   11.70
  -2 -12  -8   54.39    9.10
   2  12   8   26.40    5.70
  -2  12  -8   36.70    5.30
  -3 -12  -8   56.79   10.40
   3  12   8   65.69    9.80
  -3  12  -8   71.29    6.40
  -4 -12  -8  152.88   15.80
   4  12   8  147.49   14.70
  -4  12  -8  140.29    8.30
  -5 -12  -8   11.40    7.20
   5  12   8   16.10    7.20
  -5  12  -8   20.10    4.10
  -6 -12  -8   18.80    9.40
   6  12   8   18.70    8.20
  -7 -12  -8   13.70    9.40
   7  12   8   12.60    9.10
  -8 -12  -8    5.20    9.80
   8  12   8   -1.70   10.10
  10  13  -8   21.50    8.60
  -9 -13   8    3.10    8.60
   9  13  -8    2.60    7.30
  -8 -13   8   16.10    8.30
   8  13  -8    6.70    6.80
   7 -13  -8  102.29    8.20
  -7 -13   8  110.09   15.10
   7  13  -8  103.29   12.70
  -6 -13   8   21.00    6.40
   6 -13  -8   22.40    4.70
   6  13  -8   27.80    8.10
   5 -13  -8   58.39    6.90
   5 -13  -8   45.60    7.80
  -5 -13   8   62.89   10.90
   5  13  -8   58.79    9.20
  -4 -13   8   23.30    7.50
   4 -13  -8   32.40    6.10
   4  13  -8   32.90    7.50
   3 -13  -8   33.00    6.30
  -3 -13   8   21.90    6.20
   3  13  -8   38.80    7.50
  -2 -13   8   53.19    8.30
   2 -13  -8   41.50    7.00
   1 -13  -8  269.57   18.80
  -1 -13   8  253.37   15.50
  -1  13   8  273.57   17.40
   0 -13  -8    3.60    3.90
   0  13   8   -4.20    2.80
   0  13  -8   -2.00    2.10
  -1 -13  -8   22.30    6.60
  -1  13  -8   13.50    3.90
   1  13   8   26.30    6.00
  -2 -13  -8  400.46   23.30
  -2  13  -8  367.66   15.20
   2  13   8  373.16   21.00
  -3 -13  -8   30.60    7.90
  -3  13  -8   26.50    4.70
   3  13   8   12.90    6.30
  -4 -13  -8   64.19   12.10
   4  13   8   69.69   11.60
  -5 -13  -8  109.49   15.10
   5  13   8   85.99   13.90
  -6 -13  -8   -7.50    7.10
   6  13   8   -2.70    6.00
  -7 -13  -8   -9.80    8.50
   7  13   8    9.30    8.60
  -8 -13  -8   76.59   18.70
   8  13   8   56.29   16.10
 -10 -14   8   32.60   13.20
  10  14  -8   27.20   11.90
  -9 -14   8   32.70   11.30
   9  14  -8   20.50    9.60
  -8 -14   8  145.29   18.50
   8  14  -8  132.19   16.90
  -7 -14   8   20.10    7.70
   7  14  -8   10.80    6.90
   6 -14  -8   -2.90    3.60
  -6 -14   8   -6.50    5.10
   6  14  -8   -4.90    4.80
   5 -14  -8   39.40    8.00
  -5 -14   8   36.50    9.10
   5  14  -8   50.69   10.30
   4 -14  -8   10.80    4.80
  -4 -14   8    7.40    5.70
   4  14  -8   18.10    6.60
  -3 -14   8   19.90    6.80
   3 -14  -8   41.30    7.30
   3  14  -8   30.80    7.50
   2 -14  -8  214.18   14.60
  -2 -14   8  241.28   15.60
  -2  14   8  243.68   14.70
   1 -14  -8   14.70    5.50
  -1 -14   8   21.60    5.00
  -1  14   8    8.70    3.90
   0 -14  -8    0.80    4.50
   0  14   8   -0.10    4.30
   0  14  -8   -3.10    2.30
  -1 -14  -8   34.50    7.70
   1  14   8   34.00    6.90
  -1  14  -8   30.70    5.30
  -2 -14  -8   37.80    9.10
  -2  14  -8   47.90    6.00
   2  14   8   47.10    9.10
  -3 -14  -8   -1.60    5.90
   3  14   8   -6.00    4.30
  -3  14  -8    4.10    3.30
  -4 -14  -8   71.49   12.20
   4  14   8   34.00    8.90
  -4  14  -8   29.40    4.20
  -5 -14  -8    3.60    7.60
   5  14   8    4.50    6.60
  -6 -14  -8   -2.80    8.30
  -7 -14  -8   80.19   17.50
   7  14   8   89.79   17.50
  -8 -14  -8   35.10   12.60
   8  14   8   31.30   15.60
  -9 -15   8   -1.50    9.10
   9  15  -8  -19.30    8.10
  -8 -15   8   -1.30    8.50
   8  15  -8   16.60    8.90
  -7 -15   8   50.39   11.80
   7  15  -8   49.80   10.80
  -6 -15   8  113.29   15.40
   6 -15  -8   99.39    7.00
   6  15  -8   90.59   12.60
  -5 -15   8   58.69   11.40
   5  15  -8   66.09   11.20
  -4 -15   8   37.80    9.00
   4 -15  -8   22.60    5.70
   4  15  -8   24.80    7.90
  -3 -15   8  142.19   14.00
   3 -15  -8  159.58   11.70
   3  15  -8  147.39   13.70
  -2 -15   8  161.08   13.70
   2 -15  -8  140.89   12.60
  -2  15   8  114.79   11.20
  -1 -15   8   36.90    7.60
   1 -15  -8   26.40    7.40
  -1  15   8   27.80    6.50
   0 -15  -8  281.47   18.40
   0  15  -8  244.48   13.40
   0  15   8  252.37   16.90
  -1 -15  -8   13.70    6.60
   1  15   8   10.40    6.00
  -1  15  -8    9.70    4.20
  -2 -15  -8    8.10    7.60
  -2  15  -8    3.90    3.30
   2  15   8    1.20    5.20
  -3 -15  -8   96.49   13.70
  -3  15  -8  103.19    6.90
   3  15   8  106.19   12.60
  -4 -15  -8    0.00    6.50
  -5 -15  -8   25.70   10.10
  -6 -15  -8  116.79   19.20
   6  15   8  133.39   17.80
  -7 -15  -8   -9.60    9.40
   7  15   8   -5.80    9.40
  -9 -16   8   -1.80    9.70
   9  16  -8   -3.50    9.30
  -8 -16   8   94.69   18.50
   8  16  -8   89.79   16.10
  -7 -16   8    7.10    8.10
   7  16  -8   18.70    8.10
  -6 -16   8    4.10    6.90
   6  16  -8   11.10    7.20
  -5 -16   8   86.29   13.00
   5 -16  -8   68.69    8.20
   5  16  -8   75.29   12.00
  -4 -16   8   -0.30    5.80
   4  16  -8    2.90    4.70
   3 -16  -8   17.90    6.00
  -3 -16   8   10.70    5.70
   3  16  -8   20.40    6.60
  -2 -16   8  165.88   14.30
   2 -16  -8  146.79   13.40
  -2  16   8  184.08   14.10
  -1 -16   8   22.40    5.90
   1 -16  -8    6.50    6.00
  -1  16   8   10.20    5.00
   0 -16  -8   90.99   11.70
   0  16  -8   95.39   10.30
   0  16   8  101.69   11.50
  -1 -16  -8   53.89   10.40
  -1  16  -8   44.60    6.70
   1  16   8   47.90    9.30
  -2 -16  -8   12.70    5.80
   2  16   8   -0.40    5.30
  -3 -16  -8   22.30    6.80
   3  16   8   18.00    7.20
  -4 -16  -8   62.59   12.70
   4  16   8   72.09   12.90
  -5 -16  -8   13.50   10.00
  -6 -16  -8    1.70   10.30
   6  16   8   -9.90    8.50
  -7 -16  -8   47.20   15.00
   7  16   8  -12.30   20.10
  -8 -17   8   -1.70   10.00
   8  17  -8  -12.40    9.30
  -7 -17   8   33.50   11.60
   7  17  -8   73.69   13.60
  -6 -17   8   15.30    8.30
   6  17  -8   19.80    8.30
  -5 -17   8   23.20    8.20
   5  17  -8   31.10    9.60
  -4 -17   8   91.39   13.30
   4  17  -8  106.09   13.90
  -3 -17   8    2.20    5.70
   3  17  -8   -2.80    5.10
  -2 -17   8    3.90    5.60
   2 -17  -8    5.60    5.80
  -2  17   8    3.80    5.10
  -1 -17   8  149.29   13.20
   1 -17  -8  151.38   14.40
  -1  17   8  154.38   13.50
   0 -17  -8   75.09   12.30
   0  17  -8   43.10    7.30
   0  17   8   81.19   11.70
  -1 -17  -8   -2.70    5.80
   1  17   8    0.30    5.70
  -1  17  -8    2.90    3.70
  -2 -17  -8   11.10    6.90
  -2  17  -8   16.70    4.20
   2  17   8   17.90    7.40
  -3 -17  -8   22.90    7.80
   3  17   8   22.40    7.80
  -4 -17  -8   15.10    8.40
   4  17   8   -2.50    7.50
  -5 -17  -8  209.08   22.70
   5  17   8  234.38   22.10
  -6 -17  -8  -16.60   10.40
   6  17   8    1.10    8.80
  -7 -18   8   34.90   12.10
   7  18  -8   10.60    8.70
  -6 -18   8   -3.70    8.10
   6  18  -8    4.70    7.30
  -5 -18   8    3.90    6.50
   5  18  -8   -0.50    6.70
   4 -18  -8    0.20    6.00
   4  18  -8   10.80    7.10
  -3 -18   8  246.18   19.20
   3  18  -8  310.97   21.60
   2 -18  -8   93.89   11.40
  -2 -18   8  105.69   12.50
  -2  18   8   87.19   12.20
   1 -18  -8   20.10    7.20
  -1 -18   8   11.20    6.40
  -1  18   8    7.40    5.40
   0 -18  -8   24.70    8.10
   0  18  -8   44.30    7.00
   0  18   8   62.89   10.40
  -1 -18  -8  103.69   14.80
  -1  18  -8   89.49    8.60
   1  18   8   86.59   15.50
   2  18   8   10.40    9.50
  -2  18  -8   11.60    4.50
  -3 -18  -8    6.70    8.20
   3  18   8   13.90    7.80
  -4 -18  -8   56.59   14.00
   4  18   8   55.09   13.70
  -5 -18  -8    3.50    9.60
   5  18   8   18.70    9.90
  -6 -18  -8    9.50   11.90
   6  18   8    8.30   12.40
  -7 -19   8   34.20   15.30
   7  19  -8   41.10   13.20
  -6 -19   8   -4.70    8.90
   6  19  -8   17.20    9.40
  -5 -19   8   -3.30    7.80
   5  19  -8  -10.20    6.50
  -4 -19   8   97.99   15.30
   4  19  -8  118.89   16.00
   3 -19  -8   22.00    9.90
  -3 -19   8   39.80   11.10
   3  19  -8   34.70   10.60
  -2 -19   8   -7.70    5.70
  -1 -19   8   13.90    8.10
   1 -19  -8   36.20    9.40
   1  19  -8   23.90    6.50
  -1  19   8   16.40   10.30
   0 -19  -8   23.50    9.60
   0  19  -8   47.20    7.60
   0  19   8   32.40    8.80
  -1 -19  -8   19.50    9.00
  -1  19  -8    9.00    5.00
  -2 -19  -8   98.49   16.00
  -3 -19  -8   26.00    9.60
   3  19   8   30.50   10.50
  -4 -19  -8    5.40   11.10
   4  19   8   27.20   11.90
  -5 -19  -8   -0.20   11.80
   5  19   8    4.30   11.10
  -6 -20   8   33.50   12.90
   6  20  -8   12.20    9.20
  -5 -20   8   66.59   14.80
   5  20  -8   39.10   12.20
  -4 -20   8    1.80    9.10
   4  20  -8    4.20    8.50
  -3 -20   8   -4.90    7.70
  -3  20   8    2.70    7.30
   3  20  -8    5.30    7.60
  -2 -20   8   68.49   11.70
   2 -20  -8   42.50   10.80
  -2  20   8   54.79   11.00
   2  20  -8   50.89   10.10
  -1  20   8    2.60    7.20
   0 -20  -8    3.20    7.70
   0  20  -8    4.00    5.50
   0  20   8   11.40    8.30
  -1 -20  -8  145.69   17.30
   1  20   8  127.69   16.40
  -2 -20  -8    7.70    9.60
   2  20   8   12.00    8.70
  -3 -20  -8   -3.40    9.50
   3  20   8    1.80   10.00
  -4 -20  -8   17.10   11.90
   4  20   8   34.80   13.90
  -5 -21   8   12.70   12.60
   5  21  -8    0.30    8.80
  -4 -21   8   32.20   11.50
   4  21  -8    9.90    8.90
  -3 -21   8  -11.40    9.10
  -3  21   8   -5.60    7.70
   3  21  -8    0.50    8.10
   2 -21  -8   46.10   11.50
   2  21  -8   23.50    9.20
  -2  21   8   21.10    9.40
   1 -21  -8   16.80    9.40
  -1  21   8   25.10    9.60
   1  21  -8   18.70    7.20
   0  21  -8  153.48   19.00
   0  21   8  147.89   18.20
  -1 -21  -8   11.20    9.90
   1  21   8    2.10    9.20
  -2 -21  -8    1.20    9.80
   2  21   8   18.00    9.90
  -3 -21  -8    1.30   11.20
   3  21   8   -4.80   10.10
  -3  22   8  -13.60    9.20
   3  22  -8   17.30   16.10
  -2 -22   8    5.50    9.10
   2  22  -8    5.70    8.60
  -2  22   8   19.60   10.30
   1 -22  -8  -18.20   11.20
   1  22  -8    0.90    6.60
  -1  22   8   -7.80    9.70
   0 -22  -8   27.90   21.00
   0  22   8    8.30   12.10
   1  22   8   35.40   12.80
 -12   0   9   15.70   10.20
 -11   0   9  171.58   17.90
  11   0  -9  111.99   20.70
  10   0  -9   -4.50    5.70
 -10   0   9    2.70    6.10
  -9   0   9   42.40    9.10
   9   0  -9   28.80    6.80
  -8   0   9   -0.70    3.70
   8   0  -9    3.20    3.30
   7   0  -9   -1.50    2.20
  -7   0   9   -4.70    4.80
  -7   0   9    6.90    4.20
   6   0  -9   -1.80    1.60
  -6   0   9   -2.40    2.30
  -5   0   9  763.92   28.20
   5   0  -9  749.23   25.70
   5   0  -9  752.22   19.80
   4   0  -9    0.90    0.60
   4   0  -9    0.30    2.00
   3   0  -9  155.18    9.50
   2   0  -9   -2.90    1.40
   1   0  -9  481.55   12.30
   1   0  -9  470.25   18.00
   0   0  -9    1.30    2.00
   0   0   9    0.80    1.10
   0   0  -9    0.50    1.50
  -1   0  -9 1055.29   31.90
   1   0   9 1004.60   28.40
  -1   0  -9 1013.50   28.20
  -2   0  -9    1.20    2.40
   2   0   9   -0.40    1.80
  -2   0  -9   -0.80    3.10
  -3   0  -9   87.59    8.80
   3   0   9   80.79    8.10
   4   0   9   -5.00    2.70
  -4   0  -9    0.30    4.60
   5   0   9  452.35   22.90
  -5   0  -9  462.75   22.90
   6   0   9    2.30    4.30
  -6   0  -9    2.60    5.10
  -7   0  -9    7.50    6.60
   7   0   9    6.50    6.20
   8   0   9   -4.90    6.60
  -8   0  -9   -4.40    6.90
  -9   0  -9   17.30   10.10
   9   0   9   28.70   10.60
  10   0   9   10.60   14.70
 -12  -1   9   34.90   12.50
 -11  -1   9   -7.90    7.10
  11   1  -9   -1.20    8.00
 -11   1   9   15.60    9.00
 -10  -1   9  113.39   14.10
  10  -1  -9  106.59   12.50
  10   1  -9  120.29   13.00
 -10   1   9  103.89   13.50
  -9  -1   9    2.70    5.80
   9  -1  -9   -1.60    5.10
   9   1  -9   -2.70    4.00
  -9   1   9   -0.30    5.50
  -8  -1   9    4.90    5.10
   8  -1  -9    1.60    3.20
  -8   1   9    4.50    5.20
   8   1  -9   -0.30    3.30
   7  -1  -9    7.80    2.90
  -7  -1   9    9.80    4.90
  -7  -1   9    4.10    4.00
   7   1  -9    8.10    3.00
  -7   1   9    6.00    4.10
   6  -1  -9  208.08    9.50
   6  -1  -9  215.48   12.70
  -6  -1   9  211.68    9.60
  -6  -1   9  218.28   14.80
  -6   1   9  223.38    9.80
   6   1  -9  208.98   10.00
  -6   1   9  227.48   14.30
  -5  -1   9   19.30    5.20
   5  -1  -9   17.40    2.40
   5  -1  -9   23.20    4.70
  -5   1   9   15.30    2.60
   5   1  -9   16.00    2.90
   4  -1  -9  230.88   12.00
   4   1  -9  221.08    6.80
   4   1  -9  204.48   11.60
   3  -1  -9  125.99    8.50
   3   1  -9  109.29    8.10
   2  -1  -9   49.60    5.40
   2   1  -9   49.40    5.40
   1  -1  -9   57.99    5.70
   1   1  -9   49.40    3.20
  -1   1   9   42.10    2.40
   1   1  -9   41.80    5.00
   0  -1   9 1324.97   32.60
   0  -1  -9 1342.97   32.30
   0  -1  -9 1346.77   37.90
   0   1   9 1300.97   32.40
   0   1  -9 1416.06   37.90
   0   1  -9 1318.37   32.90
  -1  -1  -9    6.60    2.40
  -1  -1  -9    3.60    2.50
   1  -1   9    4.60    2.10
  -1   1  -9    5.60    2.80
  -1   1  -9    3.30    2.20
   1   1   9    3.90    1.60
  -2  -1  -9   12.70    3.80
  -2  -1  -9   21.60    6.30
   2  -1   9   19.60    4.30
   2   1   9   20.50    4.10
  -2   1  -9   23.30    5.20
   3  -1   9   38.20    5.60
  -3  -1  -9   41.10    6.70
   3   1   9   22.80    5.40
  -3   1  -9   35.80    6.20
   4  -1   9  284.07   16.60
  -4  -1  -9  306.57   17.60
  -4   1  -9  258.17   15.70
   4   1   9  284.77   16.50
   5  -1   9   29.30    7.60
  -5  -1  -9   38.00    7.70
  -5   1  -9   35.00    7.40
   5   1   9   25.40    6.60
   6  -1   9  141.99   14.20
  -6  -1  -9  131.09   13.90
   6   1   9  138.49   13.70
  -6   1  -9  156.88   14.10
   7  -1   9   12.10    5.90
  -7  -1  -9   -4.10    5.60
  -7   1  -9    3.50    5.90
   7   1   9    3.10    5.60
   8  -1   9   15.80    7.90
  -8  -1  -9   23.30    8.60
   8   1   9   16.20    7.70
  -8   1  -9   24.20    8.80
  -9  -1  -9   23.20   11.00
   9  -1   9    7.10    8.10
   9   1   9   10.50    8.40
  -9   1  -9   17.60   12.10
 -10  -1  -9   34.80   13.40
  10  -1   9   59.59   20.60
  10   1   9   25.70   21.50
 -12  -2   9    4.60    9.60
  11  -2  -9   18.40    7.40
 -11  -2   9   11.40    8.80
 -11   2   9   15.60   11.70
  10  -2  -9    1.10    5.80
 -10  -2   9   18.30    8.60
  10   2  -9    9.50    6.20
 -10   2   9    4.10    6.50
  -9  -2   9   58.69   10.10
   9  -2  -9   43.40    9.30
  -9   2   9   61.59   10.20
   9   2  -9   54.29    8.70
  -8  -2   9   26.40    8.10
   8  -2  -9   39.80    6.30
   8  -2  -9   42.10    7.00
  -8   2   9   35.20    8.00
   8   2  -9   33.80    6.70
   7  -2  -9  270.57   12.50
  -7  -2   9  282.07   17.90
   7  -2  -9  282.27   14.90
   7   2  -9  246.38   13.10
   6  -2  -9    3.90    3.30
  -6  -2   9   18.30    5.80
   6  -2  -9    6.70    2.40
  -6   2   9    6.60    2.80
   6   2  -9    7.20    2.60
  -5  -2   9   70.99    8.20
   5  -2  -9   79.89    7.40
   5  -2  -9   85.89    4.60
  -5   2   9   81.79    4.60
  -4  -2   9   75.09    8.30
   4  -2  -9   73.89    6.80
   4   2  -9   79.89    4.30
   4   2  -9   76.59    7.20
   3  -2  -9    2.10    2.10
   3   2  -9    4.50    2.20
   3   2  -9    5.50    1.20
   2  -2  -9  227.58   11.60
   2   2  -9  215.08    6.60
   2   2  -9  218.68   11.50
   2   2  -9  215.98    6.90
   1  -2  -9  897.31   27.80
   1   2  -9  887.91   22.20
   1   2  -9  883.91   27.20
  -1   2   9  879.41   20.60
   0  -2  -9   66.09    6.70
   0  -2  -9   78.09    4.70
   0  -2   9   71.19    5.00
   0   2  -9   82.29    5.50
   0   2   9   80.09    5.00
   0   2  -9   83.09    7.00
   1  -2   9  583.14   19.20
  -1  -2  -9  580.14   22.10
  -1  -2  -9  571.14   18.50
   1   2   9  591.14   19.20
  -1   2  -9  570.54   21.00
   2  -2   9   84.39    7.50
  -2  -2  -9  105.69    9.20
  -2   2  -9   94.49    8.10
   2   2   9  101.89    7.90
   3  -2   9   34.70    5.20
  -3  -2  -9   34.40    6.60
  -3   2  -9   32.90    5.70
   3   2   9   37.40    6.10
  -4  -2  -9   56.49    8.70
   4   2   9   75.49    8.90
  -4   2  -9   64.39    8.20
  -5  -2  -9  158.58   13.90
   5  -2   9  147.89   13.10
  -5   2  -9  160.68   13.10
   5   2   9  141.09   12.50
  -6  -2  -9  197.48   16.20
   6  -2   9  157.28   14.70
   6   2   9  193.48   16.30
  -6   2  -9  157.38   14.10
  -7  -2  -9  -14.20    5.10
   7  -2   9    6.40    5.40
   7   2   9   -2.30    5.80
  -7   2  -9    1.60    4.90
   8  -2   9   16.40    7.50
  -8  -2  -9   40.70   10.90
  -8   2  -9   26.40    8.30
   8   2   9   30.90    9.40
   9  -2   9  170.38   20.50
  -9  -2  -9  172.68   19.70
   9   2   9  148.59   18.60
  10  -2   9   27.50   21.40
 -10  -2  -9   -5.70   11.90
 -10   2  -9   -5.40   11.20
 -12  -3   9   47.20   14.50
  12  -3  -9   36.10   10.90
 -11  -3   9    5.10    7.90
  11  -3  -9   -8.60    6.80
 -10  -3   9   65.89   19.10
  10  -3  -9   53.99    9.70
  10  -3  -9   55.19    9.50
  10   3  -9   43.80    8.70
   9  -3  -9   31.50    6.80
   9  -3  -9   33.00    6.90
  -9  -3   9   13.40    6.90
   9   3  -9   30.20    6.90
  -8  -3   9    5.40    5.00
   8  -3  -9   12.00    4.40
   8  -3  -9   20.60    5.00
   8   3  -9   18.40    5.30
   7  -3  -9   21.60    4.30
  -7  -3   9   20.40    6.60
   7   3  -9   10.10    4.00
  -6  -3   9  121.99   11.50
   6  -3  -9  153.78   10.00
   6  -3  -9  135.69    7.60
  -6   3   9  156.48    8.40
   6   3  -9  143.79    8.90
   5  -3  -9   52.59    5.90
   5   3  -9   55.39    5.10
  -5   3   9   59.49    4.40
   4  -3  -9  618.54   21.80
  -4  -3   9  635.74   25.30
  -4   3   9  635.54   15.90
   4   3  -9  639.84   17.90
   3  -3  -9    0.30    2.20
   3   3  -9   -0.10    1.10
   3   3  -9    0.90    1.80
   2  -3  -9  799.22   25.40
   2   3  -9  755.02   25.00
   1  -3  -9  120.69    8.50
   1   3  -9  103.99    5.90
   1   3  -9  120.59    8.30
  -1   3   9  127.59    5.30
   0  -3  -9   88.19    7.70
   0  -3  -9   76.99    4.80
   0   3  -9   86.89    7.20
   0   3  -9   84.39    5.90
   0   3   9   94.39    5.90
  -1  -3  -9  634.44   23.50
   1  -3   9  617.14   20.30
  -1  -3  -9  610.34   19.50
   1   3   9  632.34   20.40
  -1   3  -9  626.84   21.90
  -1   3  -9  589.14   20.40
   2  -3   9  196.48   11.30
  -2  -3  -9  215.78   13.60
  -2   3  -9  195.78   11.60
   2   3   9  202.18   11.40
   3  -3   9  491.35   21.10
   3   3   9  507.25   21.60
  -3   3  -9  541.65   21.20
   4  -3   9  752.92   28.80
  -4  -3  -9  680.83   29.20
  -4   3  -9  769.12   27.80
  -5  -3  -9   36.00    8.10
   5  -3   9   43.20    8.90
  -5   3  -9   26.20    6.70
   5   3   9   57.09    9.00
  -6  -3  -9   74.89   11.10
   6  -3   9   88.09   11.60
  -6   3  -9   80.59   10.00
   6   3   9   97.09   12.40
  -7  -3  -9   37.70   10.70
   7  -3   9   26.90    7.00
  -7   3  -9   26.40    8.50
   7   3   9   48.50   11.80
   8  -3   9   15.40    7.20
  -8   3  -9   12.00    8.30
   8   3   9    3.90    7.10
   9  -3   9   15.60    9.60
  -9  -3  -9    1.30   10.00
   9   3   9   -7.10    8.00
  10  -3   9  135.19   25.80
 -10   3  -9  142.49   20.20
  10   3   9   72.99   23.40
 -12  -4   9   -3.80    9.90
  12  -4  -9   -4.60    9.10
 -11  -4   9   17.80   10.50
  10  -4  -9   78.99   10.20
 -10  -4   9   90.79   14.40
  10  -4  -9   76.09   10.90
  10   4  -9   76.89   11.80
   9  -4  -9   41.50    8.10
   9  -4  -9   50.49    8.30
  -9  -4   9   36.50    8.30
   9   4  -9   56.49    9.10
   8  -4  -9  105.29    9.30
   8  -4  -9  104.49    9.10
  -8  -4   9  104.69   12.50
   8   4  -9  110.09   10.40
  -7  -4   9   42.40    8.50
   7  -4  -9   53.19    6.60
   7  -4  -9   45.70    5.70
   7   4  -9   51.19    7.20
  -6  -4   9   67.09    8.30
   6  -4  -9   61.89    6.60
   6   4  -9   62.09    6.20
  -6   4   9   59.49    5.80
  -5  -4   9  215.78   14.60
   5  -4  -9  205.88   11.50
   5   4  -9  208.18   10.10
  -5   4   9  212.58    8.90
   4  -4  -9  684.13   23.20
  -4  -4   9  718.33   27.60
   4   4  -9  715.33   20.50
  -4   4   9  695.03   17.60
  -3  -4   9    2.20    2.70
   3  -4  -9    0.90    2.00
   3   4  -9    0.00    1.30
   3   4  -9    1.10    1.70
  -3   4   9    0.50    0.80
  -3   4   9    0.30    0.80
   2  -4  -9    0.30    1.70
   2   4  -9   -0.80    1.60
  -2   4   9   -1.30    1.00
  -2   4   9    2.70    1.10
   1  -4  -9  236.88   12.40
   1   4  -9  207.08    9.20
   1   4  -9  211.78   11.20
  -1   4   9  229.98    8.40
   0  -4  -9   34.60    5.50
   0   4   9   32.50    3.80
   0   4  -9   24.50    4.00
   0   4  -9   32.90    4.40
  -1  -4  -9  100.59    6.70
  -1  -4  -9   96.59    8.90
   1  -4   9  113.59    7.70
   1   4   9  100.89    7.60
  -1   4  -9  103.09    8.00
  -1   4  -9  104.79    7.70
   2  -4   9    0.00    2.20
  -2  -4  -9    4.70    3.10
  -2   4  -9   -2.90    1.80
   2   4   9    0.70    2.30
   3  -4   9   15.60    4.10
  -3  -4  -9   26.30    6.40
   3   4   9   14.90    5.00
  -3   4  -9   22.10    4.90
  -4  -4  -9    3.40    3.50
   4  -4   9    3.90    3.30
  -4   4  -9   -1.20    3.20
   4   4   9    0.10    3.00
  -5  -4  -9  361.86   21.70
   5  -4   9  378.26   21.00
   5   4   9  355.46   20.80
  -5   4  -9  377.36   19.00
   6  -4   9   -1.10    4.20
  -6  -4  -9   -3.10    5.00
   6   4   9    2.60    5.00
  -6   4  -9   -4.80    4.60
  -7  -4  -9    2.10    5.90
   7  -4   9   -3.00    4.90
   7   4   9    6.70    6.00
  -7   4  -9   -2.10    5.50
  -8  -4  -9    4.10    7.50
   8  -4   9    4.90    7.30
   8   4   9    9.70    7.30
  -8   4  -9    4.40    6.50
  -9  -4  -9   13.70   12.20
   9  -4   9    6.10    9.60
   9   4   9    3.20    9.50
 -10  -4  -9    0.30   12.70
  10  -4   9    2.30   10.50
  10   4   9    9.80   10.80
 -12  -5   9    5.70   11.30
  12  -5  -9  -13.80   11.70
 -11  -5   9   11.30    9.50
  10  -5  -9  148.69   13.50
  10  -5  -9  140.49   12.20
 -10  -5   9  123.59   16.30
  10   5  -9  148.29   14.00
   9  -5  -9    0.60    3.60
  -9  -5   9   -2.30    5.40
   9  -5  -9   -5.20    4.10
   9   5  -9   -6.50    4.60
   8  -5  -9   90.89    9.00
  -8  -5   9   80.09   12.10
   8  -5  -9   97.29    8.70
   7  -5  -9    3.40    2.80
  -7  -5   9    0.10    4.00
   7   5  -9    1.20    3.00
  -6  -5   9  235.68   16.60
   6  -5  -9  240.58   12.70
  -6   5   9  245.78   14.40
   6   5  -9  255.47   13.10
   5  -5  -9  232.18   11.80
  -5  -5   9  213.18   14.70
  -5   5   9  225.58    9.70
   5   5  -9  221.78   11.00
   4  -5  -9  322.67   14.60
  -4  -5   9  339.97   18.00
  -4   5   9  343.07   11.40
   4   5  -9  366.86   13.50
   3  -5  -9   38.60    5.00
  -3  -5   9   34.50    6.10
  -3   5   9   32.10    3.10
   3   5  -9   37.50    4.00
  -3   5   9   34.20    2.80
   2  -5  -9  649.14   22.80
   2   5  -9  655.33   22.80
  -2   5   9  656.43   17.10
   2   5  -9  634.94   18.90
  -2   5   9  641.54   17.00
   1  -5  -9   19.60    4.60
   1   5  -9   21.30    3.60
   1   5  -9   10.40    3.20
  -1   5   9   25.00    3.20
   0  -5  -9  343.47   16.20
   0   5  -9  304.07   13.20
   0   5  -9  321.77   14.20
   0   5   9  332.57   12.80
  -1  -5  -9    1.10    2.30
  -1  -5  -9    3.00    2.80
   1   5   9    4.20    2.40
  -1   5  -9    1.70    2.10
   2  -5   9   47.20    6.20
  -2  -5  -9   49.50    7.70
  -2   5  -9   53.39    6.10
   2   5   9   45.90    6.20
   3  -5   9   57.09    7.50
  -3  -5  -9   43.60    7.60
  -3   5  -9   54.19    6.60
   3   5   9   55.29    7.40
   4  -5   9   39.30    7.70
  -4  -5  -9   43.40    8.10
   4   5   9   56.29    8.50
  -4   5  -9   41.50    6.50
  -5  -5  -9    4.10    4.90
   5  -5   9    4.00    4.10
   5   5   9    6.40    3.90
  -5   5  -9    7.10    3.80
   6  -5   9  258.37   19.00
  -6  -5  -9  306.47   21.40
   6   5   9  293.37   20.10
   7  -5   9   -1.00    5.50
  -7  -5  -9   -1.70    5.70
   7   5   9   -0.60    6.30
  -7   5  -9    7.30    6.20
   8  -5   9   23.60    8.60
  -8  -5  -9   25.90    9.80
  -8   5  -9   35.70    8.90
   8   5   9   23.50    8.90
  -9  -5  -9   53.69   14.10
   9  -5   9   27.00   10.30
   9   5   9   34.40   11.50
  -9   5  -9   17.70   10.80
  10  -5   9   59.89   15.90
 -10  -5  -9   37.80   15.60
  10   5   9   64.69   15.20
 -12  -6   9   14.80   15.20
  12  -6  -9   10.80   10.90
  11  -6  -9   34.20    8.40
 -11  -6   9   11.00   10.50
  10  -6  -9   -5.60    6.80
 -10  -6   9   -4.50    7.20
  10   6  -9   -1.30    5.80
  -9  -6   9   86.09   13.90
   9  -6  -9  103.79    9.60
   9  -6  -9   96.69   10.40
   9   6  -9  107.59   12.30
   8  -6  -9    5.40    4.00
  -8  -6   9   -0.40    4.80
   8   6  -9   -0.10    4.70
  -7  -6   9  330.37   21.20
   7  -6  -9  341.37   15.50
   7   6  -9  334.17   17.20
   6  -6  -9  125.79    9.00
  -6  -6   9  117.59   12.30
   6   6  -9  121.19    9.30
   5  -6  -9  191.38   10.90
  -5  -6   9  181.18   13.80
   5   6  -9  185.18   10.50
  -5   6   9  186.18    9.40
   4  -6  -9   12.30    3.60
  -4  -6   9    6.00    4.00
   4   6  -9   12.60    3.30
  -4   6   9    9.90    2.40
  -3  -6   9    4.80    3.30
   3  -6  -9   -0.60    2.00
  -3   6   9    9.10    2.30
   3   6  -9    0.40    1.90
   2  -6  -9    3.00    2.60
  -2   6   9    3.20    1.80
   2   6  -9    2.20    2.10
   1  -6  -9  376.76   16.80
   1   6  -9  375.36   14.40
  -1   6   9  373.66   13.30
   1   6  -9  361.76   15.70
   0  -6  -9  303.07   15.80
   0   6  -9  311.57   14.30
   0   6   9  324.07   13.20
   0   6  -9  286.77   13.60
  -1  -6  -9   36.10    6.40
   1   6   9   47.20    5.60
  -1   6  -9   35.20    5.00
  -2  -6  -9   34.70    6.90
   2  -6   9   22.30    5.30
  -2   6  -9   35.60    5.20
   2   6   9   24.40    5.20
  -3  -6  -9  123.99   11.40
   3  -6   9   93.09    9.40
  -3   6  -9  106.39    8.70
   3   6   9  121.59   10.50
  -4  -6  -9   18.20    6.60
   4  -6   9   22.40    6.20
  -4   6  -9   33.60    6.40
   4   6   9   27.50    6.40
  -5  -6  -9  347.07   21.90
   5  -6   9  352.76   20.60
  -5   6  -9  339.87   17.40
   5   6   9  352.36   20.70
  -6  -6  -9    0.60    5.50
   6  -6   9    3.50    6.10
   6   6   9   -2.10    5.50
  -6   6  -9    3.00    4.90
  -7  -6  -9   -9.20    6.00
   7   6   9   -6.20    6.60
  -7   6  -9    2.70    5.50
   8  -6   9   26.10    9.90
  -8  -6  -9    4.00    8.40
   8   6   9   -2.70    7.50
  -8   6  -9   10.00    7.10
   9  -6   9    5.70   10.90
  -9  -6  -9    3.20   10.00
   9   6   9    5.50    9.60
  -9   6  -9   10.20    9.30
 -11  -7   9   56.99   14.50
 -10  -7   9   40.70   10.60
  10   7  -9   42.60    9.40
  -9  -7   9    6.90    6.50
   9   7  -9   17.20    7.40
   8  -7  -9   18.60    5.20
  -8  -7   9   12.60    6.00
   8   7  -9   40.10    7.80
  -7  -7   9   16.10    6.40
   7  -7  -9   13.50    4.20
   7   7  -9    9.50    4.60
  -6  -7   9  486.65   24.80
   6  -7  -9  463.95   18.10
  -6   7   9  406.26   21.10
   6   7  -9  461.95   19.40
   5  -7  -9   16.90    4.20
  -5  -7   9    8.90    4.00
   5   7  -9   16.00    4.40
  -5   7   9   16.30    4.90
  -4  -7   9  509.55   23.50
   4  -7  -9  513.55   19.30
  -4   7   9  485.85   16.50
   4   7  -9  492.65   18.40
   3  -7  -9  877.31   27.70
  -3  -7   9  848.72   30.90
   3   7  -9  827.72   25.30
  -3   7   9  828.12   23.40
   2  -7  -9  579.64   22.30
  -2  -7   9  605.84   24.30
  -2   7   9  630.84   18.70
   2   7  -9  644.74   22.80
   1  -7  -9  155.98   10.40
   1   7  -9  126.59    8.90
  -1   7   9  125.69    7.60
   0  -7  -9  115.59    9.90
   0   7   9  135.89    8.50
   0   7  -9  121.89    8.70
  -1  -7  -9   23.10    5.50
  -1   7  -9   33.10    4.90
   1   7   9   30.20    5.30
  -2  -7  -9  236.88   15.60
   2   7   9  201.38   12.50
  -2   7  -9  221.68   12.00
   3  -7   9  166.48   12.30
  -3  -7  -9  182.68   14.10
  -3   7  -9  182.18   11.20
   3   7   9  187.18   13.20
  -4  -7  -9  121.49   13.10
   4  -7   9  154.58   12.90
  -4   7  -9  120.39    9.80
   4   7   9  145.69   12.80
  -5  -7  -9   23.40    6.70
   5  -7   9   21.70    7.20
   5   7   9   26.60    7.90
  -5   7  -9   17.10    5.30
   6  -7   9   29.30    8.40
  -6  -7  -9   37.40    8.60
  -6   7  -9   33.40    6.90
   6   7   9   39.70    8.40
  -7  -7  -9    5.90    7.60
   7  -7   9    7.90    7.10
  -7   7  -9    6.60    5.80
   7   7   9   -2.90    7.90
  -8  -7  -9  -12.00    8.30
   8  -7   9  -19.30    6.40
  -8   7  -9  -15.60    6.90
   8   7   9   -1.20    7.40
   9  -7   9    5.30   10.60
  -9  -7  -9    7.60   11.70
   9   7   9   12.40   10.40
 -11  -8   9   35.30   11.90
 -10  -8   9   12.90    8.80
  10   8  -9   16.00    7.90
  -9  -8   9   12.30    7.90
   9   8  -9   14.90    6.70
  -8  -8   9    3.80    4.30
   8  -8  -9    5.10    3.70
   8   8  -9    6.50    5.40
  -7  -8   9  298.67   20.40
   7  -8  -9  302.57   14.40
   7   8  -9  318.27   17.50
  -6  -8   9  119.49   12.60
   6  -8  -9  103.69    8.10
   6   8  -9  102.39    9.80
  -5  -8   9  365.06   20.90
   5  -8  -9  365.66   15.70
  -5   8   9  339.17   14.80
   5   8  -9  361.46   16.80
   4  -8  -9    3.10    2.80
  -4  -8   9   -1.70    2.60
  -4   8   9    3.70    3.30
   4   8  -9    4.70    2.90
   3  -8  -9    1.60    2.30
   3   8  -9    1.50    2.30
  -3   8   9   -0.60    2.50
   2  -8  -9   20.60    4.40
  -2  -8   9   21.50    5.40
  -2   8   9   22.40    3.90
   1  -8  -9  251.27   14.30
  -1   8   9  253.07   11.80
   1   8  -9  257.27   13.10
   0  -8  -9   19.60    5.40
   0   8  -9   13.00    3.90
   0   8   9   20.00    4.20
  -1  -8  -9   90.09    9.50
   1   8   9   89.09    8.00
  -1   8  -9   70.19    6.70
  -2  -8  -9  137.99   12.20
  -2   8  -9  135.69    9.40
   2   8   9  128.09   10.60
  -3  -8  -9  109.49   11.60
   3   8   9   85.99    9.40
  -3   8  -9   82.49    7.60
  -4  -8  -9   -2.30    3.90
   4  -8   9    0.40    3.90
   4   8   9    2.20    4.00
  -4   8  -9    2.90    3.50
   5  -8   9  144.59   13.90
  -5  -8  -9  134.09   15.20
  -5   8  -9  139.29   11.00
   5   8   9  145.79   14.50
   6  -8   9    8.10    5.30
  -6  -8  -9   13.50    6.90
   6   8   9   11.80    6.80
  -6   8  -9   16.20    5.90
  -7  -8  -9   59.39   13.40
   7  -8   9   28.50    9.80
  -7   8  -9   36.70    7.30
   7   8   9   66.49   12.40
  -8  -8  -9   11.30    9.00
   8  -8   9   15.00    8.10
  -8   8  -9   16.20    8.00
   8   8   9    8.80    7.40
   9  -8   9   39.50   11.40
  -9  -8  -9  116.09   20.20
   9   8   9   66.69   15.40
 -11  -9   9   12.10   11.50
 -10  -9   9   29.40   10.50
  10   9  -9   34.90   12.00
  -9  -9   9   64.29   12.10
   9   9  -9   60.89   11.80
   8  -9  -9    6.70    4.10
  -8  -9   9   11.40    7.30
   8   9  -9   12.20    6.20
   7  -9  -9   12.40    4.10
  -7  -9   9    0.20    4.50
   7   9  -9    3.20    3.70
  -6  -9   9  122.39   13.10
   6  -9  -9  111.49    8.60
  -5  -9   9   13.00    5.40
   5  -9  -9    9.10    4.00
   5   9  -9   18.40    5.60
  -4  -9   9   40.90    8.70
   4  -9  -9   47.80    6.10
  -4   9   9   37.00    6.00
   4   9  -9   42.10    6.20
  -3  -9   9  390.76   20.00
   3  -9  -9  383.66   17.00
  -3   9   9  357.56   15.00
   3   9  -9  397.36   16.80
   2  -9  -9    1.90    2.50
  -2  -9   9   -1.90    2.40
  -2   9   9    2.50    2.10
   1  -9  -9  165.68   11.90
   1   9  -9  172.18   10.70
  -1   9   9  165.58    9.80
   0  -9  -9  252.87   16.00
   0   9  -9  260.07   13.20
   0   9   9  284.47   13.90
  -1  -9  -9  169.78   13.20
  -1   9  -9  152.28    9.80
   1   9   9  158.88   11.10
  -2  -9  -9   45.90    8.10
  -2   9  -9   54.99    6.40
   2   9   9   67.09    8.50
  -3  -9  -9   47.80    9.00
  -3   9  -9   43.00    6.30
   3   9   9   51.99    8.30
  -4  -9  -9   32.00    8.10
   4   9   9   23.00    5.80
  -4   9  -9   22.00    5.50
   5  -9   9   48.60    9.80
  -5  -9  -9   32.70   10.10
   5   9   9   35.40    8.60
  -5   9  -9   49.70    7.50
   6  -9   9   73.29   11.20
  -6   9  -9   85.69    9.20
   6   9   9   84.69   12.90
  -7  -9  -9   52.49   12.40
   7  -9   9   37.50    9.60
   7   9   9   28.40   10.10
  -7   9  -9   62.59    9.00
  -8  -9  -9   18.70   11.00
   8  -9   9    7.50    8.70
   8   9   9    2.80    8.10
  -9  -9  -9   16.60   12.20
   9   9   9  -10.00    9.30
 -11 -10   9   55.29   19.60
 -10 -10   9   -1.00    8.70
  10  10  -9    6.90   11.60
   9 -10  -9   13.80    5.30
  -9 -10   9   34.50   10.10
   9  10  -9   28.90    7.90
  -8 -10   9   16.10    6.50
   8  10  -9   12.20    6.10
  -7 -10   9    4.80    5.50
   7 -10  -9    1.50    3.40
   7  10  -9    5.90    4.80
  -6 -10   9   12.90    6.60
   6 -10  -9   10.80    3.80
   6  10  -9    2.70    3.80
  -5 -10   9  639.24   29.50
   5 -10  -9  648.44   22.60
   5  10  -9  591.04   28.00
  -4 -10   9    3.40    4.30
   4 -10  -9   -0.40    2.60
   4  10  -9    4.00    3.20
  -3 -10   9  253.97   16.20
   3 -10  -9  237.68   13.20
   3  10  -9  197.88   12.30
   2 -10  -9   19.70    4.80
  -2  10   9    9.30    3.00
   1 -10  -9   33.20    6.60
  -1  10   9   27.80    5.40
   1  10  -9   49.60    6.30
   0 -10  -9   67.49    9.00
   0  10   9   86.79    8.30
   0  10  -9   67.29    7.00
  -1 -10  -9  324.97   19.00
  -1  10  -9  322.97   14.80
   1  10   9  347.17   17.50
  -2 -10  -9  110.19   11.90
   2  10   9  122.09   11.10
  -2  10  -9  105.19    8.40
  -3 -10  -9   86.99   11.30
  -3  10  -9   94.39    8.00
   3  10   9   90.19   10.80
  -4 -10  -9   -1.60    4.60
   4  10   9    8.30    6.10
  -4  10  -9    3.40    3.60
  -5 -10  -9  111.19   14.00
  -5  10  -9  101.99    8.90
   5  10   9   85.19   12.30
   6 -10   9    0.50    6.20
  -6 -10  -9    7.00    7.60
   6  10   9    6.30    6.20
  -6  10  -9   10.00    4.90
  -7 -10  -9    1.90    8.20
   7 -10   9    4.60    6.20
  -8 -10  -9   12.10   11.60
   8 -10   9   -4.10    8.50
   8  10   9   -9.00    8.60
  -9 -10  -9    3.40   12.20
   9 -10   9    7.90   10.30
   9  10   9   11.80   12.90
 -10 -11   9   28.40   10.20
  10  11  -9   41.40   11.60
  -9 -11   9    1.50    6.80
   9  11  -9    0.90    6.20
   8 -11  -9    2.30    4.50
  -8 -11   9   11.50    6.90
   8  11  -9    4.30    5.10
  -7 -11   9    5.50    7.00
   7  11  -9    2.30    5.00
   6 -11  -9  120.09    8.90
  -6 -11   9  122.89   13.90
   6  11  -9  115.49   11.30
  -5 -11   9   66.09   10.30
   5 -11  -9   62.69    7.20
   5  11  -9   53.29    8.40
   4 -11  -9   14.40    4.00
  -4 -11   9   18.40    5.90
   4  11  -9    7.30    4.10
  -3 -11   9   -0.20    3.60
   3 -11  -9   -2.30    2.60
   3  11  -9   -0.10    2.70
  -2 -11   9   47.40    7.50
   2 -11  -9   45.90    7.00
  -2  11   9   43.10    5.90
   1 -11  -9   62.39   12.30
   1  11  -9   51.09    6.30
  -1  11   9   50.69    7.00
   0 -11  -9  564.94   25.10
   0  11  -9  566.34   21.30
   0  11   9  578.94   22.90
  -1 -11  -9    2.60    4.30
   1  11   9    0.70    3.80
  -1  11  -9    1.80    2.30
  -2 -11  -9   27.20    6.30
   2  11   9   27.00    6.30
  -2  11  -9   28.80    5.20
  -3 -11  -9  176.78   15.50
  -3  11  -9  161.28   10.50
   3  11   9  150.58   13.70
  -4 -11  -9  303.57   21.90
   4  11   9  329.27   20.60
  -4  11  -9  286.97   13.70
  -5 -11  -9   26.40    8.90
   5  11   9   28.90    8.20
  -6 -11  -9   11.70    8.00
   6  11   9    8.50    7.30
  -7 -11  -9    3.80    8.60
  -8 -11  -9    0.00   11.90
   8  11   9    2.90   10.50
 -10 -12   9   -0.20    7.60
  -9 -12   9   57.69   13.20
   9  12  -9   84.39   14.20
   8 -12  -9   59.89    7.80
  -8 -12   9   56.69   12.30
   8  12  -9   69.29   12.00
  -7 -12   9  167.18   17.00
   7  12  -9  177.98   15.80
   6 -12  -9   -1.30    3.60
  -6 -12   9    2.50    4.90
   6  12  -9   -0.40    4.50
   5 -12  -9  117.89    9.30
  -5 -12   9  101.39   12.80
   5  12  -9  119.59   11.40
   4 -12  -9  102.69    9.00
  -4 -12   9  118.89   12.50
   4  12  -9  101.29    9.90
  -3 -12   9   78.49   10.10
   3 -12  -9   88.89    8.90
   3  12  -9   94.59    9.40
  -2 -12   9  123.09   11.60
   2 -12  -9  135.19   11.00
  -2  12   9  125.79    9.90
   1 -12  -9  544.15   24.10
  -1  12   9  568.04   22.70
   1  12  -9  585.94   31.70
   0 -12  -9    3.40    3.70
   0  12   9    1.50    2.90
   0  12  -9    3.70    2.70
  -1 -12  -9  342.17   20.30
   1  12   9  359.06   18.80
  -1  12  -9  357.76   15.80
  -2 -12  -9  210.98   17.30
   2  12   9  252.57   16.70
  -2  12  -9  256.77   12.80
  -3 -12  -9   83.09   11.90
  -3  12  -9   79.29    7.80
   3  12   9  100.39   11.10
  -4 -12  -9    0.30    5.50
  -4  12  -9   -1.30    3.70
   4  12   9    0.10    4.70
  -5 -12  -9    0.90    7.00
  -5  12  -9   20.50    4.70
   5  12   9   24.00    6.90
  -6 -12  -9   18.40    9.60
  -7 -12  -9    7.50    9.40
   7  12   9   29.00   10.90
  -8 -12  -9  137.59   24.20
   8  12   9  104.19   19.70
 -10 -13   9    7.60    9.00
  10  13  -9   19.20   10.00
  -9 -13   9   12.70    9.30
   9  13  -9    7.30    7.90
  -8 -13   9   -2.20    6.60
   8  13  -9    3.10    6.90
   7 -13  -9   48.80    7.30
  -7 -13   9   43.10   11.40
   7  13  -9   37.20    9.40
  -6 -13   9  112.29   14.40
   6  13  -9   96.99   11.90
   5 -13  -9   22.80    5.20
  -5 -13   9   19.00    8.90
   5  13  -9   16.50    6.60
   4 -13  -9   10.40    4.80
  -4 -13   9    8.00    5.30
   4  13  -9   16.00    4.80
   3 -13  -9   15.60    4.50
  -3 -13   9   15.50    6.70
   3  13  -9   13.40    5.40
  -2 -13   9    7.10    4.30
  -2  13   9   18.30    5.10
   1 -13  -9   75.09    9.60
   1  13  -9   83.69    8.40
  -1  13   9   87.59    9.00
   0 -13  -9  385.26   21.40
   0  13   9  420.86   20.50
   0  13  -9  411.56   17.80
  -1 -13  -9  253.67   17.90
   1  13   9  256.37   16.50
  -1  13  -9  224.28   12.50
  -2 -13  -9    4.50    5.40
   2  13   9   17.60    5.90
  -2  13  -9    4.40    3.40
  -3 -13  -9   -2.20    4.70
   3  13   9    7.20    4.90
  -3  13  -9    2.10    3.40
  -4 -13  -9   96.19   14.60
   4  13   9   77.69   12.00
  -5 -13  -9    4.20    7.90
  -6 -13  -9    4.40    8.60
  -7 -13  -9   51.69   15.10
   7  13   9   47.50   10.70
  -8 -13  -9    1.50   11.50
   8  13   9    7.60   17.70
  -9 -14   9   -2.60    9.60
   9  14  -9    4.30    7.60
  -8 -14   9   59.09   12.60
   8  14  -9   44.80   10.70
  -7 -14   9    6.90    6.70
   7  14  -9   -3.10    5.40
  -6 -14   9    9.40    7.20
   6  14  -9   13.50    6.20
   5 -14  -9   61.39    7.90
  -5 -14   9   58.39   10.90
   5  14  -9   59.49   10.10
  -4 -14   9  107.49   12.90
   4 -14  -9  110.89    9.80
   4  14  -9  110.39   11.80
  -3 -14   9    6.50    5.20
   3 -14  -9   -1.90    4.20
   3  14  -9    0.10    4.10
   2 -14  -9   71.09    9.60
  -2 -14   9   83.69   10.10
  -2  14   9   91.79    9.50
   1 -14  -9  168.78   13.60
   1  14  -9  139.79   10.60
  -1  14   9  160.38   12.00
   0 -14  -9    3.90    4.10
   0  14   9   -0.10    4.00
  -1 -14  -9  226.68   17.40
  -1  14  -9  241.98   12.80
   1  14   9  236.48   16.40
  -2 -14  -9   23.70    7.10
  -2  14  -9   20.10    4.70
   2  14   9   13.80    6.60
  -3 -14  -9   46.20   10.40
   3  14   9   29.40    8.30
  -4 -14  -9   -6.90    6.30
   4  14   9    4.10    6.20
  -5 -14  -9   20.00    9.60
   5  14   9   14.00    8.50
  -6 -14  -9   57.69   11.80
   6  14   9   26.90   10.10
  -7 -14  -9    4.00   10.70
   7  14   9    6.30   10.30
   9  15  -9   16.70    9.80
  -8 -15   9    1.20    8.00
   8  15  -9   -2.80    7.40
  -7 -15   9    5.90    7.50
   7  15  -9    9.00    7.10
   6 -15  -9   12.40    5.40
  -6 -15   9   13.40    7.20
   6  15  -9   17.70    7.30
  -5 -15   9   -5.10    6.30
   5  15  -9   -5.80    4.50
   4 -15  -9   79.99    9.30
  -4 -15   9   85.99   12.40
   4  15  -9   74.39   10.80
   3 -15  -9  129.69   13.40
  -3 -15   9  140.39   13.70
   3  15  -9  138.29   13.20
   2 -15  -9   15.40    6.10
  -2 -15   9   -3.90    4.40
  -2  15   9   10.50    4.70
   1 -15  -9    4.50    4.80
  -1  15   9    5.80    4.60
   1  15  -9    6.90    4.40
   0 -15  -9  278.67   18.80
   0  15  -9  288.77   15.10
   0  15   9  294.57   18.20
  -1 -15  -9    7.50    6.10
   1  15   9    0.00    4.50
  -1  15  -9   -0.70    3.10
  -2 -15  -9    0.70    5.50
   2  15   9   -4.60    4.60
  -2  15  -9    7.20    4.10
  -3 -15  -9   28.50    9.10
  -3  15  -9   25.00    4.80
   3  15   9   19.10    8.70
  -4 -15  -9   14.30    8.10
   4  15   9    1.50    6.00
  -5 -15  -9    1.20    8.10
   5  15   9   -4.70    6.80
  -6 -15  -9   58.69   15.70
   6  15   9   70.89   14.70
  -7 -15  -9    4.40   12.80
   7  15   9   10.10   11.40
  -8 -16   9   77.79   15.10
   8  16  -9  101.19   17.30
  -7 -16   9    5.30    7.90
   7  16  -9   11.30    7.70
  -6 -16   9    1.20    6.80
   6  16  -9    3.90    6.60
  -5 -16   9    6.70    7.70
   5 -16  -9    6.30    6.00
   5  16  -9    9.50    7.10
  -4 -16   9    1.30    6.20
   4  16  -9   -2.50    4.80
   3 -16  -9    0.90    4.90
  -3 -16   9   -0.40    5.20
  -3  16   9   -3.60    5.10
   3  16  -9   -2.80    4.70
   2 -16  -9  109.29   12.00
  -2 -16   9  104.29   12.20
  -2  16   9  118.49   12.20
   1 -16  -9  308.77   20.20
  -1  16   9  348.17   20.50
   1  16  -9  359.36   17.90
   0 -16  -9    0.40    5.50
   0  16   9    2.40    4.80
   0  16  -9    2.40    3.60
  -1 -16  -9    7.60    6.90
   1  16   9   10.60    6.60
  -1  16  -9   19.00    5.10
  -2 -16  -9   -3.00    5.50
  -2  16  -9    1.40    3.90
   2  16   9    3.20    6.20
  -3 -16  -9   50.89   10.70
  -3  16  -9   54.29    7.60
  -4 -16  -9   39.80   10.90
  -5 -16  -9   64.99   14.00
   5  16   9   60.59   14.00
  -6 -16  -9   22.30   11.70
   6  16   9    8.00    9.40
   8  17  -9  -22.10    9.20
  -7 -17   9    5.50    8.60
   7  17  -9    5.90    7.10
  -6 -17   9  112.99   17.10
   6  17  -9  117.49   15.50
  -5 -17   9   -7.80    6.00
   5 -17  -9    3.10    6.10
   5  17  -9   -4.10    6.10
  -4 -17   9  129.09   14.60
   4  17  -9  153.68   25.00
  -3 -17   9   80.79   12.90
   3  17  -9   68.59   11.50
  -3  17   9   87.39   11.30
   2 -17  -9  140.19   13.20
  -2 -17   9  142.89   14.20
  -2  17   9  127.49   12.80
   1 -17  -9   19.50    7.80
   1  17  -9   46.90    7.90
  -1  17   9   28.60    9.30
   0 -17  -9   16.80    7.60
   0  17  -9   36.20    6.80
   0  17   9   51.19   10.40
  -1 -17  -9   -1.00    6.70
   1  17   9   -2.00    5.90
  -1  17  -9    5.60    4.30
  -2 -17  -9   -9.30   14.30
  -2  17  -9    5.60    4.40
   2  17   9   19.20   12.00
  -3 -17  -9   17.10    8.30
  -4 -17  -9  153.58   19.60
   4  17   9  214.78   20.50
  -5 -17  -9    3.60   11.80
   5  17   9    5.70    8.80
  -6 -17  -9    5.00   13.40
   6  17   9   -7.90   10.40
  -7 -18   9   12.10   10.90
   7  18  -9   -1.10    8.10
  -6 -18   9   12.40    9.40
   6  18  -9    6.20    7.50
  -5 -18   9   73.09   14.50
   5  18  -9   55.79   11.60
  -4 -18   9  100.39   14.40
   4 -18  -9  123.69   12.40
   4  18  -9  130.79   15.30
  -3 -18   9   -1.80    6.50
  -3  18   9    3.20    5.20
   3  18  -9   10.30    6.60
  -2 -18   9   22.90    7.50
   2 -18  -9   23.90    8.70
  -2  18   9   31.90    8.60
   1 -18  -9   73.79   12.60
  -1  18   9   66.19   12.20
   1  18  -9   78.89   10.00
   0 -18  -9   15.60    8.40
   0  18  -9   19.00    5.50
   0  18   9    3.10    6.90
  -1 -18  -9    2.40    7.60
   1  18   9  -12.00    6.30
  -2 -18  -9  101.89   15.70
  -3 -18  -9    2.90    8.50
   3  18   9   -6.10    8.40
  -4 -18  -9   12.90   10.70
   4  18   9   20.80   10.10
  -5 -18  -9   41.00   13.50
   5  18   9   45.60   13.30
  -6 -19   9  155.28   19.80
   6  19  -9  113.69   17.80
  -5 -19   9   32.40   10.40
   5  19  -9   26.40    9.90
  -4 -19   9   -4.60    7.70
   4  19  -9    2.10    7.40
  -3  19   9   65.09   14.70
   3  19  -9   56.39   11.70
  -2 -19   9   15.80    7.80
  -2  19   9    5.40    8.80
   1 -19  -9    0.30    6.60
  -1  19   9   10.10    7.40
   1  19  -9    9.50    4.90
   0 -19  -9  140.09   16.40
   0  19  -9  136.69   11.90
   0  19   9  131.59   15.90
  -1 -19  -9    8.80    8.50
  -1  19  -9    5.30    6.40
   1  19   9   16.60    8.30
  -2 -19  -9    7.90    9.50
   2  19   9   12.10    8.10
  -3 -19  -9   10.50   11.20
   3  19   9   42.50   12.20
  -4 -19  -9    7.50   10.80
   4  19   9    4.30    9.70
  -5 -20   9   97.29   18.90
   5  20  -9   88.89   15.90
  -4 -20   9  -17.10    8.00
  -4  20   9   12.00    8.40
   4  20  -9  -13.60    7.70
  -3 -20   9    8.30    8.80
   3  20  -9   -4.00    7.30
  -3  20   9   -2.00    7.20
   2 -20  -9   10.90    8.60
   2  20  -9   21.70    9.30
  -2  20   9    6.60    8.00
  -1  20   9    8.30    9.10
   0  20   9    3.70    8.00
   0  20  -9   13.90    6.40
  -1 -20  -9    3.40    9.30
   1  20   9    8.00    8.20
  -2 -20  -9   64.59   13.50
   2  20   9   90.49   17.60
  -3 -20  -9    1.70   12.00
   3  20   9    9.40    9.30
  -4 -21   9    8.60   10.20
  -4  21   9   -5.20    8.50
   4  21  -9  -16.10    8.60
  -3  21   9   -9.20    8.10
   3  21  -9    4.00    8.30
   2 -21  -9    3.20    9.90
  -2  21   9   28.80   10.60
   2  21  -9   10.70    7.90
   1 -21  -9   11.20   17.70
   1  21  -9   35.40    8.00
  -1  21   9   74.09   14.80
   0  21   9   -0.60    8.90
  -1 -21  -9   20.00   11.40
   1  21   9    3.50    9.70
  -2 -21  -9  -16.50   11.30
   2  21   9   13.00   11.50
   2  22  -9    4.10    7.70
  -2  22   9    6.30    9.80
   1 -22  -9   81.19   18.60
  -1  22   9  147.69   20.20
   0  22   9   14.40   10.20
 -12   0  10   37.40   11.80
  12   0 -10   29.90   13.40
 -11   0  10   -4.30    8.50
 -10   0  10   45.70   10.20
  10   0 -10   51.49   10.00
   9   0 -10   -5.00    3.70
  -9   0  10   -1.80    5.20
   8   0 -10  267.57   13.80
  -8   0  10  272.77   18.50
  -7   0  10   -1.40    4.40
   7   0 -10   -0.50    2.30
   6   0 -10 1002.70   32.90
   5   0 -10   -0.40    2.80
   5   0 -10    1.80    1.10
   4   0 -10  167.18   10.80
   3   0 -10   -0.70    2.00
   2   0 -10  230.48   12.30
   1   0 -10   -1.50    0.90
   1   0 -10    1.80    1.60
   0   0 -10 2594.34   65.39
   0   0  10 2639.24   60.59
   1   0  10    0.30    1.70
  -1   0 -10    0.30    1.80
  -2   0 -10   49.10    6.70
   2   0  10   55.89    6.30
   3   0  10   -2.90    2.90
  -4   0 -10   62.69    8.90
   4   0  10   69.69    8.50
  -5   0 -10    3.20    4.90
   5   0  10    0.70    4.00
   6   0  10   73.49   10.60
  -6   0 -10   58.49   10.80
   7   0  10    2.20    6.30
  -7   0 -10   -0.20    5.70
  -8   0 -10  126.19   16.50
   8   0  10  163.18   17.50
   9   0  10    3.90    8.90
  -9   0 -10   -4.60    9.70
 -12  -1  10   21.30   11.60
  12  -1 -10   12.80   10.00
  12   1 -10    5.80   14.50
 -11  -1  10   43.50   11.60
  11  -1 -10   41.60   10.10
 -11   1  10   55.89   11.80
  10  -1 -10    8.40    5.70
 -10  -1  10    2.10    7.20
 -10   1  10    2.10    6.80
  10   1 -10    6.70    6.10
   9  -1 -10   51.49    8.10
   9  -1 -10   63.79    8.80
  -9  -1  10   58.89   11.70
  -9   1  10   79.69   11.50
   9   1 -10   68.89    9.20
   8  -1 -10  105.09    8.90
   8  -1 -10  117.89   10.60
  -8  -1  10  103.99   12.10
   8   1 -10  111.19    9.30
  -8   1  10  121.29   12.70
   7  -1 -10   24.10    4.20
  -7  -1  10   20.10    6.30
   7  -1 -10   13.30    4.70
   7   1 -10   20.80    4.20
   6  -1 -10   71.49    5.80
  -6  -1  10   67.69    8.90
   6  -1 -10   69.59    7.80
  -6   1  10   56.99    4.70
   6   1 -10   65.59    5.20
   5  -1 -10  510.65   20.90
   5   1 -10  597.34   25.70
   5   1 -10  544.55   14.70
   4  -1 -10    8.60    3.10
   4   1 -10   10.20    3.70
   3  -1 -10   20.30    4.60
   3   1 -10   20.10    4.60
   2  -1 -10   11.50    3.90
   2   1 -10    9.40    3.10
   1  -1 -10  326.87   15.20
   1  -1 -10  322.47    9.20
   1   1 -10  341.27   15.50
  -1   1  10  331.37    9.00
   0  -1 -10  132.99    9.60
   0  -1  10  130.09    6.90
   0   1 -10  131.99    9.40
   0   1  10  132.89    6.80
   0   1 -10  138.29    7.50
   1  -1  10  775.92   23.70
  -1  -1 -10  767.12   27.40
  -1   1 -10  770.52   26.80
   1   1  10  771.62   23.70
   2  -1  10  219.48   12.00
  -2  -1 -10  230.78   14.10
   2   1  10  219.78   12.20
  -2   1 -10  202.98   12.80
   3  -1  10   15.70    4.30
  -3  -1 -10   10.10    4.40
  -3   1 -10   11.30    4.50
   3   1  10   13.20    4.20
  -4  -1 -10   59.19    9.10
   4  -1  10   81.39    9.00
  -4   1 -10   59.59    8.50
   4   1  10   57.69    7.90
  -5  -1 -10   23.30    7.00
   5  -1  10   41.30    9.00
  -5   1 -10   15.80    6.00
   5   1  10   16.60    5.70
   6  -1  10   56.89    9.80
  -6  -1 -10   54.59   10.80
   6   1  10   64.59   10.70
  -6   1 -10   57.59   10.90
   7  -1  10   24.50    7.80
  -7  -1 -10   36.30    9.50
  -7   1 -10   27.60    9.20
   7   1  10   29.90    9.20
  -8  -1 -10   30.80   14.50
   8  -1  10   21.80    8.60
   8   1  10   30.20   10.30
  -8   1 -10   44.00   11.30
   9  -1  10    9.90    9.10
  -9  -1 -10    6.00   10.10
   9   1  10   17.90   10.00
 -12  -2  10   -7.60   10.10
  12  -2 -10   10.30   10.50
  11  -2 -10    1.70    6.30
 -11  -2  10    2.50    8.30
  10  -2 -10  128.89   12.30
  10  -2 -10  138.89   13.80
  10   2 -10  161.18   14.00
   9  -2 -10   56.69    9.50
  -9  -2  10   69.19   12.00
   9  -2 -10   45.50    7.80
   8  -2 -10   23.20    5.40
  -8  -2  10   27.70    7.50
   8  -2 -10   18.80    5.60
   8   2 -10   17.00    4.90
   7  -2 -10   31.10    6.20
  -7  -2  10   41.40    9.20
   7  -2 -10   33.40    4.50
   7   2 -10   40.00    5.50
   6  -2 -10    2.90    2.20
  -6  -2  10    1.30    3.70
   6  -2 -10    2.40    3.00
   6   2 -10   -2.60    1.80
  -6   2  10   -2.30    2.20
  -5  -2  10   -0.20    2.30
   5  -2 -10    1.00    2.40
   5   2 -10    1.70    1.70
   5   2 -10    3.50    3.30
   4  -2 -10 1010.60   31.40
   4   2 -10  980.30   31.80
   4   2 -10 1010.50   22.90
   3  -2 -10   93.29    7.70
   3   2 -10   95.49    8.20
   2  -2 -10   39.40    5.10
   2   2 -10   34.50    4.80
   2   2 -10   19.90    1.80
   1  -2 -10    0.00    1.60
  -1   2  10    0.60    1.00
   1   2 -10   -0.20    1.20
   1   2 -10    1.80    2.10
   0  -2  10  616.94   18.70
   0  -2 -10  628.64   23.50
   0   2  10  645.24   19.80
   0   2 -10  628.64   22.70
   0   2 -10  595.04   18.80
   1  -2  10   31.70    4.50
  -1  -2 -10   26.60    5.40
   1   2  10   24.10    4.30
  -1   2 -10   35.70    4.80
  -1   2 -10   25.40    4.80
   2  -2  10  373.86   16.30
  -2  -2 -10  352.56   18.60
  -2   2 -10  360.86   17.20
   2   2  10  343.47   15.90
  -3  -2 -10    2.30    3.90
   3  -2  10    6.60    2.80
   3   2  10    9.90    3.80
  -3   2 -10    3.10    2.90
   4  -2  10   75.09    8.70
  -4  -2 -10   69.69    9.40
   4   2  10   75.79    9.20
  -4   2 -10   76.59    9.20
   5  -2  10   15.80    4.80
  -5  -2 -10   17.60    6.60
   5   2  10   11.70    5.40
  -5   2 -10   13.20    5.20
  -6  -2 -10  173.58   15.80
   6  -2  10  170.98   14.70
   6   2  10  166.58   15.20
  -6   2 -10  172.28   15.10
  -7  -2 -10    2.00    6.60
   7  -2  10   -2.40    5.80
   7   2  10    4.20    7.50
  -7   2 -10    1.40    6.00
   8  -2  10   15.70    8.20
  -8  -2 -10   15.10    9.00
  -8   2 -10   12.50    8.00
   8   2  10   11.20   12.40
   9  -2  10   25.10   10.00
  -9  -2 -10    6.40   10.60
   9   2  10   -7.90    8.20
 -12  -3  10   10.90   11.00
 -11  -3  10   23.90   11.00
  10  -3 -10   -6.60    4.90
 -10  -3  10    2.20    7.20
  10  -3 -10    2.20    5.00
  10   3 -10    0.60    6.20
   9  -3 -10  180.88   13.50
  -9  -3  10  205.78   17.10
   9  -3 -10  177.68   12.20
   9   3 -10  182.08   13.50
   8  -3 -10   40.40    7.50
  -8  -3  10   30.90    8.10
   8  -3 -10   43.20    6.50
   8   3 -10   35.60    6.70
   7  -3 -10    6.80    2.80
  -7  -3  10    0.70    3.60
   7  -3 -10   10.30    3.90
   7   3 -10    6.60    2.90
  -6  -3  10   82.49   10.30
   6   3 -10   82.39    6.30
  -6   3  10   83.99    5.70
  -5  -3  10  256.67   16.20
   5  -3 -10  225.88   13.00
   5   3 -10  250.97   14.10
  -5   3  10  239.28    7.30
  -4  -3  10  235.48   17.40
   4  -3 -10  227.38   12.50
   4   3 -10  245.08    8.70
   4   3 -10  249.08   15.00
   3  -3 -10  380.16   16.50
   3   3 -10  372.56   10.80
   3   3 -10  394.86   17.10
   3   3 -10  372.26   10.70
   2  -3 -10   22.70    4.40
   2   3 -10   17.70    4.30
   2   3 -10   25.20    2.80
   1  -3 -10  154.08   10.60
  -1   3  10  164.68    6.30
   1   3 -10  172.98   10.40
   0  -3 -10    3.20    1.80
   0  -3 -10    1.00    2.30
   0   3 -10   -2.20    1.40
   0   3 -10    2.50    3.20
   0   3  10    1.40    1.90
   1  -3  10  616.34   21.20
  -1  -3 -10  669.03   25.20
  -1   3 -10  678.23   23.90
   1   3  10  643.04   21.40
  -2  -3 -10    3.50    3.40
   2  -3  10    4.50    2.50
  -2   3 -10    1.30    2.90
   2   3  10    2.70    2.40
  -3  -3 -10   36.00    7.50
   3  -3  10   37.40    6.10
   3   3  10   40.40    6.60
  -3   3 -10   29.40    5.80
   4  -3  10   62.49    8.70
  -4  -3 -10   54.29    9.00
   4   3  10   60.89    8.40
   5  -3  10   18.00    5.70
  -5  -3 -10   22.20    7.40
   5   3  10   23.50    6.70
  -5   3 -10   23.30    6.00
   6  -3  10    1.80    4.30
  -6  -3 -10    4.10    6.00
   6   3  10   -0.70    5.10
  -6   3 -10    2.40    5.20
  -7  -3 -10  182.18   18.40
   7  -3  10  180.18   18.90
  -7   3 -10  207.68   17.00
   7   3  10  191.08   18.60
   8  -3  10   -6.00    6.30
  -8  -3 -10    5.40    8.30
  -8   3 -10   -6.10    7.40
   9  -3  10   46.10   12.20
  -9  -3 -10   22.60   12.00
   9   3  10    8.60    9.80
 -12  -4  10  -17.50   10.10
  12  -4 -10   -7.00    9.20
  12   4 -10  -10.60   15.50
 -11  -4  10   -2.50    8.80
  10  -4 -10   72.59   10.70
 -10  -4  10   59.79   13.20
  10  -4 -10   54.99   10.00
  10   4 -10   51.39    9.40
   9  -4 -10   13.30    5.60
  -9  -4  10   20.50    7.10
   9  -4 -10   17.50    5.30
   9   4 -10   16.40    6.60
   8  -4 -10   33.60    6.60
  -8  -4  10   24.60    7.20
   8  -4 -10   46.30    6.40
   8   4 -10   31.80    6.50
  -7  -4  10    0.70    4.20
   7  -4 -10   -2.30    2.60
   7   4 -10    1.10    3.10
   6  -4 -10   55.79    6.90
  -6  -4  10   61.59    8.70
  -6   4  10   53.09    5.10
   6   4 -10   56.39    6.00
   5  -4 -10   23.20    4.80
  -5  -4  10   20.10    6.30
  -5   4  10   23.00    2.90
   5   4 -10   25.10    3.80
   4  -4 -10  199.98   11.80
  -4  -4  10  182.98   13.30
   3  -4 -10  267.57   13.60
   3   4 -10  262.97    9.40
   3   4 -10  260.97    9.30
   3   4 -10  253.97   13.60
   2  -4 -10  208.88   12.00
  -2   4  10  203.88    5.60
   2   4 -10  201.78    8.40
  -2   4  10  201.78    5.50
   2   4 -10  205.68   11.90
   1  -4 -10  276.47   14.40
  -1   4  10  285.37    9.80
   1   4 -10  273.07   13.60
   1   4 -10  269.87   11.00
   0  -4 -10  516.15   21.00
   0   4 -10  451.05   18.60
   0   4  10  473.95   16.00
   1  -4  10  108.19    7.90
  -1  -4 -10  111.89    9.80
   1   4  10  101.59    7.70
  -1   4 -10  114.59    8.90
  -2  -4 -10   35.80    6.80
   2  -4  10   26.50    5.50
  -2   4 -10   21.60    5.10
   2   4  10   30.80    5.50
   3  -4  10   20.80    4.80
  -3  -4 -10   31.10    7.20
  -3   4 -10   37.30    6.10
   3   4  10   37.10    6.70
  -4  -4 -10   19.40    5.90
   4  -4  10   25.00    7.00
  -4   4 -10    9.00    4.60
   4   4  10   22.90    6.50
  -5  -4 -10   40.80    9.40
   5  -4  10   45.60    8.90
   5   4  10   54.09    9.00
  -5   4 -10   47.10    8.40
  -6  -4 -10   99.19   13.50
   6  -4  10   85.69   12.10
   6   4  10   73.99   11.70
  -6   4 -10   81.89   11.70
  -7  -4 -10    7.40    7.60
   7  -4  10   -9.30   14.60
  -7   4 -10    3.80    6.70
   7   4  10   -2.80    8.00
   8  -4  10    1.10    7.80
  -8  -4 -10    2.00    9.10
  -8   4 -10   -1.10    6.60
  -9  -4 -10    9.80   10.50
   9  -4  10    5.20    9.80
   9   4  10   25.60   11.60
  -9   4 -10    6.00   15.10
 -11  -5  10  114.79   17.60
  10  -5 -10    3.80    5.60
  10  -5 -10    4.80    5.60
 -10  -5  10   -0.60    7.00
  -9  -5  10   -1.40    6.30
   9  -5 -10    4.20    5.00
   9   5 -10    2.10    5.40
   8  -5 -10   -0.60    3.70
  -8  -5  10    8.20    5.40
   8   5 -10   11.00    4.80
   7  -5 -10    8.60    3.50
  -7  -5  10    8.40    4.70
   7   5 -10   -1.90    3.30
  -6  -5  10   17.30    6.10
   6  -5 -10   38.70    5.70
   6   5 -10   29.20    5.10
  -6   5  10   25.10    7.20
  -5  -5  10  598.54   25.90
   5  -5 -10  516.95   20.30
  -5   5  10  509.15   15.30
   5   5 -10  520.75   18.20
   4  -5 -10  190.88   11.00
  -4  -5  10  170.08   13.20
  -4   5  10  175.58    6.40
   4   5 -10  179.28    8.90
   3  -5 -10  610.84   22.60
   3   5 -10  599.94   18.30
   3   5 -10  628.94   18.50
  -3   5  10  629.84   15.00
   3   5 -10  652.13   23.80
   2  -5 -10   37.40    5.60
  -2   5  10   42.50    3.30
   2   5 -10   46.50    4.50
  -2   5  10   43.70    3.10
   2   5 -10   39.40    5.70
   1  -5 -10  896.01   30.60
   1   5 -10  967.20   30.20
  -1   5  10  964.20   24.90
   0  -5 -10   12.60    4.40
   0   5 -10   13.60    3.80
   0   5  10   11.00    2.90
   0   5 -10   11.90    5.10
  -1  -5 -10   10.60    6.30
  -1   5 -10   18.50    4.30
   1   5  10   18.60    4.00
  -2  -5 -10   40.70    7.30
   2  -5  10   44.70    6.20
  -2   5 -10   29.90    5.60
   2   5  10   44.40    6.70
  -3  -5 -10  397.06   21.30
   3  -5  10  390.86   20.40
   3   5  10  369.66   19.00
  -3   5 -10  395.66   18.40
   4  -5  10    0.50    3.90
  -4  -5 -10   -1.70    4.00
   4   5  10    1.40    3.70
  -4   5 -10    1.90    3.60
   5  -5  10  617.44   28.00
  -5  -5 -10  568.64   29.40
  -5   5 -10  606.94   25.80
   5   5  10  592.84   28.10
   6  -5  10   18.80    7.10
  -6  -5 -10   26.40    8.70
  -6   5 -10    8.20    5.60
   6   5  10   13.40    6.80
   7  -5  10   42.20    9.70
  -7  -5 -10   28.70    9.20
   7   5  10   23.40   10.30
  -7   5 -10   32.00    9.00
  -8  -5 -10   -0.30    8.30
   8  -5  10    7.10    8.60
  -9  -5 -10    8.00   12.30
   9  -5  10    0.90   10.30
  -9   5 -10   -3.00    9.60
   9   5  10   -8.80    8.80
  11  -6 -10   19.80    8.10
 -11  -6  10   18.70   11.20
 -10  -6  10  121.69   16.60
  -9  -6  10   68.39   13.00
   9  -6 -10   71.59    8.90
   9   6 -10   64.39   10.30
   8  -6 -10   27.70    5.90
  -8  -6  10   31.20    8.30
   8   6 -10   39.20    8.00
  -7  -6  10   17.80    6.00
   7   6 -10   19.70    5.30
  -7   6  10   22.60    6.00
   6  -6 -10  141.39   10.10
  -6  -6  10  167.38   14.70
   6   6 -10  143.89    9.70
  -5  -6  10   71.99    9.20
   5  -6 -10   65.59    7.10
  -5   6  10   58.19    5.50
   5   6 -10   72.29    6.60
  -4  -6  10  158.28   12.90
   4  -6 -10  141.59    9.90
   4   6 -10  149.19    8.40
  -4   6  10  137.49    6.60
  -3  -6  10   28.60    9.20
   3  -6 -10   27.10    5.00
  -3   6  10   27.90    3.10
   3   6 -10   20.90    6.50
   3   6 -10   31.90    4.20
  -3   6  10   25.20    3.00
   2  -6 -10  351.06   16.40
  -2   6  10  334.77   11.30
   2   6 -10  299.47   15.10
   2   6 -10  311.37   14.00
   1  -6 -10   81.39    8.10
   1   6 -10   91.89    7.90
  -1   6  10   83.09    5.80
   0  -6 -10  400.86   18.90
   0   6 -10  399.46   17.00
   0   6  10  367.16   14.80
  -1  -6 -10   50.89    7.40
   1   6  10   66.89    6.70
  -1   6 -10   57.09    6.30
  -2  -6 -10    8.90    3.80
   2  -6  10   22.20    5.40
   2   6  10   43.50    6.90
  -2   6 -10   31.00    5.50
  -3  -6 -10   74.89   10.10
   3  -6  10   95.09    9.20
   3   6  10   70.19    9.00
  -3   6 -10   86.59    8.80
  -4  -6 -10    6.10    4.70
   4  -6  10   14.70    5.90
  -4   6 -10   15.20    5.40
   4   6  10   11.50    5.00
  -5  -6 -10   35.00    9.80
   5  -6  10   47.10    9.50
  -5   6 -10   28.70    8.40
   5   6  10   35.60    8.50
   6  -6  10  146.39   14.60
  -6  -6 -10  179.18   17.60
   6   6  10  144.29   15.50
  -6   6 -10  190.18   14.80
  -7  -6 -10   29.80   10.50
   7  -6  10   13.80    7.60
   7   6  10   20.10    8.30
  -7   6 -10   16.50    7.70
  -8  -6 -10    7.80    9.30
   8  -6  10   23.50   10.90
  -8   6 -10   23.00    8.80
   9  -6  10    2.90    9.40
  -9  -6 -10   18.20   12.30
   9   6  10   -7.60    9.40
  11  -7 -10   -4.30    7.20
 -11  -7  10    5.30    8.90
 -10  -7  10    1.00    7.20
  10   7 -10   -3.70    6.20
   9  -7 -10   11.70    5.30
  -9  -7  10    1.90    7.00
   9   7 -10   27.00    8.10
  -8  -7  10   23.90    6.70
   8  -7 -10    9.20    4.20
   8   7 -10    6.40    5.60
   7  -7 -10   38.30    6.80
  -7  -7  10   46.40   10.40
   7   7 -10   68.39    8.70
   6  -7 -10    1.20    2.90
  -6  -7  10   -2.30    3.70
   6   7 -10    3.70    3.20
  -5  -7  10  129.69   12.40
   5  -7 -10  154.48   10.10
  -5   7  10  142.79    8.40
   5   7 -10  138.39    9.40
   4  -7 -10  128.09    9.60
  -4  -7  10  163.38   13.10
   4   7 -10  134.39    8.80
  -4   7  10  129.49    7.40
   3  -7 -10    6.90    2.80
  -3  -7  10    2.30    3.20
  -3   7  10    3.60    2.60
   3   7 -10   -0.20    2.00
   2  -7 -10  121.79    9.50
   2   7 -10  101.19    8.70
  -2   7  10  124.29    6.90
   1  -7 -10   67.19    7.60
  -1   7  10   64.89    5.80
   1   7 -10   76.39    7.50
   0  -7 -10   29.30    8.70
   0   7 -10   18.50    4.80
   0   7  10   15.70    4.00
  -1  -7 -10  232.18   15.60
   1   7  10  277.97   13.90
  -1   7 -10  267.27   13.70
  -2  -7 -10    0.70    3.70
   2   7  10    9.00    3.50
  -2   7 -10    6.80    3.50
   3  -7  10    0.80    3.70
  -3  -7 -10    6.30    5.00
  -3   7 -10    7.90    3.70
   3   7  10   11.20    4.30
   4  -7  10   58.09    8.80
  -4  -7 -10   56.49   10.50
   4   7  10   73.19    9.90
  -4   7 -10   64.59    8.40
   5  -7  10   90.89   10.80
  -5  -7 -10   83.09   11.90
  -5   7 -10   77.89   10.10
   5   7  10   83.19   11.10
   6  -7  10   20.40    7.30
  -6  -7 -10   10.20    6.70
   6   7  10   12.60    6.20
  -6   7 -10    0.40    5.80
  -7  -7 -10  138.49   18.10
   7  -7  10  167.78   17.30
  -7   7 -10  145.79   14.20
   7   7  10  156.58   18.00
   8  -7  10   -5.60    8.70
  -8  -7 -10    0.70   10.20
  -8   7 -10    5.60    7.90
   8   7  10   14.40    9.50
  -9  -7 -10   18.20   14.90
   9  -7  10   -1.20   12.00
   9   7  10   -0.50   10.60
 -11  -8  10   15.90   12.20
 -10  -8  10   60.89   12.80
  -9  -8  10   45.30   10.80
   9   8 -10   76.79   12.00
  -8  -8  10    0.40    5.70
   8   8 -10   -0.90    4.30
  -7  -8  10  208.08   17.70
   7  -8 -10  208.08   12.50
   7   8 -10  212.78   16.50
   6  -8 -10   15.60    4.60
  -6  -8  10   15.90    5.80
   6   8 -10   21.70    5.00
  -5  -8  10  208.98   16.10
   5  -8 -10  201.78   11.90
   5   8 -10  187.88   11.40
  -4  -8  10  388.16   20.90
   4  -8 -10  375.26   17.00
   4   8 -10  353.96   15.70
  -4   8  10  367.46   14.10
  -3  -8  10  252.27   15.90
   3  -8 -10  209.58   12.60
  -3   8  10  233.78   10.30
  -3   8  10  232.18   10.20
   3   8 -10  232.18   11.90
   2  -8 -10   76.79    8.10
  -2   8  10   70.49    5.90
   2   8 -10   58.29   11.00
   1  -8 -10   50.39    6.90
   1   8 -10   43.10    6.00
  -1   8  10   45.70    5.20
   0  -8 -10   75.69    8.90
   0   8 -10   96.99    8.10
   0   8  10   65.99    6.80
  -1  -8 -10   18.90    5.90
   1   8  10   13.70    3.90
  -1   8 -10   17.90    4.50
  -2  -8 -10  408.06   22.20
  -2   8 -10  384.96   17.30
   2   8  10  389.16   18.90
  -3  -8 -10    7.30    5.70
  -3   8 -10    9.00    3.80
   3   8  10    5.40    4.10
  -4  -8 -10   40.10   10.00
   4  -8  10   44.30    8.80
  -4   8 -10   38.80    7.30
   4   8  10   22.50    6.80
   5  -8  10   17.20    6.40
  -5  -8 -10   -2.80    5.60
  -5   8 -10    1.70    4.80
   5   8  10    5.60    5.20
   6  -8  10  227.78   18.90
  -6  -8 -10  261.67   21.90
   6   8  10  216.38   18.60
  -6   8 -10  242.38   15.50
   7  -8  10   13.80    8.10
  -7  -8 -10   -6.60    7.50
  -7   8 -10   -3.40    7.00
   8  -8  10   -0.20    6.80
  -8  -8 -10   -0.10   10.90
   8   8  10   -8.00    7.80
   9  -8  10    1.80    9.90
   9   8  10   -7.20   22.60
 -10  -9  10    8.40    9.50
  -9  -9  10  144.39   17.70
   9   9 -10  147.99   14.10
  -8  -9  10   -7.80    5.70
   8   9 -10   -4.40    4.50
   7  -9 -10   11.00    4.30
  -7  -9  10    7.60    5.90
   7   9 -10    5.80    4.80
   6  -9 -10   24.70    4.80
  -6  -9  10   30.00    9.00
   6   9 -10   18.40    5.30
  -5  -9  10  160.38   14.40
   5  -9 -10  169.58   11.10
   5   9 -10  160.18   11.00
  -4  -9  10  254.57   17.20
   4  -9 -10  253.97   13.60
   4   9 -10  251.47   13.70
   3  -9 -10  374.16   17.80
  -3  -9  10  371.56   20.30
  -3   9  10  373.66   14.30
   3   9 -10  385.26   16.70
  -3   9  10  373.16   14.80
   2  -9 -10  287.97   15.60
   2   9 -10  317.07   15.90
  -2   9  10  316.67   13.40
   1  -9 -10   20.30    5.90
   1   9 -10   19.30    4.40
  -1   9  10   23.70    4.70
   0  -9 -10   82.69    9.30
   0   9  10   66.89    7.20
   0   9 -10   76.59    7.70
  -1  -9 -10  150.48   12.90
  -1   9 -10  154.98   10.60
   1   9  10  143.19   10.90
  -2  -9 -10    0.60    4.00
  -2   9 -10    6.30    3.40
   2   9  10    6.30    4.30
  -3  -9 -10   85.19   11.70
  -3   9 -10   69.09    7.70
   3   9  10   63.99    9.30
  -4  -9 -10  296.97   21.40
  -4   9 -10  316.87   16.40
   4   9  10  328.07   20.20
   5  -9  10  227.18   18.10
  -5  -9 -10  218.18   19.30
   5   9  10  215.38   17.50
  -5   9 -10  211.18   14.00
   6  -9  10   26.00    8.60
  -6  -9 -10   24.50    9.30
  -6   9 -10   14.80    6.40
   7  -9  10   63.09   12.90
  -7  -9 -10   51.69   13.00
  -7   9 -10   30.60    7.90
  -8  -9 -10   13.00   11.00
   8  -9  10    3.00    7.40
   8   9  10    0.70    8.80
 -11 -10  10   48.40   13.80
 -10 -10  10    7.80    8.40
   9 -10 -10   -2.10    5.60
  -9 -10  10    1.80    6.60
   9  10 -10  -10.50    6.00
  -8 -10  10   52.49   11.30
   8  10 -10   68.39   11.10
   7 -10 -10   24.50    5.40
  -7 -10  10   15.80    7.70
   7  10 -10   18.20    6.40
  -6 -10  10  240.58   18.90
   6 -10 -10  268.77   14.00
   6  10 -10  225.48   14.90
   5 -10 -10   29.30    5.70
  -5 -10  10   27.60    7.40
   5  10 -10   35.60    6.90
  -4 -10  10   55.99    9.10
   4 -10 -10   43.80    6.80
   4  10 -10   44.90    6.90
   3 -10 -10   81.79    8.70
  -3 -10  10   82.79   10.00
  -3  10  10   89.19    7.20
   3  10 -10  109.09    9.10
  -3  10  10  102.19    9.70
   2 -10 -10    3.10    4.70
   2  10 -10    3.20    3.10
  -2  10  10    6.10    3.30
   1 -10 -10  119.39   10.80
   1  10 -10  101.89   10.20
  -1  10  10  128.89    9.30
   0 -10 -10  277.57   17.40
   0  10 -10  293.97   14.80
   0  10  10  274.97   14.80
  -1 -10 -10   16.00    5.60
   1  10  10   17.80    5.10
  -1  10 -10   13.60    4.10
  -2 -10 -10  239.48   17.60
   2  10  10  215.18   14.70
  -2  10 -10  252.27   13.60
  -3 -10 -10   25.80    8.40
   3  10  10   37.00    8.40
  -3  10 -10   10.40    4.40
  -4 -10 -10   31.00    8.90
   4  10  10   -0.90    4.50
  -4  10 -10    6.60    4.00
   5  10  10   17.70    7.70
  -5  10 -10   10.00    5.20
  -6 -10 -10   20.40    9.10
   6 -10  10   11.20    6.90
  -6  10 -10   37.90    6.90
   6  10  10   47.80   12.40
  -7 -10 -10    2.60    8.10
   7 -10  10    4.70    8.70
   7  10  10   15.50    9.90
   8 -10  10   -2.50    9.90
  -8 -10 -10   -6.00   11.80
   8  10  10   -0.40    8.80
 -10 -11  10   33.80   11.50
  -9 -11  10  157.18   18.30
  -8 -11  10   48.00   11.10
   8  11 -10   60.59   10.70
  -7 -11  10   -0.80    9.50
   7 -11 -10    2.50    4.40
   7  11 -10    0.90    4.70
  -6 -11  10  126.69   14.70
   6 -11 -10  147.19   10.50
   6  11 -10  134.89   12.30
  -5 -11  10  239.48   18.00
   5 -11 -10  257.07   14.20
   5  11 -10  271.87   15.90
  -4 -11  10    4.30    4.80
   4 -11 -10   -2.00    3.20
   4  11 -10    2.60    3.40
  -3 -11  10    7.20    4.80
   3 -11 -10   22.70    5.40
   3  11 -10    7.40    4.50
  -3  11  10   18.30    4.90
   2 -11 -10   34.40    7.20
  -2 -11  10   34.90    6.90
   2  11 -10   37.10    6.10
  -2  11  10   27.00    5.40
   1 -11 -10    7.10    4.70
  -1  11  10    2.20    3.10
   1  11 -10    2.60    3.10
   0 -11 -10   82.29   10.00
   0  11 -10   72.79    7.90
   0  11  10   80.89    8.80
  -1 -11 -10  201.78   15.60
   1  11  10  220.28   17.20
  -1  11 -10  183.08   11.60
  -2 -11 -10   39.70    8.30
  -2  11 -10   45.10    6.60
   2  11  10   53.79    8.20
  -3 -11 -10    2.20    5.40
  -3  11 -10    4.60    3.80
   3  11  10    5.30    5.00
  -4 -11 -10   10.10    6.80
  -4  11 -10    5.60    4.20
   4  11  10    5.30    5.50
  -5 -11 -10   86.49   14.20
   5  11  10   49.50   10.50
  -5  11 -10   74.29    8.80
  -6 -11 -10   -7.80    6.60
   6  11  10  -10.90    7.40
  -6  11 -10    4.60    5.50
  -7 -11 -10   14.80    9.70
   7  11  10   20.80    9.90
   8  11  10  148.49   22.00
 -10 -12  10   40.80   20.20
  -9 -12  10   11.30    8.50
   8 -12 -10   -1.30    5.10
  -8 -12  10   -6.30    6.40
   8  12 -10    7.80    6.30
   7 -12 -10   26.20    6.10
  -7 -12  10   24.00    8.90
   7  12 -10   38.80    9.20
   6 -12 -10   17.20    5.10
  -6 -12  10   19.10    8.00
   6  12 -10   29.90    7.90
  -5 -12  10   -4.30    4.60
   5 -12 -10    6.20    4.10
   5  12 -10   13.40    5.20
  -4 -12  10   64.49   10.20
   4 -12 -10   40.70    7.40
   4  12 -10   65.19    8.20
  -3 -12  10  185.28   14.80
   3  12 -10  198.88   13.40
  -3  12  10  184.38   11.80
   2 -12 -10  127.79   11.40
  -2 -12  10  113.09   11.40
  -2  12  10  126.79   10.20
   2  12 -10  118.49   10.20
   1 -12 -10   92.69   10.50
   1  12 -10   95.09    9.10
  -1  12  10   99.99    9.30
   0 -12 -10   53.99    8.90
   0  12 -10   51.39    8.10
  -1 -12 -10    9.60    4.70
  -1  12 -10   23.80    5.60
   1  12  10   17.90    5.80
  -2 -12 -10   63.39   10.60
  -2  12 -10   72.69    7.80
   2  12  10   77.59   10.40
  -3 -12 -10    3.40    5.10
   3  12  10   10.90    5.80
  -3  12 -10    3.10    3.90
  -4 -12 -10   47.90   15.10
  -4  12 -10   32.00    5.90
   4  12  10   35.00    9.10
  -5 -12 -10    9.60    8.20
  -5  12 -10   17.10    5.40
   5  12  10    8.30    9.90
  -6 -12 -10   35.50   11.90
   6  12  10   51.09   12.10
  -7 -12 -10    8.50   11.50
   7  12  10    7.30    9.50
  -8 -12 -10   13.80   11.60
   8  12  10   10.30   19.20
 -10 -13  10   -1.60    9.40
  -9 -13  10  112.99   17.60
  -8 -13  10    4.70    8.50
   8  13 -10   29.30    9.40
   7 -13 -10   15.80    5.30
  -7 -13  10   19.80    8.60
   7  13 -10    4.70    5.60
   6 -13 -10   17.60    5.00
   6  13 -10   26.60    7.00
  -5 -13  10   78.79   11.70
   5 -13 -10   60.69    8.30
   5  13 -10   91.59   10.30
   4 -13 -10   20.50    5.40
  -4 -13  10   20.10    6.10
   4  13 -10   28.00    7.20
  -3 -13  10    7.40    5.00
   3 -13 -10   18.00    5.00
  -3  13  10   13.50    5.10
   3  13 -10   17.00    5.70
   2 -13 -10   49.99    8.40
  -2 -13  10   40.90    8.50
  -2  13  10   35.80    6.60
   1 -13 -10   83.89   10.50
  -1  13  10   82.39    9.30
   1  13 -10   62.79    7.90
   0 -13 -10   54.89   10.00
   0  13  10   62.09    9.00
   0  13 -10   43.80    6.60
  -1 -13 -10  576.14   28.90
   1  13  10  577.24   26.00
  -1  13 -10  550.74   21.80
  -2 -13 -10    2.10    4.90
  -2  13 -10    0.40    4.00
   2  13  10   -0.70    4.10
  -3 -13 -10    0.00    4.50
   3  13  10    5.00    4.80
  -3  13 -10    3.30    3.60
  -4 -13 -10   10.70    7.00
  -4  13 -10   14.60    5.00
   4  13  10   12.50    7.00
  -5 -13 -10   33.10   11.70
   5  13  10   39.00   12.70
  -6 -13 -10    9.30    8.40
   6  13  10    5.70    8.80
  -7 -13 -10   60.29   15.30
   7  13  10   49.40   13.90
  -9 -14  10   -0.80    8.70
  -8 -14  10   91.89   16.50
   8  14 -10   67.69   12.20
  -7 -14  10   74.49   14.20
   7 -14 -10   47.20    8.50
   7  14 -10   64.09   12.40
  -6 -14  10  164.08   17.00
   6  14 -10  145.69   14.60
   5 -14 -10   21.20    8.40
  -5 -14  10    6.50    5.70
   5  14 -10   20.60    5.80
   4 -14 -10   89.49   10.80
  -4 -14  10  104.59   12.70
   4  14 -10   97.29   11.40
  -3 -14  10   -2.80    4.30
   3 -14 -10   -3.70    4.20
  -3  14  10    6.10    4.20
   3  14 -10    4.70    3.90
  -2 -14  10   24.90    6.80
   2 -14 -10   33.00    8.00
  -2  14  10   39.30    7.80
   1 -14 -10  134.49   13.60
  -1  14  10  143.59   12.40
   1  14 -10  112.99   10.20
   0 -14 -10  260.87   18.60
   0  14 -10  246.58   14.10
   0  14  10  223.98   15.70
  -1 -14 -10  108.19   13.10
  -1  14 -10  102.19   12.60
   1  14  10   92.49   11.50
  -2 -14 -10  125.69   14.60
   2  14  10  116.29   12.90
  -2  14 -10  117.69    9.80
  -3  14 -10   65.29    7.60
   3  14  10   60.39   11.60
  -4 -14 -10   40.30   11.40
   4  14  10   20.30   10.90
  -4  14 -10   26.40    5.40
  -5 -14 -10   15.30   10.50
  -6 -14 -10  101.49   18.30
   6  14  10   94.79   18.30
  -7 -14 -10    2.90   12.10
   7  14  10    6.70   12.10
  -9 -15  10   14.10   10.90
   9  15 -10   44.00   12.60
  -8 -15  10   42.00   13.80
   8  15 -10   41.90   10.50
  -7 -15  10   -3.90    7.70
   7  15 -10    6.80    7.40
   6 -15 -10   65.09    9.50
  -6 -15  10   83.59   14.00
   6  15 -10  100.49   13.10
  -5 -15  10   22.30   12.00
   5 -15 -10   24.60    7.10
   5  15 -10    9.40    7.00
  -4 -15  10    5.30    5.20
   4  15 -10    6.80    4.90
   3 -15 -10  167.28   13.50
  -3 -15  10  128.09   13.80
  -3  15  10  157.68   12.70
   3  15 -10  130.39   13.30
   2 -15 -10   44.20    9.10
  -2 -15  10   55.29   10.30
  -2  15  10   48.20    8.90
   1 -15 -10  137.09   13.50
   1  15 -10  115.89   10.60
  -1  15  10  118.89   11.70
   0 -15 -10  109.99   12.60
   0  15 -10  103.59    9.90
   0  15  10  102.79   12.00
  -1 -15 -10   49.30   10.20
   1  15  10   46.50    8.90
  -1  15 -10   62.49    8.20
  -2 -15 -10  123.99   14.80
   2  15  10  131.49   14.10
  -2  15 -10  120.39   10.10
  -3 -15 -10   55.19   12.80
  -3  15 -10   81.69    8.60
   3  15  10   66.69   12.30
  -4 -15 -10   43.00   11.20
  -5 -15 -10   83.39   15.90
   5  15  10   79.29   15.10
  -6 -15 -10    9.00   10.50
  -8 -16  10   -1.20    9.10
   8  16 -10    0.30    9.30
  -7 -16  10    3.00    7.90
   7  16 -10    8.30    7.30
  -6 -16  10    0.00    6.70
   6  16 -10    1.10    6.90
   5 -16 -10   41.70    9.90
  -5 -16  10   46.70   10.70
   5  16 -10   54.49   11.00
  -4 -16  10  135.49   15.60
   4  16 -10  161.38   15.30
   3 -16 -10   69.99   11.00
  -3 -16  10   41.20   10.00
   3  16 -10   53.79   10.00
  -3  16  10   53.59   10.10
   2 -16 -10   -6.00    4.70
  -2 -16  10    4.40    5.60
  -2  16  10    2.20    5.10
   2  16 -10    0.00    3.60
   1 -16 -10    5.80    6.50
   1  16 -10   12.80    5.00
  -1  16  10   14.30    6.80
   0 -16 -10   41.70    9.60
   0  16 -10   48.00    7.80
   0  16  10   52.59    9.60
  -1 -16 -10   -4.00    5.80
  -1  16 -10   -9.70    3.70
   1  16  10   -5.20    5.50
  -2 -16 -10   44.40   11.40
   2  16  10   36.40   10.40
  -2  16 -10   48.50    7.70
  -3 -16 -10  135.49   16.10
   3  16  10  134.39   15.30
  -3  16 -10  100.39   11.10
  -4 -16 -10   30.20   11.80
  -5 -16 -10    8.40   11.10
   5  16  10   -2.60    7.90
  -6 -16 -10   28.70   15.70
   6  16  10   31.50   12.70
  -8 -17  10    3.90   11.10
   8  17 -10    6.10   11.50
  -7 -17  10    2.20    9.00
   7  17 -10   20.70    7.90
  -6 -17  10   65.49   13.50
   6  17 -10   98.09   14.90
  -5 -17  10   56.89   11.60
   5 -17 -10   45.20    8.60
   5  17 -10   38.90   10.50
  -4 -17  10   -1.40    6.00
  -4  17  10   -3.20    5.40
   4  17 -10    5.10    7.10
   3 -17 -10    4.20    6.30
  -3 -17  10   -2.50    6.20
  -3  17  10   12.20    5.90
   3  17 -10    7.90    7.70
  -2 -17  10   54.29   10.70
   2 -17 -10   52.09   10.30
   2  17 -10   67.89    9.50
  -2  17  10   60.49   10.60
   1 -17 -10    5.40    7.00
  -1  17  10   11.60    7.10
   1  17 -10   18.00    5.00
   0 -17 -10    6.70    6.90
   0  17 -10   14.50    5.80
   0  17  10    0.90    5.60
  -1 -17 -10  122.39   15.80
   1  17  10   97.09   13.90
  -1  17 -10  108.99   10.30
  -2 -17 -10    8.10    8.30
   2  17  10   10.70    7.80
  -2  17 -10   10.40    5.30
  -3 -17 -10   -2.00    7.80
   3  17  10   10.30    7.80
  -4 -17 -10  124.49   18.40
   4  17  10   95.69   16.90
  -5 -17 -10    9.40   10.80
   5  17  10   23.40   13.00
  -7 -18  10   72.09   16.70
   7  18 -10   61.59   13.40
  -6 -18  10   -5.20    8.70
   6  18 -10    1.20    8.60
  -5 -18  10   16.30    8.80
   5  18 -10    1.40    6.70
  -4 -18  10   59.09   12.70
   4  18 -10   65.19   12.80
  -4  18  10   43.80    9.00
  -3 -18  10   16.70    7.40
  -3  18  10    7.50    6.50
   3  18 -10    8.20    6.10
  -2  18  10   -2.60    5.70
   2  18 -10    6.20    4.70
   1 -18 -10   25.80    8.90
   1  18 -10   25.70    6.00
  -1  18  10   20.50    8.20
   0 -18 -10  -15.10    6.70
   0  18  10   -2.90    6.70
   0  18 -10   -0.20    5.30
  -1 -18 -10   10.20    8.10
  -1  18 -10    1.50    5.20
   1  18  10    2.00    6.50
  -2 -18 -10  -12.10    7.90
   2  18  10    4.80    7.30
  -3 -18 -10  103.99   18.30
   3  18  10   49.20   12.30
  -4 -18 -10   30.20   12.50
   4  18  10   12.80    9.60
  -6 -19  10   17.00   12.50
   6  19 -10    3.30    9.50
  -5 -19  10   36.50   11.50
   5  19 -10   34.30   11.60
  -4 -19  10   19.00    9.40
   4  19 -10   11.70    7.30
  -4  19  10    5.80    8.00
   3 -19 -10   29.90    9.30
  -3 -19  10   49.80   11.10
   3  19 -10   39.30    9.20
  -3  19  10   35.10    9.90
  -2  19  10   35.40    9.90
   1 -19 -10   24.40    9.60
  -1  19  10    9.30    7.80
   0 -19 -10   -2.00    9.70
   0  19  10   -2.60    7.80
   0  19 -10   11.20    5.50
  -1 -19 -10  137.29   17.50
   1  19  10  114.39   17.10
  -1  19 -10  111.09   17.50
  -2 -19 -10   -3.60    8.50
   2  19  10    4.80    7.90
  -3 -19 -10    7.70   11.10
   3  19  10    9.10    9.60
  -4 -19 -10    9.40   16.20
   4  19  10   -8.80   10.20
  -5 -20  10   31.00   11.90
   5  20 -10   37.10   12.40
  -4 -20  10  126.69   18.00
   4  20 -10  131.89   18.20
   3 -20 -10   50.29   11.30
  -3 -20  10   31.70   10.30
  -3  20  10   44.60   11.40
   3  20 -10   24.30    9.20
   2 -20 -10    7.60    9.10
   2  20 -10   -6.10    6.80
  -2  20  10   -1.70    7.80
  -1  20  10   -2.20    8.20
   0 -20 -10    5.90    9.90
   0  20  10   16.40    8.50
   0  20 -10    6.50    6.20
  -1 -20 -10    4.90   10.80
   1  20  10    1.10    8.90
  -2 -20 -10   55.39   15.10
   2  20  10   67.99   14.20
  -3  21  10    1.60   11.80
   3  21 -10    1.50    9.00
   2 -21 -10   57.19   13.30
  -2  21  10   44.80   12.00
   2  21 -10   24.30    8.90
   2  21 -10   56.69   11.60
   1 -21 -10   23.20   11.00
  -1  21  10    7.20    9.80
   0  21  10  151.78   20.00
  -1 -21 -10   58.39   16.10
   1  21  10  102.09   19.60
  12   0 -11   -3.50    8.70
  11   0 -11   11.60    7.90
 -11   0  11    9.90    9.00
  11   0 -11   13.20    8.20
 -10   0  11  -11.50    6.70
  10   0 -11    7.70    5.60
  10   0 -11    4.90    5.60
   9   0 -11  318.77   16.10
  -9   0  11  353.46   22.50
   9   0 -11  350.76   19.90
   8   0 -11    4.30    3.70
   8   0 -11   -1.90    3.20
  -8   0  11    0.70    5.10
   7   0 -11    2.60    3.30
   7   0 -11    0.00    2.30
   6   0 -11   -0.60    2.70
   6   0 -11    1.10    1.50
   5   0 -11   13.90    4.20
   4   0 -11    2.10    3.20
   3   0 -11  222.08   12.70
   2   0 -11    0.80    2.80
   1   0 -11   64.59    3.50
   1   0 -11   68.89    7.00
   0   0 -11    0.00    2.40
   0   0  11    1.00    1.60
   0   0 -11    1.50    1.80
   1   0  11  450.45   16.40
  -1   0 -11  393.46   20.40
   2   0  11    1.20    2.60
  -2   0 -11    1.90    3.10
   3   0  11  115.89   10.20
  -3   0 -11  111.59   11.00
  -4   0 -11    0.20    4.00
   4   0  11    3.90    3.70
   5   0  11  121.09   12.60
  -5   0 -11  111.99   12.50
   6   0  11    4.90    5.30
  -6   0 -11   -9.30    5.50
  -7   0 -11   78.59   14.20
  -8   0 -11   -8.20    8.40
   9   0  11    8.50   10.60
  -9   0 -11    6.50   10.50
 -12  -1  11    4.80   10.80
 -11  -1  11   40.50   10.60
  11  -1 -11   20.80    8.80
  11  -1 -11   19.10    8.10
  11   1 -11   29.70    8.90
  10  -1 -11    4.00    5.50
 -10  -1  11   29.70    9.50
  10  -1 -11   23.90    7.30
  10   1 -11   21.40    6.60
   9  -1 -11    0.00    3.80
   9  -1 -11   -0.60    4.20
  -9  -1  11    7.80    6.00
   9   1 -11    2.40    4.30
   8  -1 -11  240.98   15.70
  -8  -1  11  237.88   17.30
   8  -1 -11  219.38   11.10
   8   1 -11  217.88   11.70
  -8   1  11  185.78   11.70
   7  -1 -11   11.10    2.80
   7  -1 -11   20.80    5.00
  -7  -1  11    6.20    4.90
  -7   1  11    6.30    3.30
   7   1 -11   14.50    5.30
   7   1 -11    7.60    3.30
   6  -1 -11  271.87   15.30
   6   1 -11  269.57   15.70
   6   1 -11  257.47    9.20
   5  -1 -11   21.50    5.10
   5   1 -11   20.90    5.40
   4   1 -11   17.80    4.40
   3  -1 -11   12.30    3.40
   3   1 -11   12.90    4.20
   2  -1 -11  325.67   15.80
   2   1 -11  308.57   15.20
   1  -1 -11   12.50    3.90
   1   1 -11    6.90    1.90
   1   1 -11    4.40    3.00
   0  -1 -11   12.70    3.90
   0  -1 -11   14.30    2.70
   0  -1  11   12.40    2.70
   0   1 -11    8.60    3.50
   0   1  11   18.20    3.70
   0   1 -11   12.90    2.40
   1  -1  11   23.40    4.30
  -1  -1 -11   29.20    5.50
   1   1  11   26.70    4.30
  -1   1 -11   31.30    5.90
  -2  -1 -11  800.22   30.40
   2  -1  11  854.41   28.00
  -2   1 -11  840.72   30.80
   2   1  11  834.32   27.70
  -3  -1 -11   42.40    7.50
   3  -1  11   39.70    6.70
   3   1  11   42.90    6.90
  -3   1 -11   38.20    7.10
  -4  -1 -11   86.19   10.90
   4  -1  11  105.69   10.80
   4   1  11   84.59    9.90
  -4   1 -11   88.29   10.20
   5  -1  11  142.99   13.60
  -5  -1 -11  177.38   15.20
   5   1  11  184.38   15.40
  -5   1 -11  126.19   13.00
   6  -1  11   16.30    8.20
  -6  -1 -11   38.10   11.20
  -6   1 -11   37.70    9.80
   6   1  11   27.40    7.60
  -7  -1 -11   -1.80    6.80
  -7   1 -11  -11.50    7.30
  -8  -1 -11   31.60   11.00
  -8   1 -11   49.60   20.00
   9  -1  11   14.30   10.40
  -9  -1 -11  -23.40   10.40
  -9   1 -11   -0.90   15.70
   9   1  11   -1.00    9.70
 -12  -2  11   11.70   11.80
 -11  -2  11    6.00    8.40
  11  -2 -11    0.00    6.60
  11  -2 -11   -2.30    6.50
 -10  -2  11    2.10    7.00
  10  -2 -11    4.40    5.50
  10  -2 -11   10.00    5.70
  10   2 -11    2.80    5.30
   9  -2 -11  152.88   10.90
   9  -2 -11  180.88   13.90
  -9  -2  11  137.09   15.90
   9   2 -11  158.18   12.00
   8  -2 -11   13.00    4.70
   8  -2 -11    1.90    3.00
  -8  -2  11   16.90    7.40
   8   2 -11    5.00    3.60
  -8   2  11   -3.00    5.10
   7  -2 -11   10.90    4.30
  -7  -2  11   -0.30    4.40
   7  -2 -11    7.50    2.70
   7   2 -11   10.80    3.50
  -7   2  11    6.20    3.40
  -6  -2  11   26.10    6.50
   6  -2 -11   23.50    5.90
   6   2 -11   25.20    5.60
   5  -2 -11  298.47   15.70
   5   2 -11  308.77    9.00
   5   2 -11  304.47   16.30
   4  -2 -11   28.50    6.10
   4   2 -11   35.50    5.90
   3  -2 -11  191.98   11.90
   2  -2 -11   60.49    7.00
   2   2 -11   64.09    3.20
   2   2 -11   62.69    2.70
   2   2 -11   66.39    7.00
   1  -2 -11  156.68   10.90
   1   2 -11  147.59    6.80
  -1   2  11  146.19    5.30
   1   2 -11  136.39   10.20
   0  -2  11  100.09    6.30
   0  -2 -11   90.99    5.80
   0  -2 -11   91.79    8.60
   0   2 -11   82.29    6.30
   0   2  11   98.99    6.30
   0   2 -11  106.89    9.00
   1  -2  11 1125.39   31.30
  -1  -2 -11 1065.69   31.50
  -1  -2 -11 1093.99   36.20
   1   2  11 1083.79   31.00
  -1   2 -11 1076.79   35.00
   2  -2  11  168.98   10.80
  -2  -2 -11  158.28   12.50
   2   2  11  156.08   10.50
   3  -2  11   30.80    6.60
  -3  -2 -11   22.30    5.80
   3   2  11   26.40    5.50
  -3   2 -11   19.20    5.60
   4  -2  11   12.60    5.40
  -4  -2 -11   26.90    7.90
  -4   2 -11   20.30    6.30
   4   2  11   27.10    6.90
  -5  -2 -11   56.09   10.10
   5  -2  11   51.29    9.50
  -5   2 -11   64.19   10.40
   5   2  11   48.50    9.70
  -6  -2 -11    4.00    5.70
   6  -2  11    5.90    5.30
  -6   2 -11    9.70    6.80
   6   2  11    1.60    5.50
  -7  -2 -11   43.00   11.50
  -7   2 -11   30.80    9.50
  -8  -2 -11   13.80    9.40
  -8   2 -11    8.10    8.90
   9  -2  11   16.20   11.50
  -9  -2 -11   18.80   11.50
   9   2  11   -5.50    9.70
  11  -3 -11    1.80    6.70
 -11  -3  11    6.80    8.50
  10  -3 -11  143.09   13.70
  10  -3 -11  117.99   11.50
 -10  -3  11  114.19   16.70
  10   3 -11  109.09   11.90
  -9  -3  11   17.30    7.60
   9  -3 -11    8.60    4.70
   9  -3 -11    4.00    5.10
   9   3 -11    6.60    4.80
   8  -3 -11  295.47   12.80
  -8  -3  11  287.27   19.90
   8  -3 -11  282.77   16.40
  -8   3  11  252.57   13.60
   8   3 -11  246.88   13.60
  -7  -3  11   49.40    9.20
   7  -3 -11   39.90    7.10
   7   3 -11   57.69    6.00
  -7   3  11   58.29    5.80
   6  -3 -11   20.60    5.60
  -6  -3  11   26.10    7.10
   6   3 -11   17.30    3.00
   5  -3 -11   51.99    6.70
   5   3 -11   76.19    8.40
   5   3 -11   57.69    4.30
   4  -3 -11  590.44   23.10
   4   3 -11  618.54   23.80
   4   3 -11  575.44   14.60
   4   3 -11  597.74   15.10
   3  -3 -11   94.39    8.70
   3   3 -11   99.79    4.20
   3   3 -11  100.19    8.70
   3   3 -11  108.09    4.60
   2  -3 -11  712.43   25.50
   2   3 -11  699.83   18.10
   2   3 -11  675.83   25.00
   1  -3 -11    0.00    2.50
   1   3 -11    0.80    2.40
  -1   3  11    1.10    1.20
   1   3 -11    1.50    1.70
   0  -3 -11    5.40    2.40
   0   3 -11    9.40    3.70
   0   3  11   10.70    2.20
   0   3 -11    5.10    2.30
  -1  -3 -11   62.29    6.30
   1  -3  11   69.69    6.40
  -1  -3 -11   67.39    8.00
   1   3  11   69.49    6.60
  -1   3 -11   77.79    8.10
  -2  -3 -11  258.47   16.40
   2  -3  11  298.57   15.00
  -2   3 -11  355.46   19.40
   2   3  11  285.17   14.50
   3  -3  11   16.50    5.00
  -3  -3 -11   19.60    6.30
   3   3  11   12.50    4.40
  -3   3 -11   14.30    4.70
  -4  -3 -11  178.78   15.20
   4  -3  11  150.68   12.70
   4   3  11  149.69   12.80
  -4   3 -11  160.18   13.30
   5  -3  11    1.30    4.60
  -5  -3 -11    2.20    4.70
  -5   3 -11    2.10    5.10
   5   3  11    3.30    4.40
   6  -3  11  227.88   17.90
  -6  -3 -11  189.58   17.80
  -6   3 -11  182.18   16.50
   6   3  11  234.48   18.20
   7  -3  11   85.59   14.30
  -7  -3 -11   72.89   14.50
  -7   3 -11   77.49   13.60
  -8  -3 -11    7.10    8.80
   8   3  11   -5.20    7.30
  -9  -3 -11   25.40   11.90
   9  -3  11   13.40   11.20
   9   3  11   22.80   11.40
 -11  -4  11   20.00   10.60
 -10  -4  11   45.30   11.70
  10  -4 -11   30.70    8.20
  10  -4 -11   31.00    6.70
  10   4 -11   54.49   10.00
   9  -4 -11  223.58   15.40
  -9  -4  11  244.28   25.30
   9   4 -11  216.78   15.00
   8  -4 -11   53.79    8.50
  -8  -4  11   45.10   10.00
  -8   4  11   34.80    7.40
   8   4 -11   44.20    7.40
  -7  -4  11    2.40    4.60
   7  -4 -11    3.10    3.60
   7   4 -11    3.10    2.90
  -7   4  11    6.10    3.50
   6  -4 -11   13.70    4.80
  -6  -4  11    3.30    3.40
   6   4 -11   13.80    3.40
  -5  -4  11   26.60    6.80
   5  -4 -11   43.10    6.30
   5   4 -11   40.90    4.20
   4  -4 -11  264.67   14.40
   4   4 -11  289.77   10.20
   4   4 -11  290.97    9.80
   4   4 -11  296.77   15.70
   3  -4 -11  810.62   28.10
   3   4 -11  814.92   21.00
   3   4 -11  826.42   21.10
   3   4 -11  817.72   28.50
   2  -4 -11  514.45   21.20
   2   4 -11  506.25   15.60
   2   4 -11  553.04   23.80
   1  -4 -11   75.79    8.10
   1   4 -11   86.69    8.10
  -1   4  11   84.59    4.90
   1   4 -11   83.09    6.00
   0  -4 -11   20.90    5.40
   0   4  11   29.90    4.00
   0   4 -11   26.30    4.70
   0   4 -11   32.60    5.50
  -1  -4 -11  444.56   21.20
   1  -4  11  449.95   17.60
  -1  -4 -11  419.16   15.90
  -1   4 -11  476.95   20.00
   1   4  11  421.16   17.20
  -2  -4 -11   12.20    4.80
   2  -4  11   25.80    5.00
   2   4  11   17.90    4.30
  -2   4 -11   15.60    4.50
  -3  -4 -11  183.88   14.60
  -3   4 -11  195.18   13.50
   3   4  11  218.58   14.20
  -4  -4 -11   64.59   10.60
   4  -4  11   77.69    9.60
   4   4  11   52.09    8.60
  -4   4 -11   67.49    9.40
   5  -4  11   18.30    5.90
  -5  -4 -11   30.60    8.90
   5   4  11   17.70    5.50
  -5   4 -11   23.90    7.20
  -6  -4 -11   61.79   12.90
   6  -4  11   58.29   11.50
  -6   4 -11   38.10    9.90
   6   4  11   69.29   12.10
  -7  -4 -11   90.79   15.90
   7  -4  11  122.09   15.50
  -7   4 -11   86.29   13.50
   7   4  11  123.89   15.80
  -8  -4 -11   31.90   11.60
   8  -4  11   16.20    8.70
   8   4  11   29.50    9.60
   9  -4  11  -18.00    9.30
  -9  -4 -11    4.30   11.50
  -9   4 -11   -1.20   11.30
   9   4  11  -10.30    9.90
 -11  -5  11   18.70    9.90
 -10  -5  11   10.00    8.00
  10  -5 -11   18.90    6.80
  -9  -5  11    3.60    7.30
   9  -5 -11   -0.60    4.60
   9   5 -11   -1.70    4.70
  -8  -5  11   56.79   10.80
   8  -5 -11   88.09    9.10
   8   5 -11   68.99    8.80
  -7  -5  11   12.90    5.40
   7  -5 -11   27.00    5.40
   7   5 -11   21.60    5.00
  -7   5  11   18.90    4.80
  -6  -5  11   39.90    8.70
   6  -5 -11   43.80    6.80
   6   5 -11   43.80    5.50
   5  -5 -11  111.59   12.50
  -5  -5  11  129.99   12.50
   5   5 -11  137.39    8.10
   4  -5 -11  357.56   16.90
   4   5 -11  351.56   12.90
   4   5 -11  399.56   18.40
   3  -5 -11   21.30    4.60
   3   5 -11   26.80    5.70
   3   5 -11   18.50    3.10
   3   5 -11   17.40    3.40
   2  -5 -11   21.00    4.80
   2   5 -11   34.90    6.70
  -2   5  11   22.70    2.30
  -2   5  11   29.00    2.60
   2   5 -11   25.20    3.80
  -1   5  11    0.30    1.90
   1   5 -11    2.50    2.40
   1   5 -11    2.80    2.80
   0  -5 -11   76.69    8.50
   0   5 -11   69.99    7.70
   0   5 -11   56.39    7.30
   0   5  11   71.79    6.00
  -1  -5 -11    3.80    5.20
  -1  -5 -11   16.20    5.30
  -1   5 -11    9.10    3.70
   1   5  11    7.00    3.20
   2  -5  11  355.66   17.30
  -2  -5 -11  393.76   20.90
   2   5  11  364.06   17.50
  -2   5 -11  369.16   17.90
   3  -5  11   33.00    6.60
  -3  -5 -11    9.00    4.90
   3   5  11    4.70    3.40
  -3   5 -11   21.20    8.80
   4  -5  11   17.60    5.70
  -4  -5 -11   16.10    6.40
  -4   5 -11   20.00    5.70
   4   5  11   14.30    5.70
   5  -5  11    4.70    4.50
  -5  -5 -11    6.50    5.50
  -5   5 -11   11.50    5.60
   5   5  11    0.60    4.40
   6  -5  11   35.70    8.20
  -6  -5 -11   41.10    8.90
   6   5  11   31.60    7.70
  -6   5 -11   24.60    8.30
  -7  -5 -11   -1.30    6.80
   7   5  11   -1.30    7.40
  -7   5 -11   18.40    8.50
  -8  -5 -11   81.99   15.90
   8  -5  11  115.99   17.60
   8   5  11   72.69   14.80
   9  -5  11  -17.20   14.10
  -9  -5 -11   21.80   12.80
   9   5  11   -0.30   10.80
  11  -6 -11   10.50    8.40
 -11  -6  11    6.10    9.50
 -10  -6  11    5.80    7.30
  -9  -6  11   41.50   11.10
   9  -6 -11   44.00    8.60
   9   6 -11   50.59    9.50
   8  -6 -11    9.00    5.50
  -8  -6  11   15.40    7.00
   8   6 -11    4.90    5.40
   7  -6 -11  181.18   12.50
  -7  -6  11  144.09   14.70
  -7   6  11  156.88   10.40
   7   6 -11  191.68   12.30
   6  -6 -11   84.59    8.60
  -6  -6  11   97.99   11.50
   6   6 -11   77.79    7.60
  -6   6  11   93.99    6.50
  -5  -6  11   45.40    8.50
   5   6 -11   59.19    5.80
   4  -6 -11  115.59    9.70
  -4  -6  11  130.69   12.00
   4   6 -11  130.19   10.50
   4   6 -11  125.79    7.70
  -4   6  11  121.59    5.00
  -4   6  11  114.39    4.80
   3  -6 -11  296.07   15.70
   3   6 -11  332.87   16.80
  -3   6  11  318.77    9.40
   3   6 -11  326.07   12.50
  -3   6  11  322.57    9.50
   2  -6 -11   42.20   10.40
  -2   6  11   37.30    3.40
   2   6 -11   40.80    6.20
  -2   6  11   34.60    3.60
   1  -6 -11   56.49    6.80
   1   6 -11   36.20    6.80
   1   6 -11   30.40    5.10
  -1   6  11   39.20    4.40
   0  -6 -11  486.55   22.30
   0   6  11  455.75   17.30
   0   6 -11  519.75   20.70
  -1  -6 -11   55.79    8.40
   1   6  11   50.59    6.30
  -1   6 -11   54.69    6.80
   2  -6  11  122.99   10.00
  -2  -6 -11  115.39   11.80
  -2   6 -11  116.89   10.00
   2   6  11  108.19    9.80
   3  -6  11  150.38   12.10
  -3  -6 -11  145.89   13.70
   3   6  11  134.39   11.80
  -4  -6 -11    4.00    4.50
   4  -6  11    7.00    5.20
   4   6  11    5.20    5.10
  -4   6 -11    9.50    4.80
   5  -6  11    8.00    5.20
  -5  -6 -11   -2.40    5.80
  -5   6 -11    2.40    5.40
   5   6  11   -1.10    4.70
   6  -6  11   13.50    8.20
  -6  -6 -11   11.80    8.40
  -6   6 -11   11.40    6.80
   6   6  11   16.20    6.60
  -7  -6 -11   68.09   14.10
  -7   6 -11  125.69   14.40
   7   6  11   84.59   15.40
   8  -6  11    8.80    9.80
  -8  -6 -11    3.00    9.70
  -8   6 -11    6.10    8.70
   8   6  11    2.30    9.20
  -9  -6 -11   35.80   17.50
   9  -6  11   -4.50   11.20
   9   6  11   -1.10   20.80
  11  -7 -11   -3.30    8.80
 -11  -7  11  -12.30    9.00
 -10  -7  11   36.80   11.20
   9  -7 -11    9.00    5.40
  -9  -7  11    2.80    7.10
   9   7 -11    4.10    5.50
  -8  -7  11   23.20   10.00
   8  -7 -11   22.20    5.80
   8   7 -11   24.70    6.70
  -7  -7  11   55.39   10.50
   7  -7 -11   69.89    8.30
   7   7 -11   61.49    7.90
  -7   7  11   50.49    9.10
  -6  -7  11   51.19    9.70
   6  -7 -11   62.29    7.40
   6   7 -11   53.79    7.00
  -6   7  11   59.99    6.70
  -5  -7  11   27.90    6.90
   5   7 -11   21.20    4.70
  -5   7  11   22.10    4.20
   4  -7 -11  365.16   19.90
  -4  -7  11  349.27   19.90
  -4   7  11  363.16   11.40
  -4   7  11  343.37   11.70
   4   7 -11  347.87   14.50
   3  -7 -11  123.79   13.20
  -3   7  11  134.69    6.50
   3   7 -11  141.39    8.40
   3   7 -11  154.78   11.30
   3   7 -11  122.49    8.20
  -3   7  11  128.49    6.40
   2  -7 -11    2.50    2.90
   2   7 -11    3.80    2.90
   2   7 -11   12.20    3.90
  -2   7  11    8.60    2.40
   1  -7 -11  105.39    9.50
   1   7 -11  106.09   10.60
  -1   7  11   91.29    6.80
   0  -7 -11  290.57   17.20
   0   7  11  312.67   14.00
   0   7 -11  314.47   15.60
  -1  -7 -11   12.70    4.90
   1   7  11   16.40    4.30
  -1   7 -11   10.10    3.90
  -2  -7 -11   90.79   11.30
  -2   7 -11   92.19    9.00
   2   7  11  103.59    9.80
  -3  -7 -11   42.90    9.40
   3  -7  11   43.10    7.30
  -3   7 -11   42.90    7.90
   3   7  11   41.40    7.80
  -4  -7 -11  153.98   15.30
   4  -7  11  173.48   14.10
   4   7  11  132.19   12.90
  -4   7 -11  155.58   12.60
   5  -7  11    0.90    5.50
  -5  -7 -11    6.00    5.50
   5   7  11   11.40    6.30
  -5   7 -11    4.20    5.60
  -6  -7 -11  225.28   20.60
  -6   7 -11  247.28   17.30
   6   7  11  258.87   20.20
  -7  -7 -11   -2.60    7.20
  -7   7 -11   -9.50    6.80
   7   7  11    6.40    7.90
  -8  -7 -11   -2.20   11.90
   8  -7  11   21.20   10.50
   8   7  11    2.70    7.90
  -8   7 -11   26.10   10.40
 -11  -8  11   14.10   10.30
  10  -8 -11    9.30    6.70
 -10  -8  11   21.80    9.40
  -9  -8  11   94.59   14.70
   9   8 -11   97.59   12.40
  -8  -8  11   17.30    7.00
   8  -8 -11   24.10    6.20
   8   8 -11   16.80    6.40
  -7  -8  11  274.47   20.30
   7  -8 -11  272.97   15.00
   7   8 -11  268.27   15.80
   6  -8 -11   18.00    5.00
  -6  -8  11   12.70    6.30
  -6   8  11    6.50    4.30
   6   8 -11   14.80    4.90
  -5  -8  11   66.99   10.20
   5   8 -11   59.29    7.10
  -4  -8  11   18.40    5.60
  -4   8  11   23.40    3.90
   4   8 -11   25.30    4.90
   3  -8 -11  521.25   25.60
  -3   8  11  514.35   16.60
   3   8 -11  498.35   18.80
   3   8 -11  517.15   22.10
  -3   8  11  536.95   16.60
   2  -8 -11    2.00    3.30
  -2   8  11    3.40    2.40
   2   8 -11    0.70    2.50
   1  -8 -11   69.39    8.60
  -1   8  11   65.09    6.20
   1   8 -11   78.99    8.00
   0  -8 -11  234.28   15.70
   0   8  11  242.98   12.80
  -1  -8 -11  224.48   16.00
   1   8  11  238.48   13.50
  -1   8 -11  222.18   13.40
  -2  -8 -11    1.20    4.10
   2   8  11    9.90    4.30
  -2   8 -11    5.70    3.90
  -3  -8 -11  174.48   15.60
   3   8  11  166.98   13.40
  -3   8 -11  173.58   12.40
   4  -8  11    6.10    4.60
  -4  -8 -11   20.50    7.60
   4   8  11    7.20    5.80
  -5  -8 -11    4.40    5.90
   5  -8  11    6.20    5.40
   5   8  11    0.40    5.70
  -5   8 -11    4.00    5.10
  -6  -8 -11   10.40    6.90
  -6   8 -11   -0.70    6.30
   6   8  11   -8.60    9.70
  -7  -8 -11  138.59   19.10
  -7   8 -11  125.39   14.40
   7   8  11  146.59   17.30
  -8  -8 -11    9.70   11.60
   8  -8  11   -2.30    9.10
   8   8  11   11.40   10.60
 -11  -9  11   15.10   12.60
  11   9 -11   -0.10   13.00
 -10  -9  11   12.40    9.30
  -9  -9  11   70.59   13.60
   8  -9 -11  170.08   17.50
  -8  -9  11  192.98   18.60
   8   9 -11  178.98   14.80
  -7  -9  11    5.70    5.70
   7  -9 -11    9.40    4.50
   7   9 -11    6.70    4.50
   6  -9 -11   10.20    4.40
  -6  -9  11   25.00    8.10
  -6   9  11   20.50    5.60
   6   9 -11   13.50    4.90
   5  -9 -11   48.10    8.70
  -5  -9  11   43.50    9.90
   5   9 -11   42.50    6.60
  -4  -9  11  277.37   18.60
   4  -9 -11  310.17   18.90
  -4   9  11  300.47   12.10
   4   9 -11  302.17   15.10
  -3  -9  11   89.59    9.90
   3  -9 -11   79.09    8.60
  -3   9  11   89.39    6.60
   3   9 -11   83.29    7.70
   3   9 -11   61.79    7.90
   2  -9 -11   75.29    9.00
   2   9 -11   89.69    8.90
  -2   9  11   87.39    7.10
   1  -9 -11    8.50    4.20
  -1   9  11    2.10    2.40
   1   9 -11    4.00    2.60
   0  -9 -11    6.90    4.10
   0   9 -11   16.90    4.40
   0   9  11    5.00    3.30
  -1  -9 -11  239.48   17.20
   1   9  11  257.27   14.80
  -1   9 -11  244.38   15.80
  -2  -9 -11  418.06   23.50
   2   9  11  383.56   20.10
  -2   9 -11  367.46   17.70
  -3  -9 -11  161.18   15.40
  -3   9 -11  150.58   11.40
   3   9  11  140.89   12.90
  -4  -9 -11   -5.80    4.60
  -4   9 -11    0.40    4.70
   4   9  11    8.00    6.00
  -5  -9 -11   33.20   10.50
   5  -9  11   23.40    7.50
   5   9  11   18.00    8.00
  -6  -9 -11    0.60    7.30
   6  -9  11   15.10   11.30
  -6   9 -11    5.90    6.10
   6   9  11   13.40    8.30
   7  -9  11   17.20    8.70
  -7  -9 -11   32.20   11.70
   7   9  11   18.60    8.80
  -7   9 -11   26.40    8.80
   8  -9  11   52.99   11.60
  -8  -9 -11   49.80   15.60
   8   9  11   51.99   13.70
 -10 -10  11   -2.70    8.90
  -9 -10  11   52.09   12.90
  -8 -10  11    2.90    7.20
   8  10 -11   -7.30    4.60
   7 -10 -11    2.10    4.00
  -7 -10  11    5.90   11.10
   7  10 -11    1.20    4.90
   6 -10 -11   44.00    8.40
  -6 -10  11   35.00    9.20
   6  10 -11   47.20    8.50
   5 -10 -11    1.70    4.50
  -5 -10  11    0.30    4.80
   5  10 -11    2.50    3.10
  -4 -10  11   19.30    6.40
   4 -10 -11   14.40    4.60
  -4  10  11   16.00    3.80
   4  10 -11   25.00    5.70
   3 -10 -11  241.38   14.90
  -3 -10  11  263.47   17.60
   3  10 -11  247.68   13.70
  -3  10  11  254.67   11.90
   3  10 -11  238.68   15.00
   2 -10 -11   88.39    9.90
  -2  10  11   95.69    8.00
   2  10 -11   80.99    8.80
   1 -10 -11  195.88   14.30
   1  10 -11  202.68   13.10
  -1  10  11  193.08   11.60
   0 -10 -11   49.50    9.00
   0  10 -11   47.30    6.70
   0  10  11   51.69    7.50
  -1 -10 -11   85.09   11.50
   1  10  11  103.89    9.90
  -2 -10 -11   65.89   10.80
   2  10  11   83.69   10.10
  -2  10 -11   77.99    8.30
  -3 -10 -11  153.38   15.50
  -3  10 -11  140.19   11.20
   3  10  11  163.98   14.20
  -4 -10 -11   -0.20    5.80
  -4  10 -11    4.00    4.60
   4  10  11   -8.40    4.30
  -5 -10 -11   20.40    9.10
  -5  10 -11   16.20    6.30
   5  10  11   35.60    9.10
  -6 -10 -11   -6.30    7.20
  -6  10 -11   -0.80    6.00
   7 -10  11   72.19   14.10
  -7 -10 -11   47.20   14.00
   7  10  11   67.69   15.20
  -8 -10 -11   25.80   14.70
   8  10  11    6.70   11.50
 -10 -11  11   48.20   14.80
   9 -11 -11    3.50    8.40
  -9 -11  11  -10.80    7.90
  -8 -11  11   93.09   14.20
   8  11 -11   85.99   13.20
  -7 -11  11    1.80    6.00
   7  11 -11   -0.60    5.20
  -6 -11  11    7.30    6.30
   6  11 -11    1.20    4.20
   5 -11 -11   20.80    5.40
  -5 -11  11   20.70    7.50
   5  11 -11   18.30    5.40
  -4 -11  11  176.98   15.40
   4 -11 -11  211.08   13.60
   4  11 -11  184.98   12.90
  -4  11  11  184.48   10.70
   3 -11 -11   29.00    6.90
  -3 -11  11   28.70    6.40
  -3  11  11   31.50    5.30
   2 -11 -11  460.05   22.30
   2  11 -11  497.05   22.00
  -2  11  11  489.25   19.40
   1 -11 -11  153.88   12.90
  -1  11  11  146.09   10.90
   1  11 -11  166.08   11.80
   0 -11 -11   15.60    5.50
   0  11  11    9.40    4.50
   0  11 -11   10.80    4.00
  -1 -11 -11   12.10    5.10
  -1  11 -11    5.60    3.50
   1  11  11    9.40    5.00
  -2 -11 -11  305.77   20.90
   2  11  11  282.07   17.90
  -2  11 -11  297.57   16.10
  -3 -11 -11   27.80    7.70
  -3  11 -11   13.80    5.00
   3  11  11   12.40    6.70
  -4 -11 -11   13.40    8.50
  -4  11 -11   34.90    7.10
   4  11  11   24.20    7.60
  -5 -11 -11   17.10    8.70
   5  11  11   23.90    8.70
  -5  11 -11   20.50    6.60
  -6 -11 -11   16.90    8.60
  -7 -11 -11   24.30   13.10
   7  11  11   35.50   12.60
 -10 -12  11   33.90   12.40
  -9 -12  11    8.90    8.50
  -8 -12  11   11.60    8.80
   8 -12 -11   -0.40    5.70
   8  12 -11    7.70    7.80
  -7 -12  11  153.28   17.20
   7  12 -11  175.18   14.60
  -6 -12  11   16.10   10.50
   6  12 -11   15.20    5.60
  -5 -12  11  185.48   16.50
   5 -12 -11  169.68   12.80
   5  12 -11  160.68   13.40
   4 -12 -11   41.70    7.80
  -4 -12  11   26.30    7.40
   4  12 -11   39.60    7.70
  -4  12  11   51.29    7.10
   3 -12 -11    4.80    4.20
  -3 -12  11    2.10    4.80
   3  12 -11    0.00    3.20
  -3  12  11    0.70    3.70
   2 -12 -11  137.79   12.10
  -2  12  11  141.89   10.50
   2  12 -11  134.89   11.30
   1 -12 -11  209.48   15.50
  -1  12  11  193.58   13.20
   1  12 -11  204.68   13.30
   0 -12 -11    7.50    5.50
   0  12  11   24.60    6.80
   0  12 -11   23.90    5.30
  -1 -12 -11  112.69   13.10
  -1  12 -11  147.49   11.00
   1  12  11  118.79   12.10
  -2 -12 -11   21.80    7.50
  -2  12 -11   15.50    6.00
   2  12  11   26.80    6.80
  -3 -12 -11   26.40    8.70
   3  12  11   21.80    7.30
  -3  12 -11   24.40    5.90
  -4 -12 -11    4.20    7.90
  -4  12 -11    3.90    5.40
   4  12  11   -3.60    5.90
  -5 -12 -11    2.80    8.30
  -5  12 -11    0.80    5.80
  -6 -12 -11   59.79   15.90
   6  12  11  134.49   18.20
  -7 -12 -11   26.10   14.70
   7  12  11   29.50   13.00
  -9 -13  11   -2.80    8.70
  -8 -13  11   -6.00    7.40
  -7 -13  11   51.49   11.40
   7 -13 -11   47.20    9.60
   7  13 -11   48.20   10.00
  -6 -13  11   -3.90    5.20
   6  13 -11    3.00    5.20
  -5 -13  11   18.60    8.40
   5 -13 -11   31.70    7.10
   5  13 -11   26.70    7.30
  -4 -13  11  175.68   15.80
   4 -13 -11  152.78   12.20
   4  13 -11  176.88   13.80
  -4  13  11  178.28   11.80
  -3 -13  11   50.89    8.50
   3 -13 -11   45.60    8.90
   3  13 -11   39.40    7.50
  -3  13  11   51.29    7.70
   2 -13 -11   30.80    7.60
  -2  13  11   53.69    7.80
   2  13 -11   40.60    7.90
   1 -13 -11   40.90    9.30
   1  13 -11   34.80    6.80
  -1  13  11   23.50    6.50
   0 -13 -11   66.09   10.40
   0  13  11   53.39    9.00
   0  13 -11   64.29    8.40
  -1 -13 -11   66.89   11.50
   1  13  11   43.80    8.90
  -1  13 -11   65.89    8.40
  -2 -13 -11  101.69   14.00
   2  13  11   90.79   12.20
  -3 -13 -11   -1.90    5.90
  -3  13 -11    9.50    4.80
   3  13  11    2.70    5.80
  -4 -13 -11   -7.90    6.30
  -4  13 -11    4.40    5.00
   4  13  11    4.70    6.80
  -5 -13 -11   14.00    9.00
  -6 -13 -11   36.50   12.70
   6  13  11   55.29   13.50
  -7 -13 -11   21.00   10.40
   7  13  11   -7.30   10.50
  -9 -14  11   45.80   14.90
  -8 -14  11   -5.00    9.40
  -7 -14  11   11.00    7.40
   7 -14 -11    7.00    6.60
   7  14 -11   -7.40    5.90
  -6 -14  11    8.90    7.10
   6  14 -11    6.90    6.30
   5  14 -11    9.30    5.80
  -4 -14  11  148.09   14.40
   4 -14 -11  110.69   11.30
  -4  14  11  118.29   10.60
   4  14 -11  113.89   12.30
  -3 -14  11  277.07   19.10
   3 -14 -11  313.77   18.60
  -3  14  11  297.07   16.60
   3  14 -11  293.77   18.10
   2 -14 -11   28.60    7.30
   2  14 -11   23.20    7.10
  -2  14  11   38.70    7.60
   1 -14 -11    9.00    5.50
  -1  14  11   11.40    5.30
   1  14 -11    6.90    4.60
   0 -14 -11   19.60    6.90
   0  14 -11   21.90    5.80
   0  14  11   25.60    6.90
  -1 -14 -11   37.90    8.30
   1  14  11   31.90    7.40
  -1  14 -11   28.30    6.30
  -2 -14 -11    7.00    6.90
   2  14  11    0.60    5.60
  -2  14 -11    6.40    6.80
  -3 -14 -11   52.29   11.50
   3  14  11   58.19   12.00
  -3  14 -11   71.49    9.00
  -4 -14 -11    4.50    8.10
   4  14  11   18.80    8.90
  -4  14 -11    5.90    5.40
  -5 -14 -11   -1.00    9.20
   5  14  11   12.80    8.70
  -6 -14 -11   -2.10   10.40
   6  14  11    7.00   11.30
  -8 -15  11   31.60   11.90
  -7 -15  11   51.59   12.90
   7  15 -11   56.69   12.40
   6 -15 -11    3.00    6.10
  -6 -15  11    6.20    6.80
   6  15 -11    2.10    5.90
  -5 -15  11   19.40    9.30
   5  15 -11   22.10    7.50
  -4 -15  11  143.49   15.50
   4 -15 -11  154.88   13.00
   4  15 -11  135.79   13.50
  -4  15  11  147.79   12.70
   3 -15 -11   19.80    7.10
  -3 -15  11   15.30    6.50
  -3  15  11   13.00    5.40
   3  15 -11    3.70    5.00
   2 -15 -11   10.70    6.00
   2  15 -11    0.50    4.30
  -2  15  11    4.40    5.30
   1 -15 -11  120.79   13.60
   1  15 -11   90.69    9.90
  -1  15  11   86.19   11.00
   0 -15 -11   61.49   12.00
   0  15 -11   57.39    8.50
   0  15  11   40.70    8.90
  -1 -15 -11    5.10    5.40
  -1  15 -11    0.40    4.30
   1  15  11    8.60    5.90
  -2 -15 -11   61.09   12.60
  -2  15 -11   73.79   10.90
   2  15  11   67.49   12.30
  -3 -15 -11    7.50    8.50
   3  15  11   14.70   11.80
  -3  15 -11   18.20    5.90
  -4 -15 -11   10.60   10.80
   4  15  11   -0.10    8.10
  -5 -15 -11   47.60   13.40
   5  15  11   71.99   15.20
   6  15  11   16.40   11.90
  -8 -16  11    3.50   13.50
  -7 -16  11   30.50   11.00
   7  16 -11   25.70    9.00
  -6 -16  11  108.99   16.00
   6  16 -11  103.89   14.90
  -5 -16  11   87.89   14.00
   5 -16 -11  105.69   14.00
   5  16 -11  122.29   14.40
  -4 -16  11   29.30    9.30
  -4  16  11   12.70    6.60
   4  16 -11   17.30    7.10
  -3 -16  11   74.69   12.40
   3 -16 -11  107.79   12.50
  -3  16  11  110.49   11.80
   3  16 -11   61.29   10.40
   2 -16 -11    5.70    5.80
   2  16 -11    6.20    5.10
  -2  16  11   -6.00    5.00
   1 -16 -11    8.40    6.90
  -1  16  11   -0.60    5.10
   1  16 -11   -1.80    3.70
   0 -16 -11   25.00    8.30
   0  16  11   29.80    8.00
   0  16 -11   31.10    6.90
   1  16  11   72.89   12.30
  -1  16 -11   54.29    8.50
  -2 -16 -11   19.00    8.40
   2  16  11   42.10   10.40
  -2  16 -11   36.90    9.20
  -3 -16 -11  105.19   17.10
   3  16  11  106.39   15.60
  -4 -16 -11   71.49   15.30
   4  16  11   74.59   14.80
  -5 -16 -11    5.60   11.80
   5  16  11   -2.30    9.90
  -7 -17  11   23.00   12.00
   7  17 -11   34.10   13.70
  -6 -17  11   13.90    9.60
   6  17 -11   14.30    7.80
   5 -17 -11   75.09   13.60
  -5 -17  11   73.19   13.80
   5  17 -11   54.29   11.20
  -4 -17  11   61.39   11.80
   4  17 -11   42.80   10.50
  -3 -17  11    0.60    6.30
   3  17 -11    9.40    7.90
   2 -17 -11   59.09   11.80
  -2  17  11   73.49   11.90
   2  17 -11   57.09    9.90
   1 -17 -11    0.40    6.60
   1  17 -11    5.40    4.60
  -1  17  11    9.60    7.30
   0 -17 -11   53.19   11.90
   0  17 -11   58.09    9.00
   0  17  11   71.79   12.50
  -1 -17 -11   14.80    7.60
  -1  17 -11   14.00    5.70
   1  17  11   25.50    8.30
  -2 -17 -11   15.40    9.00
   2  17  11   -2.70    7.20
  -3 -17 -11   21.80   10.20
   3  17  11   27.20    8.70
  -4 -17 -11   73.39   16.90
   4  17  11   85.89   16.70
  -5 -17 -11   51.39   15.10
   5  17  11   50.69   12.70
  -6 -18  11   -5.60    9.50
   6  18 -11    3.30    7.70
  -5 -18  11   55.69   13.60
   5  18 -11   65.49   13.50
  -4 -18  11   29.20    9.20
   4 -18 -11   30.20    9.50
   4  18 -11   19.30    8.90
  -3 -18  11   57.69   11.80
   3  18 -11   67.79   10.90
  -3  18  11   62.69   12.30
   3  18 -11   63.59   12.30
   2 -18 -11   17.90    9.40
  -2  18  11   24.50    9.00
   2  18 -11   28.50    7.30
   1 -18 -11    3.00    8.30
   1  18 -11    4.70    4.80
  -1  18  11    5.00    7.20
   0 -18 -11   86.99   15.10
  -1 -18 -11   -6.80    7.90
   1  18  11    0.70    7.60
  -1  18 -11   16.30    6.00
  -2 -18 -11   37.70   11.70
   2  18  11   14.80   10.10
  -3 -18 -11   57.09   14.30
   3  18  11   53.99   13.40
  -4 -18 -11   47.30   16.50
   4  18  11   24.90   11.40
  -5 -19  11   44.90   13.20
   5  19 -11   20.20    9.60
  -4 -19  11   13.70    9.70
   4  19 -11   32.50   10.20
   3 -19 -11   15.20    9.60
   3  19 -11    5.90    6.60
   3  19 -11    7.00    7.10
  -2  19  11   -6.00    7.70
  -1  19  11    3.40    8.10
   0 -19 -11   48.30   12.50
   0  19 -11   46.70    9.20
   0  19  11   56.29   12.60
  -1 -19 -11   26.00   12.30
   1  19  11   35.80   11.40
  -2 -19 -11  135.89   20.60
   2  19  11  114.29   18.20
  -3 -19 -11   31.00   13.20
   3  19  11   16.80   11.40
  -4 -20  11   -7.90    9.20
   4  20 -11   -5.20    8.60
   3 -20 -11   19.60   12.80
   3  20 -11   42.60   13.00
   2 -20 -11   -4.50    9.50
   2  20 -11  -10.60    6.70
   1  20 -11   58.49   11.50
  -1  20  11   80.89   15.70
   0 -20 -11  191.68   23.90
   0  20 -11  144.29   16.60
   0  20  11  178.38   19.50
  -1 -20 -11   27.90   11.40
   1  20  11   32.30   12.80
  11   0 -12    1.10   11.70
  11   0 -12  -12.80    6.60
  10   0 -12   24.30    7.70
  10   0 -12   28.50    7.40
   9   0 -12   -5.30    4.30
   9   0 -12    0.30    3.80
   8   0 -12  116.39    7.40
   8   0 -12  108.89   11.60
   7   0 -12    2.50    3.60
   7   0 -12    0.40    1.80
   6   0 -12  480.95   22.10
   5   0 -12    0.60    2.60
   4   0 -12   80.19    8.40
   3   0 -12    1.70    2.80
   2   0 -12   24.20    5.50
   1   0 -12   -2.30    2.00
   1   0 -12   -0.40    1.20
   0   0  12  924.11   24.90
   0   0 -12  890.51   24.90
   0   0 -12  947.91   32.40
   1   0  12   -1.00    2.10
  -1   0 -12   -0.80    2.40
  -1   0 -12    0.90    3.40
   2   0  12    5.30    3.70
  -2   0 -12    3.90    3.50
  -3   0 -12   -9.20    2.90
   3   0  12    0.90    3.40
  -4   0 -12    5.10    4.50
   4   0  12   -3.20    3.40
   5   0  12    3.60    5.20
  -5   0 -12    3.40    5.80
   6   0  12   36.80    8.60
  -6   0 -12   40.50   10.50
   7   0  12  -11.00    7.10
   8   0  12   52.49   13.50
  -8   0 -12   36.30   12.50
  -9   0 -12   -2.70   11.60
   9   0  12   -7.90   17.50
  11  -1 -12   47.60   10.00
  11   1 -12   49.50   11.50
  11   1 -12   65.89   12.60
  10  -1 -12   -1.90    4.90
 -10  -1  12    1.30    7.20
  10   1 -12   -2.10    5.20
   9  -1 -12   53.99    7.00
   9  -1 -12   70.89   10.00
   9   1 -12   62.19    7.80
   9   1 -12   66.19    9.90
   8  -1 -12   36.10    4.80
   8  -1 -12   35.00    6.90
   8   1 -12   26.40    4.70
   8   1 -12   30.70    7.10
   7  -1 -12  246.58   15.40
   7   1 -12  234.78   15.70
   7   1 -12  221.88   10.00
   6  -1 -12    4.20    3.60
   6   1 -12    1.80    3.50
   5  -1 -12  299.07   16.30
   5   1 -12  296.17   16.50
   4  -1 -12   -4.00    2.40
   4   1 -12   -0.40    2.40
   3  -1 -12  288.07   15.70
   3   1 -12  308.87   15.90
   2  -1 -12   49.60    6.70
   2   1 -12   64.59    7.30
   1  -1 -12  366.16   18.30
   1   1 -12  405.36   18.90
   1   1 -12  433.36   12.20
   0  -1 -12    1.60    2.10
   0  -1 -12    0.90    3.20
   0  -1  12   -0.40    1.80
   0   1 -12   -2.70    2.20
   0   1  12   -1.90    1.70
   0   1 -12   -0.50    2.30
  -1  -1 -12   59.89    6.60
  -1  -1 -12   79.19    8.80
   1  -1  12   69.59    6.50
   1   1  12   77.89    6.80
  -1   1 -12   71.39    7.50
  -1   1 -12   76.89    8.40
   2  -1  12   98.09    8.90
  -2  -1 -12  103.59   10.60
  -2   1 -12   99.99   10.20
   2   1  12  103.69    9.00
   3  -1  12  361.56   18.60
  -3  -1 -12  367.96   20.70
  -3   1 -12  381.06   20.60
   3   1  12  364.86   18.50
   4  -1  12   10.40    4.40
  -4  -1 -12   10.60    6.40
  -4   1 -12   10.30    5.90
   4   1  12   10.90    5.20
   5  -1  12    5.90    5.00
  -5  -1 -12   18.40    7.80
  -5   1 -12    7.10    6.40
   5   1  12   15.90    6.60
  -6  -1 -12   24.20    9.70
   6  -1  12   37.20    8.80
   6   1  12   27.20    8.00
  -6   1 -12   28.50    8.10
  -7  -1 -12   54.59   12.30
   7  -1  12   71.39   13.20
  -7   1 -12   58.39   11.80
   8  -1  12    2.20    8.80
  -8  -1 -12    4.90   10.00
   8   1  12   -0.70    8.70
  -8   1 -12   12.20   10.20
  -9  -1 -12   30.50   14.20
   9  -1  12   60.59   22.10
   9   1  12   73.29   26.80
 -11  -2  12    0.60    9.10
  11  -2 -12  -16.30    7.30
  11   2 -12    9.90    7.90
  11   2 -12   -8.00    7.20
  10  -2 -12    5.20    6.00
 -10  -2  12   14.90    8.80
  10  -2 -12    8.10    5.60
  10   2 -12    7.70    6.10
   9  -2 -12    7.90    5.80
   9  -2 -12    2.10    4.10
  -9  -2  12    9.60    7.70
   9   2 -12   -2.40    4.10
   8  -2 -12  373.26   19.40
  -8  -2  12  322.87   21.40
   8   2 -12  314.97   19.20
   8   2 -12  320.47   15.70
  -8   2  12  300.47   12.50
   7  -2 -12   -2.00    3.50
   7   2 -12   -1.00    2.30
   7   2 -12   -1.20    3.00
   6  -2 -12    0.10    3.00
   6   2 -12    5.60    1.70
   6   2 -12    0.20    3.60
   5  -2 -12    4.60    3.60
   5   2 -12    4.60    3.30
   4  -2 -12   43.60    6.20
   4   2 -12   34.10    6.10
   3  -2 -12  223.68   13.70
   3   2 -12  231.28   13.90
   2  -2 -12  476.15   20.80
   2   2 -12  440.86   10.10
   2   2 -12  471.25   10.20
   2   2 -12  516.65   21.10
   1  -2 -12   -1.90    2.40
   1   2 -12    2.20    1.90
   1   2 -12    0.90    2.40
  -1   2  12   -0.20    1.20
   0  -2 -12  137.09   11.20
   0  -2 -12  109.09    6.50
   0   2 -12  127.59   10.30
   0   2  12  128.69    7.20
   0   2 -12  105.59    8.20
  -1  -2 -12   18.30    5.40
   1  -2  12   18.70    4.40
  -1  -2 -12   26.00    4.70
  -1   2 -12   19.30    5.00
   1   2  12   16.80    4.20
  -2  -2 -12   41.50    7.80
   2  -2  12   47.30    6.80
   2   2  12   37.00    6.10
  -2   2 -12   48.20    7.70
   3  -2  12  104.29   16.00
  -3  -2 -12   93.79   11.50
   3   2  12   82.09    9.20
  -3   2 -12   98.59   10.60
   4  -2  12  172.78   14.10
  -4  -2 -12  220.38   17.10
   4   2  12  172.88   14.40
  -4   2 -12  230.98   16.30
   5  -2  12   65.79   10.20
  -5  -2 -12   65.29   11.20
   5   2  12   66.49   10.80
  -5   2 -12   53.19   10.70
   6  -2  12   31.80    8.30
  -6  -2 -12   23.10    9.80
   6   2  12   20.70    8.10
  -6   2 -12   13.90    7.80
  -7  -2 -12   45.50   12.80
   7  -2  12   45.10    9.80
  -7   2 -12   62.49   12.70
   8  -2  12  113.59   18.00
  -8  -2 -12  105.59   18.90
   8   2  12   78.69   14.10
 -11  -3  12    7.70   10.90
  11  -3 -12    6.90    7.80
  11   3 -12   17.30    9.20
 -10  -3  12   60.69   13.20
  10  -3 -12   43.50    8.90
  10   3 -12   71.79   10.50
  -9  -3  12   12.10    7.20
   9  -3 -12    9.60    5.80
   9   3 -12    5.10    4.70
  -8  -3  12    7.80    5.80
   8  -3 -12   -1.70    3.70
  -8   3  12   -4.60    4.80
   8   3 -12   -2.80    3.40
   7  -3 -12  273.67   16.10
  -7  -3  12  298.07   20.10
   7   3 -12  272.87   17.60
   7   3 -12  282.37   11.90
   6  -3 -12   -1.10    3.00
   6   3 -12    1.80    3.40
   6   3 -12   -1.20    1.70
   5  -3 -12   35.90    6.30
   5   3 -12   43.50    7.20
   5   3 -12   38.70    2.60
   4  -3 -12   -2.50    2.30
   4   3 -12   -1.60    2.50
   3  -3 -12  318.67   16.50
   3   3 -12  323.87   16.70
   2  -3 -12   -1.90    2.20
   2   3 -12    0.40    2.20
   2   3 -12    1.50    1.60
   1  -3 -12   77.99    8.70
   1   3 -12   79.29    5.70
  -1   3  12   89.19    4.20
   1   3 -12   94.09    8.80
   0  -3 -12  392.96   19.40
   0  -3 -12  346.47   12.40
   0   3  12  366.26   13.30
   0   3 -12  352.16   17.60
   1  -3  12   -1.90    2.30
  -1  -3 -12   -2.20    2.90
  -1  -3 -12    2.00    3.30
   1   3  12   -1.00    2.40
  -1   3 -12   -4.10    2.50
   2  -3  12   34.40    6.20
  -2  -3 -12   36.80    7.20
   2   3  12   30.90    6.10
  -2   3 -12   30.60    6.40
   3  -3  12  368.86   18.70
  -3  -3 -12  344.47   21.00
   3   3  12  417.26   19.90
  -3   3 -12  364.46   19.80
  -4  -3 -12   27.60    7.50
   4  -3  12   52.79    9.30
   4   3  12   32.80    7.80
  -4   3 -12   37.60    8.60
   5  -3  12   11.20    6.40
  -5  -3 -12    9.50    6.90
   5   3  12   23.10    6.90
  -5   3 -12    8.60    6.50
   6  -3  12   29.90    7.40
  -6  -3 -12    9.30    7.80
   6   3  12   25.50    9.40
  -6   3 -12   18.00    7.80
   7  -3  12    1.50    6.40
  -7  -3 -12    1.90    8.70
  -7   3 -12   -4.90    7.40
   8  -3  12   12.80    9.80
  -8  -3 -12   53.09   12.70
   8   3  12   28.80   12.00
 -11  -4  12   -3.70    9.30
 -10  -4  12   30.30   11.80
  10  -4 -12   25.30    8.20
  10   4 -12   26.50    7.70
  -9  -4  12    2.70    6.70
   9  -4 -12    2.10    5.50
   9   4 -12    1.70    4.40
  -8  -4  12   24.00    8.60
   8  -4 -12   28.80    7.70
   8   4 -12   25.30    5.70
   7  -4 -12    1.30    4.00
  -7  -4  12   -3.00    5.50
  -7   4  12   -3.80    2.50
   7   4 -12   -2.50    2.70
   6  -4 -12   95.09    9.30
  -6  -4  12  119.49   12.60
   6   4 -12   95.49   10.40
   6   4 -12   89.49    6.40
   5  -4 -12    8.60    3.80
   5   4 -12    7.40    4.10
   5   4 -12    6.50    2.30
   4  -4 -12  349.07   17.20
   4   4 -12  384.56   18.50
   4   4 -12  343.07   10.40
   4   4 -12  334.97   10.50
   3  -4 -12    0.40    2.30
   3   4 -12    0.60    1.40
   3   4 -12    2.60    2.60
   3   4 -12    6.10    1.90
   2  -4 -12  112.09    9.70
   2   4 -12   97.29    9.00
   2   4 -12   97.89    6.00
   1  -4 -12   15.70    4.70
   1   4 -12    7.20    3.50
  -1   4  12   14.50    2.60
   1   4 -12   14.90    3.50
   0  -4 -12    7.20    3.50
   0   4 -12   15.90    4.00
   0   4 -12   14.80    4.40
   0   4  12    4.30    2.50
  -1  -4 -12    3.60    3.50
   1   4  12   -1.20    2.50
  -1   4 -12    0.40    3.20
  -2  -4 -12  472.75   24.20
   2  -4  12  510.95   21.00
   2   4  12  525.15   21.30
  -2   4 -12  511.65   22.80
   3  -4  12   41.40    7.60
  -3  -4 -12   20.40    6.60
  -3   4 -12   36.30    7.40
  -4  -4 -12  143.49   15.00
   4  -4  12  147.99   12.70
  -4   4 -12  146.69   13.40
   4   4  12  153.38   13.50
  -5  -4 -12   42.20   10.50
   5  -4  12   58.39   10.90
   5   4  12   51.89   10.30
  -5   4 -12   39.20    8.80
  -6  -4 -12    1.70    7.40
   6  -4  12   12.40    6.60
   6   4  12   11.60    7.00
  -6   4 -12   17.20    7.60
  -7  -4 -12   15.30    9.60
   7  -4  12   21.00    8.70
  -7   4 -12   20.60    9.30
   8  -4  12   97.59   18.20
  -8  -4 -12   91.49   18.00
 -11  -5  12    2.70    9.40
  10  -5 -12    0.20    6.30
 -10  -5  12    0.50    6.50
  10   5 -12   11.10    6.40
  -9  -5  12   82.19   13.00
   9  -5 -12  101.39   11.70
  -8  -5  12   11.00    5.80
   8  -5 -12    0.10    4.50
   8   5 -12    5.00    4.10
  -7  -5  12  122.49   13.60
   7  -5 -12  116.49   10.60
   7   5 -12  126.09    9.10
  -7   5  12  117.59    6.90
  -6  -5  12   73.99   10.70
   6  -5 -12   77.69    8.60
   6   5 -12   85.89    6.90
   5  -5 -12  371.06   18.00
   5   5 -12  371.06   13.30
   5   5 -12  382.36   19.50
   4  -5 -12   12.70    4.20
   4   5 -12   13.40    4.60
   4   5 -12   15.80    2.90
   3  -5 -12  448.06   20.50
   3   5 -12  454.65   14.70
   3   5 -12  495.65   15.60
   3   5 -12  498.35   21.60
   2  -5 -12   12.30    4.70
   2   5 -12    3.70    2.60
   2   5 -12   12.50    2.90
   1  -5 -12   69.79    8.40
  -1   5  12   72.59    5.10
   1   5 -12   78.79    8.10
   0  -5 -12  119.99   11.00
   0   5  12  106.19    7.60
   0   5 -12  137.39   10.60
  -1  -5 -12    4.20    3.60
  -1   5 -12    1.30    3.20
   1   5  12   -0.50    3.00
  -2  -5 -12   77.19    9.80
   2  -5  12   67.09    8.10
  -2   5 -12   78.39    9.30
   2   5  12   64.29    8.20
   3  -5  12  228.78   14.40
  -3  -5 -12  232.28   17.60
  -3   5 -12  222.38   14.80
   3   5  12  227.48   15.10
  -4  -5 -12  121.49   14.30
   4  -5  12  131.29   13.10
  -4   5 -12  129.29   12.40
   4   5  12  132.69   13.10
  -5  -5 -12   49.20   10.90
   5  -5  12   66.49   10.90
   5   5  12   49.80   10.40
  -5   5 -12   59.49   10.40
  -6  -5 -12    3.80    6.70
   6  -5  12    6.70    7.70
  -6   5 -12    8.30    6.90
   6   5  12    4.10    6.80
  -7  -5 -12  110.99   17.30
   7  -5  12  115.59   16.10
  -7   5 -12  126.09   16.10
  -8  -5 -12   -1.80   10.80
   8  -5  12    4.50   11.00
   8   5  12   -4.10    9.60
 -11  -6  12   16.60   10.40
  11  -6 -12   -7.10    7.40
 -10  -6  12    7.70    8.00
  10   6 -12   -8.50    6.30
   9  -6 -12   62.99   10.10
  -9  -6  12   71.29   13.70
   9   6 -12   73.29   10.00
   8  -6 -12   33.10    7.10
   8   6 -12   33.10    6.90
  -7  -6  12   27.90    8.00
   7  -6 -12   24.60    5.90
   7   6 -12   22.20    4.70
  -7   6  12    8.80    4.10
  -6  -6  12  376.16   22.20
   6  -6 -12  326.67   17.30
   6   6 -12  336.17   14.40
  -6   6  12  336.47    9.90
   5  -6 -12   68.59    8.10
  -5  -6  12   55.49    9.20
   5   6 -12   56.59    8.10
   5   6 -12   55.79    5.80
   4  -6 -12   70.59    8.20
   4   6 -12   83.39    6.20
   4   6 -12   73.69    8.40
   3  -6 -12  310.87   17.00
   3   6 -12  308.47   16.80
   3   6 -12  328.47   12.40
   2  -6 -12  552.14   23.50
  -2   6  12  531.65   14.50
   2   6 -12  580.44   23.30
  -2   6  12  531.05   14.70
   1  -6 -12   39.30    6.60
   1   6 -12   33.50    6.60
  -1   6  12   34.60    4.20
   1   6 -12   30.20    5.60
   0  -6 -12  136.39   11.80
   0   6 -12  164.18   11.80
   0   6  12  154.88    9.30
  -1  -6 -12    3.40    4.80
  -1   6 -12    6.00    3.60
   1   6  12    3.90    3.40
  -2  -6 -12  333.67   20.20
   2   6  12  347.07   17.60
  -2   6 -12  354.66   18.40
   3  -6  12   14.60    4.30
  -3  -6 -12   23.70    6.50
  -3   6 -12   14.80    5.60
   3   6  12   11.60    5.20
   4  -6  12  189.18   14.90
  -4  -6 -12  171.48   15.80
   4   6  12  144.79   14.10
  -4   6 -12  152.78   13.50
  -5  -6 -12   27.00    8.90
   5  -6  12   18.80    7.00
  -5   6 -12   17.90    7.10
   5   6  12   19.80    7.00
  -6  -6 -12   -2.70    7.20
   6  -6  12   10.10    6.50
  -6   6 -12    6.70    7.30
   6   6  12   -6.40    6.00
  -7  -6 -12   -7.20    8.20
   7  -6  12    8.90    8.10
  -8  -6 -12   -4.50   10.60
   8  -6  12   15.40   10.70
  -8   6 -12   42.60   11.20
   8   6  12   33.90   13.90
 -11  -7  12   38.10   14.60
  11  -7 -12   -0.60    9.50
 -10  -7  12   25.60   10.30
  10   7 -12    0.90    8.70
   9  -7 -12   23.50    6.90
  -9  -7  12   14.70    7.10
   9   7 -12   19.70    6.80
   8  -7 -12   16.60    5.30
  -8  -7  12   11.10    6.50
   8   7 -12   13.20    6.90
  -7  -7  12  269.17   20.30
   7  -7 -12  248.48   14.80
   7   7 -12  244.48   13.60
  -7   7  12  199.38   11.40
   6  -7 -12   46.40    6.90
  -6  -7  12   51.29   10.40
   6   7 -12   48.00    6.60
  -6   7  12   41.70    5.10
   5  -7 -12   35.50    6.70
  -5  -7  12   30.70    7.60
   5   7 -12   25.80    5.10
  -5   7  12   23.60    4.00
   4  -7 -12   39.50    7.10
   4   7 -12   38.60    5.30
   4   7 -12   62.39    7.30
  -4   7  12   45.80    3.20
   3  -7 -12  224.48   14.30
  -3   7  12  230.68    7.90
   3   7 -12  213.68   14.10
   3   7 -12  198.68   10.50
   3   7 -12  233.58   10.90
   2  -7 -12   33.80    7.00
  -2   7  12   25.50    3.80
   2   7 -12   30.40    5.70
  -2   7  12   33.50    4.00
   1  -7 -12    1.70    3.60
   1   7 -12   -0.40    3.00
  -1   7  12    3.60    2.60
   0  -7 -12   51.89    8.50
   0   7 -12   30.20    6.20
   0   7  12   28.30    5.70
  -1  -7 -12  112.59   11.90
   1   7  12   87.29    8.60
  -1   7 -12  113.89   10.10
  -2  -7 -12   76.69   10.50
   2   7  12   55.59    8.40
  -2   7 -12   38.20    7.30
  -3  -7 -12  587.74   29.40
  -3   7 -12  598.14   25.30
   3   7  12  620.84   27.10
  -4  -7 -12  103.19   14.40
   4  -7  12  113.49   11.90
   4   7  12   90.49   11.80
  -4   7 -12  118.59   11.70
  -5  -7 -12    7.90    7.60
   5  -7  12   16.90    7.00
  -5   7 -12   32.20    8.70
   5   7  12   26.60    8.40
  -6  -7 -12   14.10    8.90
   6  -7  12   -4.50    5.80
  -6   7 -12    0.50    7.00
   6   7  12    5.70    7.00
  -7  -7 -12    5.70   10.40
   7  -7  12    3.30    8.00
   7   7  12    5.10    9.20
  -7   7 -12    1.70    7.60
   8  -7  12    0.80   10.80
  -8  -7 -12   -0.60   11.90
   8   7  12   -7.70   10.60
 -11  -8  12   -2.60    9.80
 -10  -8  12    7.40    8.70
  10  -8 -12    2.80    6.80
  -9  -8  12   -9.50    7.00
   9   8 -12   -1.40    5.80
   8  -8 -12   96.99   10.90
  -8  -8  12   71.49   12.80
   8   8 -12   88.39   10.50
   7  -8 -12   -0.10    4.20
  -7  -8  12   -2.60    4.40
   7   8 -12    4.50    4.40
   6  -8 -12   22.50    6.40
  -6  -8  12   24.70    8.40
   6   8 -12   21.60    5.30
  -6   8  12   30.50    6.10
  -5  -8  12   97.39   11.30
   5  -8 -12   99.39    9.90
   5   8 -12  104.09    8.50
  -5   8  12   88.69    6.40
   4  -8 -12    4.30    3.90
   4   8 -12    7.40    4.00
  -4   8  12    2.60    2.10
   4   8 -12    4.10    3.10
   3  -8 -12   72.89    7.90
  -3   8  12   55.09    5.00
   3   8 -12   60.69    6.20
   3   8 -12   57.69    8.10
   2  -8 -12  698.23   27.70
   2   8 -12  703.03   26.90
  -2   8  12  668.53   20.70
   1  -8 -12   28.20    6.20
   1   8 -12   16.20    4.80
  -1   8  12   29.40    5.20
   0  -8 -12   73.39   10.00
   0   8 -12   76.29    8.40
   0   8  12   62.19    7.40
  -1  -8 -12  289.57   19.00
   1   8  12  278.27   15.20
  -1   8 -12  284.57   15.60
  -2  -8 -12   50.29   10.20
  -2   8 -12   58.69    7.90
  -3  -8 -12   72.09   11.40
  -3   8 -12   61.09    8.60
   3   8  12   39.10    8.20
   4  -8  12  148.79   14.50
  -4  -8 -12  172.08   17.00
  -4   8 -12  180.88   14.00
   4   8  12  165.68   15.50
  -5  -8 -12    2.90    7.40
   5  -8  12   20.60    6.90
  -5   8 -12    2.10    6.20
   5   8  12   12.20    7.00
   6  -8  12    8.70    6.80
  -6  -8 -12    6.30    8.20
  -6   8 -12   11.90    7.50
   7  -8  12    1.00    7.80
  -7  -8 -12   10.70    9.80
   7   8  12   -4.00    8.40
  -7   8 -12    3.20    8.00
   8  -8  12   31.60   12.40
   8   8  12   14.60   10.90
  10  -9 -12   25.40    8.60
 -10  -9  12   18.50   11.50
  -9  -9  12  106.39   15.80
   9  -9 -12   83.79   11.50
   8  -9 -12   16.50    6.00
  -8  -9  12   16.90    7.70
   8   9 -12    7.20    6.00
  -7  -9  12  108.89   15.20
   7  -9 -12  104.39   10.30
   7   9 -12   97.79   10.20
  -6  -9  12   26.40    7.70
   6  -9 -12   24.40    6.20
  -6   9  12   19.00    6.10
   6   9 -12   28.10    6.50
   5  -9 -12    3.80    4.10
  -5  -9  12    8.00    5.60
  -5   9  12    3.60    2.70
   5   9 -12    7.00    4.10
  -5   9  12    7.70    4.10
   4  -9 -12    4.70    3.60
  -4  -9  12    8.70    4.90
   4   9 -12   10.50    4.20
  -4   9  12    9.00    3.70
   4   9 -12    9.40    4.00
  -4   9  12   11.70    3.10
   3  -9 -12  103.89   10.00
   3   9 -12   92.09    8.10
   3   9 -12   99.89   10.30
  -3   9  12   96.99    6.70
   2  -9 -12   16.80    5.50
   2   9 -12   11.20    4.40
  -2   9  12   16.30    4.10
   1  -9 -12  501.25   24.10
  -1   9  12  526.55   19.30
   1   9 -12  481.45   21.60
   0  -9 -12   -2.50    4.10
   0   9  12    0.30    3.20
   0   9 -12   -0.30    2.80
  -1  -9 -12  307.07   19.60
  -1   9 -12  302.17   16.50
   1   9  12  281.87   15.70
  -2  -9 -12    2.20    5.00
   2   9  12    6.60    4.60
  -2   9 -12    7.90    4.30
  -3  -9 -12   45.80    9.70
  -3   9 -12   51.99    8.40
   3   9  12   55.89    9.80
   4   9  12    2.10    5.90
  -5  -9 -12   47.70   11.60
  -5   9 -12   72.59   11.20
   5   9  12   61.29   11.90
   6  -9  12    5.90    6.80
  -6  -9 -12   -7.40    7.70
  -6   9 -12   11.00    7.60
   7  -9  12   61.09   13.20
  -7  -9 -12   56.29   13.10
   7   9  12   54.99   13.90
 -10 -10  12  -14.50    9.00
   9 -10 -12    7.50    6.40
  -9 -10  12   24.50    9.30
  -8 -10  12   66.99   12.90
   8  10 -12   71.79   11.10
   7 -10 -12   74.89    9.70
  -7 -10  12   78.09   13.40
   7  10 -12   67.89    9.90
   6 -10 -12   42.30    7.70
  -6 -10  12   39.30   10.10
   6  10 -12   39.60    8.00
   5 -10 -12   -1.30    3.90
  -5 -10  12    7.50    5.20
  -5  10  12   -1.30    3.50
   5  10 -12   -1.60    3.20
  -5  10  12    5.50    5.50
  -4 -10  12   77.89   10.10
   4 -10 -12   79.39    8.90
  -4  10  12   74.79    6.70
   4  10 -12   80.39    8.90
   4  10 -12   80.59    9.60
  -4  10  12   69.59    8.00
   3 -10 -12   52.19    8.30
   3  10 -12   43.80    7.50
   3  10 -12   35.00    6.40
  -3  10  12   38.10    5.60
  -3  10  12   38.70    6.90
   2 -10 -12  272.57   17.40
   2  10 -12  306.27   17.00
  -2  10  12  296.97   13.60
   1 -10 -12  348.37   19.70
  -1  10  12  332.97   15.80
   1  10 -12  335.47   17.60
   0 -10 -12    3.20    4.80
   0  10 -12    0.80    3.20
   0  10  12    5.20    4.10
  -1 -10 -12    4.40    5.50
   1  10  12    5.80    4.40
  -1  10 -12    7.00    3.90
  -2 -10 -12  218.98   18.00
  -2  10 -12  198.58   13.70
   2  10  12  209.48   15.60
  -3 -10 -12    8.50    6.20
  -3  10 -12    1.60    4.40
   3  10  12    4.80    5.70
  -4 -10 -12   34.70   10.10
   4  10  12   39.80   10.00
  -4  10 -12   36.50    7.70
  -5 -10 -12    6.20    7.40
  -5  10 -12   11.60    6.50
   5  10  12   10.60    7.90
  -6 -10 -12   17.80    9.60
   6  10  12   24.00   10.20
  -6  10 -12   21.90    8.30
  -7 -10 -12   13.60    9.90
   7  10  12   -5.70    9.40
 -10 -11  12   22.40   10.90
  10  11 -12    4.60   11.90
  -9 -11  12   -2.50    7.30
  -8 -11  12   27.40   10.00
   7 -11 -12   47.60    8.20
  -7 -11  12   32.80   10.30
   7  11 -12   39.80    8.70
  -6 -11  12   80.19   20.30
   6 -11 -12  115.29   10.80
   6  11 -12  105.99   11.20
   5 -11 -12    1.90    3.70
  -5 -11  12   -2.90    4.90
  -5  11  12   -2.30    3.30
   5  11 -12    4.00    4.20
   4 -11 -12   27.80    6.20
  -4 -11  12   19.90    7.20
   4  11 -12   21.00    5.80
  -4  11  12   15.30    4.20
   3 -11 -12   75.69    9.40
   3  11 -12   37.00    7.20
   3  11 -12   61.99    7.90
  -3  11  12   67.39    7.20
   2 -11 -12   14.80    5.30
  -2  11  12   12.20    4.30
   2  11 -12    8.70    4.10
   1 -11 -12  305.07   18.70
   1  11 -12  294.77   16.80
  -1  11  12  266.67   14.90
   0 -11 -12    1.40    4.50
   0  11  12   -5.20    3.40
   0  11 -12    0.80    3.30
  -1 -11 -12   35.70    8.90
  -1  11 -12   45.80    7.70
   1  11  12   46.00    8.70
  -2 -11 -12   29.10    6.80
   2  11  12   20.90    6.40
  -2  11 -12   31.20    6.60
  -3 -11 -12   48.90   17.90
   3  11  12   41.80    9.20
  -3  11 -12   63.49    9.40
  -4 -11 -12   22.70   10.00
   4  11  12    9.50    7.80
  -4  11 -12   26.10    7.10
  -5 -11 -12   27.00    9.90
  -5  11 -12   42.00    8.50
   5  11  12   60.69   13.30
  -6 -11 -12   -8.30   11.30
   6  11  12   -4.00    8.50
   7  11  12   42.30   12.90
  -9 -12  12    4.70    8.80
  -8 -12  12  137.09   18.60
  -7 -12  12    0.00    6.90
  -6 -12  12   -0.80    5.60
   6 -12 -12   -2.20    4.50
   6  12 -12    0.20    4.50
   5 -12 -12   14.40    5.20
  -5 -12  12    2.80    5.50
   5  12 -12    5.60    5.30
  -5  12  12    8.40    4.00
   4 -12 -12   -2.60    4.10
  -4 -12  12   -0.20    4.80
   4  12 -12    1.30    4.40
  -4  12  12    2.60    3.90
   3 -12 -12   27.30    6.60
  -3  12  12   38.10    7.00
   3  12 -12   33.90    7.20
   3  12 -12   21.90    5.80
   2 -12 -12  467.85   23.50
   2  12 -12  475.35   22.30
  -2  12  12  468.55   19.80
   1 -12 -12   91.29   11.50
   1  12 -12   73.69    9.50
  -1  12  12   97.19    9.90
   0 -12 -12    0.50    5.30
   0  12 -12   -2.80    3.20
   0  12  12    0.90    4.10
  -1 -12 -12   35.20    9.00
  -1  12 -12   43.60    7.60
   1  12  12   14.90    6.00
  -2 -12 -12   27.50    7.80
   2  12  12   19.90    7.00
  -2  12 -12   26.00    6.60
  -3 -12 -12   57.19   12.70
   3  12  12   37.50    9.10
  -3  12 -12   66.29    9.00
  -4 -12 -12   64.19   13.30
  -4  12 -12   53.89    9.00
   4  12  12   41.60   10.30
  -5 -12 -12   22.40   10.50
   5  12  12   26.40   10.80
  -5  12 -12   26.30   10.20
  -6 -12 -12   26.80   11.50
   6  12  12   30.80   11.90
  -7 -12 -12    9.20   12.10
   7  12  12  -12.60   11.30
  -8 -13  12   34.90   10.60
  -7 -13  12   42.60   11.10
   7 -13 -12   38.20   12.90
   7  13 -12   35.70    8.80
   6 -13 -12   -0.80    5.30
  -6 -13  12   -0.20    5.60
   6  13 -12   -3.60    5.50
   5 -13 -12   11.00    5.60
   5  13 -12   22.10    7.00
   4 -13 -12    6.70    5.30
  -4 -13  12   15.30    6.30
  -4  13  12   11.10    4.80
   4  13 -12    4.60    4.90
   3 -13 -12  121.39   12.50
   3  13 -12  132.89   12.10
  -3  13  12  122.39   10.30
   3  13 -12  128.39   11.80
   2 -13 -12   16.90    6.90
   2  13 -12   14.00    5.40
  -2  13  12   14.50    4.40
   1 -13 -12   48.50    9.40
   1  13 -12   36.70    7.40
  -1  13  12   43.90    8.40
   0 -13 -12  227.38   17.80
   0  13 -12  217.88   14.00
   0  13  12  189.48   14.40
  -1 -13 -12   32.60    8.40
   1  13  12   33.60    7.40
  -1  13 -12   41.50    7.80
   2  13  12   13.40    6.40
  -2  13 -12    6.00    4.90
  -3 -13 -12   98.69   14.20
  -3  13 -12   94.89   10.20
   3  13  12   91.49   12.90
  -4 -13 -12   -2.30    8.00
   4  13  12    6.10    8.90
  -5 -13 -12  -12.60    8.20
   5  13  12   22.40    9.50
  -6 -13 -12   87.99   17.10
   6  13  12   58.89   14.10
  -9 -14  12   -5.70   10.10
  -8 -14  12   23.20   11.10
  -7 -14  12   11.70    9.10
   7 -14 -12   13.60    9.10
  -6 -14  12   96.89   15.00
   6  14 -12  132.69   14.40
  -5 -14  12  128.99   15.20
   5 -14 -12  134.39   12.80
   5  14 -12  116.19   13.00
   4 -14 -12  123.09   12.40
  -4 -14  12  121.09   14.20
   4  14 -12  103.19   12.10
   3 -14 -12    5.20    5.60
   3  14 -12    8.00    4.70
   3  14 -12   11.80    5.70
  -3  14  12   -1.00    5.00
   2 -14 -12   14.70    6.00
   2  14 -12    5.90    4.80
  -2  14  12   13.90    6.00
   1 -14 -12    3.80    5.00
   1  14 -12    2.10    4.30
  -1  14  12    9.60    5.30
   0 -14 -12  139.29   14.90
   0  14  12  157.78   13.80
   0  14 -12  163.78   12.70
  -1 -14 -12   55.99   12.00
  -1  14 -12   49.80    8.40
   1  14  12   33.70    8.20
  -2 -14 -12   72.79   13.10
  -2  14 -12   43.70    8.40
   2  14  12   63.29   12.20
  -3 -14 -12    8.60    7.60
   3  14  12    8.20    7.50
  -3  14 -12    6.20    6.00
  -4 -14 -12    8.20    9.30
   4  14  12    5.10    7.90
  -5 -14 -12   30.20   11.90
   5  14  12   11.50   10.00
  -6 -14 -12   -8.00   12.30
   6  14  12   -7.40   11.00
  -8 -15  12    7.80   12.10
  -7 -15  12   -2.70    9.70
  -6 -15  12    4.40    7.40
  -5 -15  12   10.10    7.00
   5  15 -12   11.40    6.20
  -4 -15  12    8.00    6.60
   4 -15 -12    2.00    6.30
  -4  15  12   10.70    6.00
   4  15 -12    9.30    6.10
   3 -15 -12  110.39   12.80
   3  15 -12  136.69   13.10
   3  15 -12  115.69   12.30
  -3  15  12  120.19   12.20
   2 -15 -12    5.10    6.00
  -2  15  12    8.20    6.00
   2  15 -12   17.50    6.20
   1 -15 -12   24.50    7.70
   1  15 -12   40.40    8.20
  -1  15  12   50.19   10.10
   0 -15 -12   12.00    6.20
   0  15 -12   16.90    6.00
   0  15  12    2.10    5.90
  -1 -15 -12    6.20    7.00
   1  15  12  -13.80    5.70
  -1  15 -12    1.50    4.70
  -2 -15 -12   87.59   14.00
   2  15  12   89.79   13.70
  -2  15 -12   62.09    9.50
  -3 -15 -12   -1.20    7.60
  -3  15 -12   -1.00    6.50
   3  15  12   -6.00    7.40
  -4 -15 -12   54.59   15.30
   4  15  12   45.60   11.50
  -5 -15 -12   -0.10   10.30
   5  15  12   31.40   13.50
  -7 -16  12   38.60   11.40
  -6 -16  12   -3.50    7.40
  -5 -16  12   -5.90    6.70
   5 -16 -12    1.40   10.00
   5  16 -12   11.90   11.60
  -4 -16  12   -1.00    6.50
   4  16 -12    1.70    6.60
   3 -16 -12   65.59   12.70
   3  16 -12   81.69   11.80
  -3  16  12   65.39   13.10
   2 -16 -12   32.60    9.80
  -2  16  12   44.20    9.50
   2  16 -12   40.60    7.70
   1 -16 -12   63.09   12.10
   1  16 -12   63.19    9.80
  -1  16  12   62.59   11.60
   0  16  12   -1.80    6.50
   0  16 -12    5.90    4.70
  -1 -16 -12    6.00    8.20
   1  16  12  -14.80    6.20
  -1  16 -12    4.60    5.70
  -2 -16 -12  142.49   18.60
  -2  16 -12  164.38   13.40
   2  16  12  144.39   23.30
  -3 -16 -12   -1.10    8.90
   3  16  12    9.70    8.60
  -4 -16 -12   61.59   16.10
   4  16  12   50.89   13.50
  -5 -16 -12   13.40   11.70
   5  16  12   20.00   12.40
  -7 -17  12   51.99   22.90
  -6 -17  12   15.90   10.90
  -6  17  12    9.70    8.50
  -5 -17  12    9.80    8.10
   5 -17 -12   10.20   11.60
  -5  17  12    7.90    9.50
   5  17 -12   13.60    7.40
  -4 -17  12   72.89   13.40
   4  17 -12   78.39   13.20
   3  17 -12   82.09   11.70
   3  17 -12   86.59   13.60
   2 -17 -12   13.40    7.00
   2  17 -12   -1.70    5.30
  -2  17  12   -2.10   10.20
   1 -17 -12    4.10    8.30
  -1  17  12   19.70    7.70
   1  17 -12    3.30    6.00
   0 -17 -12    1.90    7.90
   0  17  12   22.00    8.30
  -1 -17 -12   -4.20    8.40
  -1  17 -12   -4.60    5.80
  -2 -17 -12   55.59   13.00
   2  17  12   62.59   12.50
  -3 -17 -12  101.79   19.60
   3  17  12  168.38   19.30
   4  17  12   13.70   10.90
  -6 -18  12   -7.80    9.40
   6  18 -12    4.20    8.40
  -5 -18  12  123.19   18.40
  -5  18  12  121.69   16.00
   5  18 -12  103.89   15.60
  -4 -18  12   -8.30    7.50
   4 -18 -12  -12.50    8.80
   4  18 -12   -1.20    7.20
   4  18 -12    9.40    6.30
   3  18 -12   63.29   11.10
   3  18 -12   66.39   12.70
   2  18 -12   11.70    7.70
   1 -18 -12   -2.40    8.60
  -1  18  12   10.90    9.30
   0 -18 -12    7.10    8.90
   0  18  12   -0.60    8.10
  -1 -18 -12  256.97   23.80
  -1  18 -12  279.27   17.10
   1  18  12  296.47   23.60
  -2 -18 -12  165.58   21.70
   2  18  12   96.19   17.40
  -3 -18 -12   72.09   19.30
   3  18  12  102.09   18.30
  -5 -19  12    5.10   10.80
  -5  19  12   14.60   10.70
   5  19 -12    7.70    9.20
  -4 -19  12   45.10   12.80
   4  19 -12   23.80   10.50
   4  19 -12   33.90    9.50
   3 -19 -12  -17.60    9.90
   3  19 -12   -0.90    6.40
   3  19 -12   -2.50    7.30
   1 -19 -12   25.90   13.40
   0 -19 -12   28.30   11.70
   0  19  12   27.50   11.80
   0  19 -12   36.10    8.70
  -1 -19 -12   57.49   15.20
   1  19  12   75.89   14.10
  -2 -19 -12  -24.20    9.50
   2  19  12   -4.50   10.10
   3 -20 -12   12.00   13.80
   3  20 -12   16.30    9.60
   2 -20 -12   18.20   11.80
   2  20 -12   -3.70    8.00
   1  20 -12   22.70    8.10
  11   0 -13   37.60    9.60
  10   0 -13   -0.80    6.40
   9   0 -13   58.09    6.40
   9   0 -13   70.99   11.30
   8   0 -13   -2.10    4.30
   7   0 -13  261.67   16.50
   6   0 -13   -0.60    3.30
   5   0 -13   38.70    7.50
   4   0 -13    1.00    2.90
   3   0 -13   12.70    4.70
   2   0 -13    0.80    2.90
   1   0 -13 1741.13   50.19
   1   0 -13 1678.73   37.10
   0   0  13   -1.10    1.90
   0   0 -13   -0.70    3.10
   0   0 -13    3.80    2.40
   1   0  13   38.70    5.50
  -1   0 -13   41.90    7.40
  -2   0 -13    4.10    4.20
   2   0  13    2.90    3.90
   3   0  13    7.60    4.40
  -3   0 -13    9.90    5.40
  -4   0 -13   -7.50    4.40
   4   0  13    4.20    4.40
   5   0  13  480.55   25.00
  -5   0 -13  502.35   27.60
  -6   0 -13    3.10    7.20
   6   0  13   -5.60    5.80
  -7   0 -13   51.09   11.30
   8   0  13    9.90   11.70
  -8   0 -13  -18.20   10.50
  11  -1 -13   -7.50    7.70
  11   1 -13   -3.70    7.80
  10  -1 -13   -6.40    5.90
  10   1 -13   12.80    8.70
   9  -1 -13   45.20    9.20
   9   1 -13   57.19    6.70
   9   1 -13   49.30   11.60
   8  -1 -13   73.39   10.00
   8   1 -13   86.89   10.80
   7  -1 -13   -4.30    3.50
   7   1 -13    1.30    3.70
   6  -1 -13  137.89   11.80
   6   1 -13  124.79   11.50
   5  -1 -13    3.60    2.70
   5   1 -13   -2.10    3.60
   4  -1 -13   42.50    6.90
   4   1 -13   44.90    8.30
   3  -1 -13    6.50    3.30
   3   1 -13    3.70    2.70
   2  -1 -13  136.49   11.00
   2   1 -13  131.79   10.90
   1  -1 -13   65.79    8.20
   1   1 -13   79.19    4.60
   1   1 -13   76.99    9.10
   0  -1 -13  271.27   10.70
   0  -1 -13  237.08   15.50
   0  -1  13  267.27   11.10
   0   1 -13  258.37   11.70
   0   1 -13  276.37   16.20
   0   1  13  264.47   10.60
  -1  -1 -13   31.10    7.00
   1  -1  13   26.00    4.70
  -1   1 -13   27.40    6.50
   1   1  13   28.10    5.20
  -2  -1 -13  386.26   21.00
   2  -1  13  384.86   17.80
  -2   1 -13  381.86   20.70
   2   1  13  360.26   17.20
  -3  -1 -13   10.00    6.30
   3  -1  13    6.60    3.80
  -3   1 -13   10.80    5.20
   3   1  13   -1.90    3.20
  -4  -1 -13  249.88   18.30
   4  -1  13  270.27   17.20
  -4   1 -13  258.27   18.70
   4   1  13  234.18   16.60
   5  -1  13   10.70    5.90
  -5  -1 -13   21.10    7.50
  -5   1 -13    7.40    7.10
   5   1  13   21.40    7.20
   6  -1  13   15.10    7.60
  -6  -1 -13   17.30   11.70
  -6   1 -13    6.30    8.40
   6   1  13   21.30    8.30
  -7  -1 -13   17.00   10.20
  -7   1 -13   20.30    9.50
   7   1  13   32.10   15.00
  -8  -1 -13   11.80   12.50
   8  -1  13   20.70   11.40
  -8   1 -13   18.20   10.50
   8   1  13   19.20   11.10
  11  -2 -13   12.60    8.80
  11   2 -13    1.60    8.40
  10  -2 -13    6.30    7.60
  10   2 -13    4.50    6.50
   9  -2 -13    7.20    6.10
   9   2 -13   -1.80    4.00
   9   2 -13   -4.10    4.80
   8  -2 -13   18.20    6.40
   8   2 -13   11.30    3.30
   8   2 -13   13.50    6.40
   7  -2 -13   62.29    8.50
   7   2 -13   64.99    9.10
   6  -2 -13   -2.00    3.00
   6   2 -13    5.00    4.00
   5  -2 -13  163.38   12.30
   5   2 -13  150.78   12.50
   4  -2 -13  546.05   23.70
   4   2 -13  566.54   24.30
   3  -2 -13   52.99    7.40
   3   2 -13   42.20    6.70
   2  -2 -13  189.78   13.20
   2   2 -13  219.88   13.90
   1  -2 -13  247.08   15.20
   1   2 -13  210.88   14.00
   1   2 -13  237.68    9.10
   0  -2 -13    2.00    3.50
   0  -2 -13    3.80    2.40
   0   2  13    1.60    2.10
   0   2 -13    2.30    3.70
  -1  -2 -13   99.89   10.90
   1  -2  13  124.09    8.50
  -1   2 -13   96.69   10.00
   1   2  13   98.79    8.00
   2  -2  13  293.27   15.20
  -2  -2 -13  282.57   18.00
   2   2  13  275.07   15.00
  -2   2 -13  296.47   18.00
  -3  -2 -13   43.40    8.50
   3  -2  13   41.20    7.60
  -3   2 -13   43.00    8.70
   3   2  13   42.30    8.30
  -4  -2 -13   57.29   10.60
   4  -2  13   66.99   10.10
  -4   2 -13   67.09   10.90
   4   2  13   53.49    9.90
  -5  -2 -13  120.69   14.70
   5  -2  13   93.99   12.20
   5   2  13  101.79   12.90
  -5   2 -13   92.59   13.30
  -6  -2 -13   -3.20    7.40
   6  -2  13    1.00    7.70
  -6   2 -13   18.30    9.10
   6   2  13   17.80    7.20
   7  -2  13    3.90   13.90
  -7  -2 -13   -2.40    9.10
  -7   2 -13   17.90   10.50
   7   2  13   15.90   10.70
   8  -2  13   23.90   11.80
  -8  -2 -13    0.60   11.00
   8   2  13   21.70   10.60
 -11  -3  13   28.40   10.10
  11   3 -13    2.20    8.80
  10  -3 -13   30.90    9.40
 -10  -3  13   28.40   10.40
  10   3 -13   21.10    8.50
  -9  -3  13    3.30    6.60
   9  -3 -13   -7.20    5.10
   9   3 -13    1.70    4.40
   9   3 -13    4.50    5.70
   8  -3 -13   13.10    5.40
   8   3 -13    7.80    3.50
   8   3 -13   12.10    5.50
   7  -3 -13   60.19    8.70
   7   3 -13   74.59    9.80
   7   3 -13   67.59    5.70
   6  -3 -13  103.49   10.00
   6   3 -13  109.49   11.00
   5  -3 -13   19.50    4.40
   5   3 -13   23.40    5.90
   4  -3 -13   26.40    5.80
   4   3 -13   33.20    6.60
   3  -3 -13  263.97   15.80
   3   3 -13  271.57   15.90
   2  -3 -13   39.60    6.70
   2   3 -13   32.60    3.00
   2   3 -13   41.50    6.60
   1  -3 -13   17.70    5.80
  -1   3  13   15.60    2.20
   1   3 -13   22.20    3.80
   1   3 -13   19.90    5.70
   0  -3 -13  246.28   15.90
   0   3 -13  242.18   14.90
   0   3 -13  212.18   11.30
   0   3  13  236.78   10.20
   1  -3  13   37.40    5.70
  -1  -3 -13   39.70    7.80
  -1   3 -13   44.20    7.50
   1   3  13   46.80    6.10
   2  -3  13    2.70    3.70
  -2  -3 -13   -3.60    3.60
   2   3  13   -5.10    3.20
  -2   3 -13    1.40    3.70
   3  -3  13   19.20    6.40
  -3  -3 -13   14.60    6.00
   3   3  13    2.00    3.80
  -3   3 -13    8.90    5.30
  -4  -3 -13   37.20    9.10
   4  -3  13   25.40    7.00
   4   3  13   33.40    7.90
  -4   3 -13   26.20    8.50
   5  -3  13   28.10    9.00
  -5  -3 -13   28.10    9.60
   5   3  13   26.10    7.90
  -5   3 -13   41.90    9.00
  -6  -3 -13    5.10    7.70
   6  -3  13   16.70   14.20
  -6   3 -13    2.10    7.00
   6   3  13    6.10    6.40
  -7  -3 -13   19.50   10.50
   7  -3  13   12.50    9.40
   7   3  13   37.20   10.70
  -7   3 -13   18.40   13.20
  -8  -3 -13   -7.20   10.90
   8  -3  13   13.80   10.40
   8   3  13   25.10   11.20
 -11  -4  13   27.80   11.20
 -10  -4  13    2.60    9.30
  10   4 -13   20.10    7.40
   9  -4 -13    3.10    5.50
  -9  -4  13   -0.50    7.30
   9   4 -13   -9.60    4.70
   8  -4 -13   79.49   10.10
   8   4 -13   96.89   16.00
   8   4 -13   77.39    7.40
   7  -4 -13  291.27   17.20
   7   4 -13  323.67   19.30
   7   4 -13  313.57   12.40
   6  -4 -13   35.00    7.50
   6   4 -13   35.40    7.60
   6   4 -13   25.90    3.50
   5  -4 -13   80.89    9.00
   5   4 -13   85.09    3.70
   5   4 -13   87.19    9.40
   4  -4 -13    5.60    3.50
   4   4 -13   10.40    4.40
   3  -4 -13   42.90    7.40
   3   4 -13   51.99    3.40
   3   4 -13   45.00    7.30
   3   4 -13   51.59    3.20
   2  -4 -13    6.40    4.30
   2   4 -13    7.00    2.20
   2   4 -13    6.60    3.60
   1  -4 -13  421.56   21.20
   1   4 -13  432.16   18.00
  -1   4  13  423.86   12.20
   1   4 -13  420.76   19.90
   0  -4 -13   -0.30    3.30
   0   4 -13   -3.20    2.80
   0   4  13    2.10    2.60
  -1  -4 -13   23.40    6.90
  -1   4 -13   17.70    5.60
   1   4  13    7.60    3.80
   2  -4  13   17.80    4.80
  -2  -4 -13   32.70    8.30
   2   4  13   26.20    5.90
  -2   4 -13   19.60    5.70
  -3  -4 -13  267.27   18.50
   3  -4  13  279.17   16.60
  -3   4 -13  265.47   17.50
   3   4  13  276.67   17.00
  -4  -4 -13  144.29   15.30
   4  -4  13  151.28   13.70
   4   4  13  163.78   14.30
  -4   4 -13  146.89   14.40
   5  -4  13  182.18   16.30
  -5  -4 -13  189.78   27.20
   5   4  13  179.28   16.20
  -5   4 -13  148.69   15.40
   6  -4  13   34.20   10.10
  -6  -4 -13   38.70   11.40
  -6   4 -13   41.60   10.50
  -7  -4 -13   18.20   11.40
   7  -4  13   33.70   11.70
   7   4  13   18.70   10.30
   8  -4  13   55.79   13.80
  -8  -4 -13   55.29   14.10
 -11  -5  13  -13.00   10.10
 -10  -5  13   -5.20    8.50
  10   5 -13    3.30    7.90
  -9  -5  13   35.40   10.80
   9  -5 -13   64.99   10.10
   9   5 -13   59.39    9.10
  -8  -5  13    1.70    6.80
   8  -5 -13    1.70    4.50
   8   5 -13    6.00    4.20
  -7  -5  13   14.70    6.60
   7  -5 -13   10.20    4.60
   7   5 -13   17.20    4.00
   7   5 -13    3.30    4.70
   6  -5 -13  377.56   18.80
   6   5 -13  332.97   19.50
   6   5 -13  328.47   12.50
   5  -5 -13   45.00    7.30
   5   5 -13   45.60    7.90
   5   5 -13   42.20    4.20
   4  -5 -13   34.70    7.50
   4   5 -13   29.30    6.90
   4   5 -13   31.00    3.60
   3  -5 -13   15.10    4.60
   3   5 -13   16.80    3.10
   3   5 -13   20.40    3.50
   3   5 -13   21.70    5.80
   2  -5 -13  443.06   21.50
   2   5 -13  465.75   21.10
   2   5 -13  411.56   14.60
   1  -5 -13    6.40    4.20
  -1   5  13    2.00    2.00
   1   5 -13    6.00    3.20
   1   5 -13    2.30    2.60
   0  -5 -13   79.99    9.80
   0   5 -13   99.69   10.00
   0   5  13   82.29    6.60
  -1  -5 -13   53.09   10.30
  -1   5 -13   28.30    6.40
   1   5  13   26.70    5.40
   2  -5  13    0.90    3.90
  -2  -5 -13    1.70    4.00
   2   5  13    0.90    3.50
  -2   5 -13   -5.00    3.20
   3  -5  13   -0.30    4.00
  -3  -5 -13   10.30    5.40
   3   5  13    8.70    5.50
  -3   5 -13    1.20    4.00
  -4  -5 -13  317.37   22.40
   4  -5  13  315.47   19.20
   4   5  13  315.47   19.60
  -4   5 -13  293.97   19.40
  -5  -5 -13   -8.80    5.60
   5  -5  13    0.00    5.90
  -5   5 -13   -9.10    5.60
   5   5  13   -3.80    5.40
  -6  -5 -13    8.80    7.80
   6   5  13   14.70    7.60
  -6   5 -13   28.00    9.30
  -7  -5 -13   -6.90    9.00
   7  -5  13    3.20    8.60
   7   5  13   -6.40    7.90
   8  -5  13   10.20   11.40
  -8  -5 -13    4.10   10.60
  -8   5 -13   -6.90   10.80
   8   5  13    3.90   11.30
  11  -6 -13   21.50    9.40
 -10  -6  13   -7.60    8.60
  10   6 -13    3.40    6.90
  -9  -6  13    1.90    8.10
   9  -6 -13   -5.00    5.20
  -8  -6  13    6.40    7.00
   8  -6 -13    7.50    4.90
   8   6 -13    5.10    4.50
  -7  -6  13   98.29   13.40
   7  -6 -13  116.49   11.20
   7   6 -13  111.09   12.60
  -6  -6  13   12.70    6.00
   6  -6 -13   21.90    6.30
   6   6 -13   14.40    3.90
   6   6 -13   25.30    6.60
   5  -6 -13  289.27   16.30
   5   6 -13  258.87   11.10
   5   6 -13  251.67   16.30
   4  -6 -13  129.79   11.30
   4   6 -13  113.49   10.70
   4   6 -13  117.99    7.10
   3  -6 -13  254.97   16.10
   3   6 -13  269.57   10.90
   3   6 -13  273.07   16.40
   2  -6 -13  213.68   14.50
   2   6 -13  201.08   13.70
  -2   6  13  184.38    5.70
   1  -6 -13   43.80    7.70
   1   6 -13   63.99    8.20
  -1   6  13   53.89    7.10
   0  -6 -13   34.30    7.60
   0   6  13   40.50    5.70
   0   6 -13   45.00    7.10
  -1  -6 -13   50.99    8.40
   1   6  13   38.90    6.90
  -1   6 -13   48.40    7.90
  -2  -6 -13  101.09   12.50
   2   6  13   90.29    9.80
  -2   6 -13   95.59   10.40
   3  -6  13  289.67   17.40
  -3  -6 -13  262.47   19.90
  -3   6 -13  253.07   16.70
   3   6  13  291.97   17.80
  -4  -6 -13   45.00   10.20
   4  -6  13   58.29    9.70
   4   6  13   50.19   10.10
  -4   6 -13   49.00   10.10
  -5  -6 -13   38.00    9.90
   5  -6  13   38.30    8.80
   5   6  13   58.79   11.60
  -5   6 -13   61.59   11.40
  -6  -6 -13   -2.60    7.40
   6   6  13   -3.90    7.00
  -6   6 -13   11.10    8.20
  -7  -6 -13   -1.50    9.40
   7  -6  13    1.20    7.60
   7   6  13    1.80    8.60
   8  -6  13   -1.80   13.00
   8   6  13    4.60   11.20
 -10  -7  13   36.60   11.40
  10   7 -13   29.00    9.00
  -9  -7  13   17.20    8.10
   9  -7 -13   18.10    6.10
   9   7 -13   22.10    7.40
   8  -7 -13  141.39   12.80
  -8  -7  13  136.79   15.80
   8   7 -13  139.29   11.40
   7  -7 -13    5.90    5.50
   7   7 -13    1.80    4.00
   6  -7 -13  174.08   13.30
  -6  -7  13  184.88   16.40
   6   7 -13  169.38   14.20
   6   7 -13  191.68   10.90
   5  -7 -13   54.69    8.00
   5   7 -13   42.40    8.90
   5   7 -13   45.50    5.90
   4  -7 -13   -2.90    3.30
   4   7 -13    5.30    3.70
   4   7 -13    1.50    2.30
   3  -7 -13    9.40    4.50
   3   7 -13   16.70    5.70
   3   7 -13   17.70    3.80
   2  -7 -13  577.24   25.40
   2   7 -13  540.05   23.90
  -2   7  13  565.54   15.90
   1  -7 -13    3.20    3.60
  -1   7  13   -0.30    2.60
   1   7 -13    1.40    3.00
   0  -7 -13  240.78   17.10
   0   7 -13  249.08   15.20
   0   7  13  239.28   12.30
  -1  -7 -13   45.00    9.20
   1   7  13   43.20    6.80
  -1   7 -13   38.30    7.50
  -2  -7 -13   40.30    8.90
  -2   7 -13   53.89    8.50
   2   7  13   64.39    9.10
  -3  -7 -13   -4.00    4.90
   3   7  13    1.80    4.70
  -3   7 -13    1.50    4.70
   4  -7  13   58.69   10.00
  -4   7 -13   66.69   11.00
   4   7  13   73.79   11.80
   5  -7  13   -5.80    5.40
  -5  -7 -13    0.10    6.60
  -5   7 -13    6.20    6.60
   5   7  13    1.60    6.10
  -6  -7 -13   32.30   10.80
   6   7  13   36.30   10.30
  -7  -7 -13    4.20   10.20
   7  -7  13    4.80    8.70
   7   7  13   15.40   10.90
  -7   7 -13   -6.10    9.50
 -10  -8  13    8.10    9.90
  10  -8 -13   12.00    8.20
  -9  -8  13   14.70    8.80
   9   8 -13    3.70    7.30
  -8  -8  13   35.80   10.50
   8  -8 -13   21.10    6.90
   8   8 -13   28.60    9.00
  -7  -8  13   30.80    7.90
   7  -8 -13   48.80    9.00
   7   8 -13   44.00    8.30
   6  -8 -13   44.30    8.40
  -6  -8  13   37.00    8.80
  -6   8  13   43.50    3.60
   6   8 -13   49.50    7.10
   5  -8 -13  134.89   11.90
   5   8 -13  141.29   12.80
   5   8 -13  130.29    9.20
   4  -8 -13   43.20    7.50
   4   8 -13   52.29    6.20
   4   8 -13   35.20    7.90
   3  -8 -13   57.69    8.20
   3   8 -13   59.79    8.00
  -3   8  13   51.79    4.50
   3   8 -13   59.69    6.40
   2  -8 -13  104.29   10.70
  -2   8  13  127.39    7.50
   2   8 -13  101.89   10.30
  -2   8  13  121.69    7.20
   1  -8 -13   80.89   10.40
   1   8 -13   82.09    9.10
  -1   8  13   78.59    6.90
   0  -8 -13   68.89    9.60
   0   8 -13   73.99    8.90
   0   8  13   59.69    7.20
  -1  -8 -13   -3.90    4.50
  -1   8 -13    2.10    3.50
   1   8  13    3.10    4.10
  -2  -8 -13   35.50    8.90
   2   8  13   35.00    7.70
  -2   8 -13   30.80    7.50
  -3  -8 -13   88.29   12.90
  -3   8 -13   67.89   10.00
   3   8  13   64.69   10.30
  -4  -8 -13    1.20    6.70
   4   8  13    6.40    6.00
  -4   8 -13    2.70    5.50
   5  -8  13    4.70   11.60
  -5  -8 -13    7.80    7.40
  -5   8 -13   31.30    8.60
   5   8  13   27.10    9.20
   6  -8  13    1.30    9.90
  -6  -8 -13   28.80   10.10
   6   8  13   30.70   11.40
  -7  -8 -13   -3.50   11.30
   7  -8  13   12.80   10.50
   7   8  13   -2.40    9.90
  -7   8 -13  -16.40    9.20
 -10  -9  13    3.90    9.80
  10  -9 -13    1.80    8.90
  -9  -9  13   32.80   10.20
   9   9 -13   35.90    9.40
   8  -9 -13   15.80    6.50
  -8  -9  13    8.70    6.40
   8   9 -13   14.90    6.40
  -7  -9  13   15.20    7.60
   7  -9 -13   15.50    6.20
   7   9 -13   14.00    9.30
  -6  -9  13  137.29   15.70
   6  -9 -13  162.18   13.10
   6   9 -13  136.19   11.10
  -5  -9  13   62.19   10.90
   5  -9 -13   58.19    8.80
  -5   9  13   49.10    5.90
   5   9 -13   61.39    8.60
   5   9 -13   49.80    7.30
  -5   9  13   53.59    4.80
   4  -9 -13   -1.40    3.80
  -4   9  13    1.50    3.10
   4   9 -13    2.50    3.50
   4   9 -13   -2.10    3.70
   3  -9 -13    7.30    4.60
  -3   9  13   14.10    4.00
   3   9 -13    9.60    5.00
   3   9 -13   12.80    4.40
  -3   9  13   13.60    3.50
   2  -9 -13  175.48   13.70
  -2   9  13  126.99   11.00
   2   9 -13  149.39   12.20
  -2   9  13  160.68    9.10
   1  -9 -13   95.49   11.10
   1   9 -13   81.59    9.40
  -1   9  13   80.09    7.60
   0  -9 -13  175.88   14.80
   0   9 -13  167.38   13.00
   0   9  13  165.88   11.50
  -1  -9 -13   11.10    6.10
   1   9  13    9.00    4.80
  -1   9 -13    3.70    4.10
  -2  -9 -13   19.40    8.50
   2   9  13   16.80    6.10
  -2   9 -13   10.10    5.60
  -3  -9 -13   -0.60    5.80
  -3   9 -13    7.40    5.80
   3   9  13   -4.60    5.40
  -4  -9 -13   20.70    8.10
   4   9  13   53.89   10.60
  -4   9 -13   52.19   10.40
  -5  -9 -13   -1.10    8.50
  -5   9 -13   -1.30    6.60
   5   9  13   -6.90    7.40
  -6  -9 -13   -5.10    9.50
   6   9  13   -1.00    7.90
  -6   9 -13    6.80    8.80
  -7  -9 -13    7.10   10.80
   7  -9  13  -12.60    8.60
   7   9  13   -3.10    9.70
 -10 -10  13    2.80    9.30
   9 -10 -13    3.50    7.50
  -9 -10  13  -10.50    7.00
   9  10 -13   19.90    9.80
  -8 -10  13    2.50    6.60
   8  10 -13   -3.40    6.10
   7 -10 -13  148.29   12.80
  -7 -10  13  147.39   17.10
   7  10 -13  132.29   12.10
  -6 -10  13    1.00    5.80
   6 -10 -13    1.80    4.90
  -6  10  13    1.50    3.50
  -5 -10  13    4.20    4.90
   5 -10 -13   -0.70    4.00
   5  10 -13   -1.30    3.40
  -5  10  13   -5.30    7.60
   5  10 -13    1.60    3.70
  -5  10  13   -1.60    3.10
   4 -10 -13   45.80    8.50
  -4  10  13   50.19    7.30
   4  10 -13   36.20    7.60
   4  10 -13   41.80    7.20
   3 -10 -13    1.50    4.30
   3  10 -13    5.10    3.40
  -3  10  13    3.50    3.60
   3  10 -13    3.10    3.70
   2 -10 -13   -0.30    4.40
  -2  10  13    2.30    4.60
   2  10 -13    3.70    3.50
  -2  10  13   -0.70    3.00
   1 -10 -13  474.85   24.80
  -1  10  13  499.35   19.60
   1  10 -13  477.25   22.30
   0 -10 -13    1.70    4.90
   0  10 -13    1.90    3.80
   0  10  13    3.90    3.70
  -1 -10 -13  145.29   15.20
   1  10  13  146.49   14.80
  -1  10 -13  128.89   11.80
  -2 -10 -13   11.50    7.20
   2  10  13   15.10    7.30
  -2  10 -13   13.50    5.80
  -3 -10 -13   22.30    8.70
  -3  10 -13   31.80    7.30
   3  10  13   13.60    7.20
  -4 -10 -13   -2.10    7.00
   4  10  13    4.90    7.20
  -4  10 -13   -2.20    5.70
  -5 -10 -13  132.49   17.00
  -5  10 -13   97.49   13.70
   5  10  13  114.89   16.00
  -6 -10 -13   56.39   13.60
  -6  10 -13   43.20   10.80
   6  10  13   45.60   12.10
  -7 -10 -13   25.50   13.40
   7  10  13   -4.20   10.40
   9 -11 -13   -0.30    7.80
  -9 -11  13    6.60    8.10
   9  11 -13    7.20    8.70
   8 -11 -13   96.89   12.70
  -8 -11  13   96.19   15.50
   7 -11 -13   14.00    6.80
  -7 -11  13   25.10   10.10
   7  11 -13   24.90    7.10
   6 -11 -13   21.70    6.90
  -6 -11  13   35.00    9.70
   6  11 -13   31.50    6.70
  -6  11  13   11.70    4.80
   5 -11 -13    8.50    5.40
  -5 -11  13   -0.30    5.40
  -5  11  13    2.00    6.50
   5  11 -13    3.00    4.50
   4 -11 -13   40.50    8.20
   4  11 -13   89.09   10.60
   4  11 -13   53.49    8.50
  -4  11  13   42.50    6.60
   3 -11 -13   34.50    7.60
  -3  11  13   34.10    6.40
   3  11 -13   55.99    8.00
  -3  11  13   35.60    7.80
   3  11 -13   32.50    6.40
   2 -11 -13  119.79   12.40
   2  11 -13  126.59   11.80
  -2  11  13  116.99    9.60
   1 -11 -13   35.90    8.10
   1  11 -13   21.70    5.90
  -1  11  13   24.10    5.50
   0 -11 -13  119.39   13.70
   0  11  13  131.69   11.40
   0  11 -13  149.59   12.50
  -1 -11 -13  135.69   14.60
  -1  11 -13  138.69   11.80
   1  11  13  123.19   12.10
  -2 -11 -13  157.58   20.90
  -2  11 -13  154.18   13.40
   2  11  13  157.58   14.10
  -3 -11 -13   11.90    8.90
   3  11  13   12.30    8.20
  -3  11 -13   23.00    6.60
  -4 -11 -13   39.50   10.70
   4  11  13   32.90   10.70
  -4  11 -13   29.50    8.70
  -5 -11 -13   23.80   11.10
   5  11  13   -0.60    8.10
  -5  11 -13   29.90    9.10
  -6 -11 -13   -6.90   11.00
   6  11  13   36.00   12.70
   9  12 -13  -13.80   10.30
  -8 -12  13   26.80    9.40
   8 -12 -13   30.40    8.30
  -7 -12  13   71.79   14.10
  -6 -12  13   20.10    7.70
   6 -12 -13    6.20    5.90
   6  12 -13   10.90    5.70
  -6  12  13   19.40    5.80
  -5 -12  13  202.58   18.30
   5 -12 -13  193.38   14.90
   5  12 -13  177.28   13.90
   4 -12 -13   39.10    9.30
   4  12 -13   57.39    9.10
   4  12 -13   39.90    7.70
   3 -12 -13  148.69   13.80
   3  12 -13  142.99   12.80
  -3  12  13  145.29   10.00
   3  12 -13  171.88   12.70
   2 -12 -13   11.80    6.40
   2  12 -13    5.20    4.00
  -2  12  13    3.70    4.30
   1 -12 -13   58.89   10.10
  -1  12  13   54.89    8.10
   1  12 -13   57.59    8.50
   0 -12 -13   16.10    7.90
   0  12  13    5.60    4.80
   0  12 -13    7.80    4.80
  -1 -12 -13  232.58   19.40
   1  12  13  255.87   17.20
  -1  12 -13  251.87   16.10
  -2 -12 -13    3.10    6.70
   2  12  13   13.40    6.80
  -2  12 -13    2.40    5.20
  -3 -12 -13   88.69   14.50
  -3  12 -13  127.19   12.90
   3  12  13  114.19   15.30
  -4 -12 -13    9.20    7.20
  -4  12 -13    4.70    6.40
  -5 -12 -13   -2.80    7.50
   5  12  13   22.40   10.10
  -6 -12 -13   35.90   21.90
   6  12  13   76.79   16.60
  -9 -13  13    0.90    9.90
  -8 -13  13   67.59   15.60
   7 -13 -13   31.20    8.70
  -7 -13  13   23.70    9.10
  -6 -13  13   78.59   13.70
  -6  13  13   57.79    9.50
   5 -13 -13   56.09   10.10
  -5 -13  13   49.99   11.00
  -5  13  13   42.90    8.10
   5  13 -13   55.59   10.00
   4 -13 -13    4.50    5.80
   4  13 -13    5.20    6.40
  -4  13  13    9.90    4.80
   4  13 -13    3.00    5.10
   3 -13 -13   24.70    7.20
   3  13 -13   16.20    6.20
   3  13 -13   29.60    6.70
  -3  13  13   22.90    5.70
   2 -13 -13   33.80    8.80
  -2  13  13   22.40    7.00
   2  13 -13   23.00    5.20
   1 -13 -13    0.40    5.40
  -1  13  13   -3.60    4.70
   1  13 -13    6.90    5.10
   0 -13 -13   32.10    9.00
   0  13 -13   32.50    7.00
   0  13  13   28.80    7.00
  -1 -13 -13   42.50   14.10
   1  13  13   42.30    8.90
  -1  13 -13   23.20    6.40
  -2 -13 -13   13.70    8.30
  -2  13 -13    9.20    5.80
   2  13  13    8.80    6.80
  -3 -13 -13   16.00    8.70
  -3  13 -13   28.50    7.10
   3  13  13   27.00    9.50
  -4 -13 -13  127.69   18.70
   4  13  13  110.99   16.80
  -4  13 -13  127.59   13.10
  -5 -13 -13  110.49   20.60
   5  13  13   65.79   13.60
  -8 -14  13    3.10   10.40
   7 -14 -13   38.00   11.00
  -7 -14  13   44.30   11.90
  -6 -14  13    2.70    7.50
   6 -14 -13    6.00    7.20
  -6  14  13   -3.40    8.30
  -5 -14  13    3.10    5.90
  -5  14  13   14.00    9.20
   4 -14 -13   23.30    7.60
   4  14 -13   58.49    9.40
   4  14 -13   56.69   10.00
   3 -14 -13    4.60    6.10
   3  14 -13   -1.90    4.50
   3  14 -13    5.70    4.80
   2 -14 -13   20.60    8.10
   2  14 -13   25.90    6.40
   1 -14 -13  163.88   16.40
   1  14 -13  161.68   13.30
  -1  14  13  193.78   14.70
   0 -14 -13   14.70    6.90
   0  14  13    4.70    6.20
   0  14 -13   16.80    6.30
  -1 -14 -13   14.70    7.50
  -1  14 -13   15.00    6.20
   1  14  13   40.80    9.40
  -2 -14 -13   16.50    8.30
   2  14  13    2.20    6.80
  -2  14 -13    9.70    5.90
  -3 -14 -13   20.10   10.60
  -3  14 -13   20.60    8.00
  -4 -14 -13  107.49   19.20
   4  14  13  111.89   18.60
   5  14  13   24.50   13.40
  -8 -15  13   -2.80    9.20
   8  15 -13    3.50   10.90
  -7 -15  13    3.70    8.40
  -6 -15  13  263.37   22.70
   6 -15 -13  190.88   16.50
  -6  15  13  192.08   15.40
  -5 -15  13   13.70    8.50
  -5  15  13   11.40    8.20
   4 -15 -13   -4.00    5.80
   4  15 -13    8.10    6.00
   4  15 -13   14.30    6.90
   3 -15 -13    6.50    6.20
   3  15 -13   11.20    5.70
   3  15 -13   10.90    6.20
   2 -15 -13  115.19   14.60
   2  15 -13   97.09   11.20
  -2  15  13   82.19   12.20
   1 -15 -13   12.50    7.80
   1  15 -13   10.70    6.10
  -1  15  13    1.30    5.90
   0 -15 -13   16.00    8.60
   0  15  13   35.60    9.60
   0  15 -13   39.30    8.20
  -1 -15 -13   75.49   14.20
  -1  15 -13   76.29   10.10
   1  15  13   86.69   13.70
  -2 -15 -13   37.40   10.30
  -2  15 -13   42.00    8.80
   2  15  13   35.20   10.00
  -3 -15 -13   -3.50    8.60
  -3  15 -13   12.00    7.50
   3  15  13   -8.60    8.30
  -4 -15 -13  294.97   28.00
   4  15  13  328.07   25.50
  -7 -16  13  -21.50   15.20
  -6 -16  13  -12.50    7.90
   6 -16 -13    2.40   10.10
  -6  16  13   -3.80    7.80
   5 -16 -13   17.80    8.10
  -5 -16  13   23.60    8.10
  -5  16  13    5.70    8.10
   4  16 -13   90.79   12.40
  -4  16  13   76.49   12.10
   3 -16 -13    7.80    7.20
   3  16 -13   17.40    6.80
   3  16 -13   17.10    6.70
   2 -16 -13   23.50    9.20
   2  16 -13   45.00   12.60
   1 -16 -13    9.40    9.00
   1  16 -13    0.70    5.00
   0 -16 -13   26.80   10.50
   0  16 -13   38.10    8.00
   0  16  13    8.50    8.00
  -1 -16 -13    2.10    8.10
   1  16  13    6.30    8.40
  -2 -16 -13  138.19   20.10
  -2  16 -13  164.68   14.40
   2  16  13  147.49   17.50
  -3 -16 -13  169.98   20.60
   3  16  13  158.58   19.00
  -4 -16 -13   -2.70   20.10
   4  16  13   -9.40   10.20
  -6 -17  13    5.40   10.70
   5 -17 -13   -4.00   10.60
  -5 -17  13   -4.30    7.50
  -5  17  13   21.90    9.50
   5  17 -13    7.70    7.40
   4  17 -13   46.80   10.10
  -4  17  13   33.70    9.00
   3  17 -13   22.90    7.40
   3  17 -13   22.40    7.00
   2  17 -13   50.99    9.80
   1 -17 -13    3.30    8.30
   0 -17 -13   49.10   13.20
  -1 -17 -13   27.50   10.90
   1  17  13   25.30   10.10
  -1  17 -13   36.40    8.50
  -2 -17 -13    4.50   10.70
   2  17  13   27.10   10.60
  -3 -17 -13    3.80   12.00
   3  17  13   35.60   11.70
  -5 -18  13   38.70   12.80
   5  18 -13   35.90    9.70
  -5  18  13   28.20   12.40
   4 -18 -13   18.40   10.80
   4  18 -13   21.50    8.10
  -4  18  13    9.60    9.30
   3  18 -13   16.80    7.20
   3  18 -13   28.50    9.30
  -3  18  13   27.10   11.00
   2  18 -13  101.29   12.80
   1 -18 -13   39.90   12.60
   0 -18 -13  100.29   18.30
   0  18 -13  111.79   13.20
  -1 -18 -13   12.10   11.30
  -2 -18 -13    6.00   11.60
   2  18  13    3.30   13.40
   3 -19 -13   56.69   13.50
   3  19 -13   73.49   14.10
   3  19 -13   69.99   12.30
  -3  19  13   73.69   12.80
   2  19 -13   29.40   10.30
   1  19 -13   -2.10    6.40
   0 -19 -13   -8.50   11.00
  11   0 -14    5.90    9.30
  10   0 -14  108.59   14.50
   9   0 -14   -5.40    5.60
   8   0 -14   34.00    8.30
   7   0 -14    0.50    5.00
   6   0 -14   16.90    5.50
   5   0 -14    1.00    3.60
   4   0 -14  334.47   18.40
   3   0 -14    1.40    3.40
   2   0 -14  650.43   27.10
   1   0 -14    0.50    3.60
   0   0 -14   70.69    8.50
   0   0  14   69.79    5.80
  -1   0 -14    1.50    4.70
   1   0  14    0.10    2.90
  -2   0 -14  158.78   13.90
   2   0  14  176.48   12.30
   3   0  14   -3.20    4.10
  -3   0 -14    3.40    4.10
  -4   0 -14  328.07   21.90
   4   0  14  309.67   19.40
  -5   0 -14   -1.30    6.50
   5   0  14    0.60    6.00
  -6   0 -14  168.38   18.70
   6   0  14  139.39   16.40
  -7   0 -14    9.90   10.60
   7   0  14    0.90    9.00
  11  -1 -14   28.00   11.80
  11   1 -14   35.90   10.20
  10  -1 -14   29.80    8.60
  10   1 -14   21.20    7.10
   9  -1 -14   30.30    8.10
   9   1 -14   12.10    6.30
   8  -1 -14   97.49   11.10
   8   1 -14   78.69   11.40
   7  -1 -14   58.89    9.80
   7   1 -14   62.59    9.60
   6  -1 -14    0.80    3.90
   6   1 -14   -1.80    3.70
   5  -1 -14  417.06   21.10
   5   1 -14  469.25   22.80
   4  -1 -14    2.10    3.90
   4   1 -14    0.50    3.60
   3  -1 -14   59.49    7.90
   3   1 -14   60.49    8.00
   2  -1 -14   30.30    6.80
   2   1 -14   47.70    7.40
   1  -1 -14  119.99   11.40
   1   1 -14  119.39    5.20
   1   1 -14  109.79   11.00
   0  -1 -14    3.00    3.60
   0   1 -14   -1.50    3.80
   0   1  14    1.00    2.30
  -1  -1 -14   93.29   10.80
   1  -1  14  101.29    8.20
   1   1  14  102.39    8.10
  -1   1 -14  102.49   11.20
   2  -1  14   83.49    8.90
  -2  -1 -14   97.99   11.40
   2   1  14   84.09    9.10
  -2   1 -14  104.49   11.30
  -3  -1 -14   11.50    6.00
   3  -1  14    7.60    4.90
  -3   1 -14    8.20    5.60
   3   1  14    1.80    4.70
   4  -1  14   61.59   11.00
  -4  -1 -14   81.49   12.20
   4   1  14   57.79   10.10
  -4   1 -14   73.09   12.00
   5  -1  14  100.79   13.70
   5   1  14  127.49   14.70
  -5   1 -14  103.19   15.30
   6  -1  14   29.10    9.00
  -6  -1 -14   29.40   11.30
  -6   1 -14    8.10    9.40
   6   1  14   13.10    8.40
  -7  -1 -14    9.00    9.80
   7  -1  14   21.00   10.30
   7   1  14   32.20    9.90
  -7   1 -14   39.30   12.50
  11  -2 -14    3.20    8.50
  11   2 -14  -10.40    8.20
  10  -2 -14  151.98   15.30
  10   2 -14  146.99   15.90
   9  -2 -14    2.60    6.50
   9   2 -14    4.10    5.20
   8  -2 -14    0.00    4.60
   7  -2 -14   41.10    8.00
   7   2 -14   13.30    6.90
   6  -2 -14  370.36   19.30
   6   2 -14  326.57   19.30
   5  -2 -14   -0.20    3.40
   5   2 -14    2.20    4.30
   4  -2 -14   88.09   10.00
   4   2 -14   76.79    9.10
   3  -2 -14   10.50    4.60
   3   2 -14   14.80    4.70
   2  -2 -14   22.10    6.00
   2   2 -14   30.70    6.80
   1  -2 -14   94.19   10.40
   1   2 -14   91.99    5.40
   1   2 -14  103.79    9.90
   0  -2 -14  356.56   20.00
   0   2 -14  361.46   19.50
   0   2  14  380.86   13.40
  -1  -2 -14    1.00    3.00
   1  -2  14   -1.70    2.80
   1   2  14    3.80    3.10
  -1   2 -14   -0.70    3.80
  -2  -2 -14    6.60    5.10
   2  -2  14   10.30    4.40
   2   2  14   15.30    4.60
  -2   2 -14   18.80    5.70
  -3  -2 -14   69.99   11.20
   3  -2  14   89.79   10.40
   3   2  14   58.89    9.70
  -3   2 -14   84.69   11.10
  -4  -2 -14  155.28   16.10
   4  -2  14  178.28   14.90
   4   2  14  174.68   14.90
  -4   2 -14  195.28   17.40
  -5  -2 -14    3.80    6.20
   5  -2  14   -7.10    6.00
  -5   2 -14    2.10    6.90
   5   2  14    2.80    5.60
   6  -2  14  240.68   20.90
  -6  -2 -14  312.17   25.60
  -6   2 -14  288.87   23.10
   6   2  14  288.07   21.50
   7  -2  14   -2.20    9.50
  -7  -2 -14   23.20   10.90
  -7   2 -14   10.00    9.90
   7   2  14   -6.70    8.00
  11   3 -14   99.89   17.00
  10  -3 -14   -6.10    6.60
  10   3 -14   -3.90    7.00
   9  -3 -14   18.60    9.50
   9   3 -14   12.60    6.90
   8  -3 -14    1.80    5.30
   8   3 -14   -3.50    5.00
   7  -3 -14   11.80    5.00
   7   3 -14    6.30    4.20
   6  -3 -14    8.40    4.90
   6   3 -14   -4.20    3.50
   5  -3 -14  362.76   19.40
   5   3 -14  348.07   19.80
   4  -3 -14    6.30    4.10
   4   3 -14   10.90    4.90
   3  -3 -14    2.70    3.50
   3   3 -14    1.20    3.10
   2  -3 -14   20.30    6.50
   2   3 -14   23.30    6.20
   2   3 -14   15.80    1.70
   2   3 -14   23.00    3.10
   1  -3 -14  157.78   13.20
   1   3 -14  184.28   13.50
   1   3 -14  159.28    9.80
   0  -3 -14    5.70    4.70
   0   3 -14    1.80    3.80
   0   3  14   -1.80    2.40
  -1  -3 -14  408.26   22.40
  -1   3 -14  406.06   21.50
   1   3  14  399.06   16.80
   2  -3  14   11.10    4.50
  -2  -3 -14   -5.10    3.90
  -2   3 -14   11.20    5.40
   2   3  14    6.10    4.60
  -3  -3 -14    2.10    5.30
   3  -3  14   -3.80    4.20
   3   3  14    0.70    4.70
  -3   3 -14    4.80    5.00
  -4  -3 -14   24.20    9.40
   4  -3  14   20.10    6.90
   4   3  14   25.90    7.60
  -4   3 -14    8.10    6.30
   5  -3  14  156.48   15.50
  -5  -3 -14  183.88   18.40
  -5   3 -14  143.69   15.70
   5   3  14  140.29   15.50
  -6  -3 -14    1.50    9.00
   6  -3  14    6.00    8.40
   6   3  14    2.60    7.60
  -6   3 -14   13.60   14.10
  -7  -3 -14   39.40   12.60
   7  -3  14   38.90   11.80
   7   3  14   37.50   11.00
  -7   3 -14   36.70   11.00
  11   4 -14    7.60    8.90
  10  -4 -14   29.30    9.60
  10   4 -14   41.50    9.90
   9  -4 -14    8.80    5.60
   9   4 -14   -7.70    5.70
   8  -4 -14   -0.90    5.10
   8   4 -14    1.30    5.10
   7  -4 -14    0.70    3.90
   7   4 -14    0.90    1.40
   7   4 -14   -3.60    4.30
   6  -4 -14  151.48   12.50
   6   4 -14  137.99   12.90
   5  -4 -14   62.89    8.40
   5   4 -14   40.60    8.10
   4  -4 -14  155.88   12.70
   4   4 -14  146.99   12.40
   3  -4 -14   34.60    7.80
   3   4 -14   37.90    7.10
   2  -4 -14    3.40    4.10
   2   4 -14    6.60    3.70
   1  -4 -14  166.18   13.70
  -1   4  14  152.58    5.60
   1   4 -14  154.18   12.60
   0  -4 -14   97.99   11.30
   0   4 -14  141.99   12.10
   0   4  14  128.99    7.60
  -1  -4 -14   10.80    5.20
   1   4  14    8.80    4.00
  -1   4 -14    8.90    5.00
   2  -4  14  137.09   14.60
  -2  -4 -14  112.59   13.00
   2   4  14  117.89   10.80
  -2   4 -14  128.39   12.50
   3  -4  14   80.09    9.60
  -3  -4 -14  101.59   12.70
  -3   4 -14  112.69   12.00
   3   4  14   89.79   11.40
  -4  -4 -14  124.99   18.60
   4  -4  14  139.19   13.70
   4   4  14  118.59   13.80
  -4   4 -14  128.19   13.80
  -5  -4 -14   -0.10    6.30
   5  -4  14    7.20    7.40
  -5   4 -14    1.70    6.90
   5   4  14   -0.80    6.20
  -6  -4 -14   -8.10    7.60
   6  -4  14   -3.30    8.40
  -6   4 -14    4.20    8.50
   6   4  14  -13.30    6.30
  -7  -4 -14    0.60   10.40
   7  -4  14  -14.60    8.90
   7   4  14   12.30    9.10
  10  -5 -14    1.80    7.40
 -10  -5  14   -5.40    7.40
  10   5 -14   -6.80    6.70
   9  -5 -14  103.39   12.70
   9   5 -14  107.29   13.70
   8  -5 -14   -0.80    4.80
   8   5 -14    1.30    5.00
   8   5 -14   -1.60    3.60
   7  -5 -14  121.09   11.40
   6  -5 -14   43.50    7.60
   6   5 -14   60.59    9.40
   6   5 -14   41.70    3.50
   5  -5 -14   64.39    8.30
   5   5 -14   54.49    8.20
   4  -5 -14   38.90    7.90
   4   5 -14   35.90    8.20
   3  -5 -14   -0.50    3.00
   3   5 -14   -0.20    1.90
   3   5 -14    1.20    3.30
   2  -5 -14   85.39    9.60
   2   5 -14   78.99    9.30
   1  -5 -14  241.48   16.40
  -1   5  14  219.18    8.00
   1   5 -14  195.38   14.30
   0  -5 -14   24.80    6.90
   0   5  14   23.10    4.10
   0   5 -14   11.90    4.90
  -1  -5 -14  203.98   16.50
   1   5  14  185.28   11.80
  -1   5 -14  169.28   13.50
  -2  -5 -14   -1.00    5.30
  -2   5 -14    1.20    4.20
   2   5  14    7.40    4.70
   3  -5  14   83.59   10.20
  -3  -5 -14   83.59   11.60
  -3   5 -14   87.69   11.50
   3   5  14   79.79   10.60
  -4  -5 -14   69.09   13.30
   4  -5  14   67.49   10.60
   4   5  14   50.49   10.00
  -4   5 -14   55.19   10.70
   5  -5  14   22.80    8.60
  -5  -5 -14   29.30   10.50
   5   5  14   41.40   10.10
  -5   5 -14   35.30    9.20
   6  -5  14   -4.90    7.70
  -6  -5 -14    8.00    8.80
   6   5  14   -2.20    8.50
   7  -5  14   15.10    9.60
  -7  -5 -14   17.00   10.60
   7   5  14    8.30    9.80
 -10  -6  14   34.50   12.30
  10   6 -14   54.79   11.30
   9  -6 -14    0.00    6.10
  -9  -6  14    5.00    7.20
   9   6 -14    2.20    6.90
   8  -6 -14   -2.00    5.20
  -8  -6  14    2.40    7.30
   8   6 -14   -8.60    5.10
   8   6 -14   -2.10    4.20
   7  -6 -14    2.90    4.90
   7   6 -14   13.00    6.00
   7   6 -14   17.30    4.10
   6  -6 -14   73.99    9.70
   6   6 -14   75.09    5.80
   6   6 -14   58.79    9.20
   5  -6 -14   60.69    8.50
   5   6 -14   41.40    8.20
   4  -6 -14   32.70    6.90
   4   6 -14   52.09    7.90
   3  -6 -14   21.60    5.80
   3   6 -14   31.80    7.20
   3   6 -14   14.60    3.10
   2  -6 -14   63.99    8.90
   2   6 -14   61.09    8.20
   1  -6 -14    5.70    4.30
   1   6 -14   11.30    5.50
  -1   6  14    8.70    2.90
   0  -6 -14  265.27   18.20
   0   6  14  314.47   13.40
   0   6 -14  285.37   17.20
  -1  -6 -14   52.39    9.60
  -1   6 -14   43.30    8.50
   1   6  14   55.69    7.50
  -2  -6 -14   40.20    9.90
  -2   6 -14   21.40    7.20
   2   6  14   35.60    6.90
  -3  -6 -14   86.99   13.80
   3   6  14   82.79   11.10
  -3   6 -14   77.49   10.70
   4  -6  14   80.79   11.90
  -4  -6 -14   85.59   13.10
   4   6  14   93.99   12.90
  -4   6 -14   93.39   12.40
   5  -6  14    8.20    7.80
  -5  -6 -14   13.40    8.90
  -5   6 -14   -2.60    6.80
   5   6  14   -3.90    7.00
   6  -6  14    3.40    7.60
  -6  -6 -14   -1.80    8.90
   6   6  14   17.60   10.60
  -6   6 -14   19.90   13.80
  -7  -6 -14   -5.40   11.00
   7  -6  14    4.10    9.80
   7   6  14   33.90   12.70
  -7   6 -14   13.40   10.50
 -10  -7  14   10.50   10.30
   9  -7 -14    0.40    6.70
  -9  -7  14   -3.70    7.70
  -8  -7  14   13.30    8.50
   8  -7 -14   24.90    7.50
   8   7 -14    4.30    5.20
   8   7 -14   14.60    6.40
   7  -7 -14   17.80    6.20
   7   7 -14    9.50    5.00
   7   7 -14    8.10    4.30
   6  -7 -14    0.30    4.20
   6   7 -14    0.30    4.10
   5  -7 -14  209.18   14.80
   5   7 -14  188.38   15.10
   5   7 -14  197.88    9.90
   4  -7 -14   -0.20    3.90
   4   7 -14    6.40    4.10
   4   7 -14    5.60    3.00
   3  -7 -14   17.50    5.40
   3   7 -14   27.40    7.20
   3   7 -14   21.50    4.00
   2  -7 -14  106.49   11.40
  -2   7  14  124.19    5.60
   2   7 -14  121.19   11.40
   1  -7 -14  220.18   16.30
  -1   7  14  222.58   10.10
   1   7 -14  216.48   15.00
   0  -7 -14  109.29   12.30
   0   7 -14   94.09   10.50
   0   7  14  107.49    8.40
  -1  -7 -14  123.99   13.30
   1   7  14  134.59   11.30
  -1   7 -14  130.19   11.90
  -2  -7 -14    9.70    5.50
  -2   7 -14    7.80    5.10
   2   7  14    8.40    5.40
   3   7  14   39.20    8.30
  -3   7 -14   25.70    6.90
  -4  -7 -14   13.50    7.50
  -4   7 -14    9.20    5.70
   4   7  14  -10.30    6.40
   5  -7  14  122.29   15.30
  -5  -7 -14  171.38   20.70
   5   7  14  181.38   17.50
  -5   7 -14  137.49   15.90
  -6  -7 -14   -2.70    8.00
   6  -7  14   -1.00    7.80
   6   7  14   -7.00    8.20
  -7  -7 -14   -2.20   13.10
   7  -7  14   -9.30    9.40
   7   7  14  -12.20    9.80
 -10  -8  14   18.50   17.70
  -9  -8  14    0.50    8.40
   8  -8 -14   -7.50    5.50
  -8  -8  14    5.30    7.30
   8   8 -14   -5.60    5.40
  -7  -8  14    2.60    5.70
   7  -8 -14   -9.90    4.40
   7   8 -14    4.40    5.00
   7   8 -14   13.40    5.10
   6  -8 -14   44.50    8.70
   6   8 -14   66.69    7.20
   5  -8 -14    6.20    5.10
   5   8 -14    8.40    4.70
   5   8 -14    1.60    3.30
   4  -8 -14   14.20    5.50
   4   8 -14   15.80    6.00
   4   8 -14   18.70    4.30
   3  -8 -14  145.69   13.10
   3   8 -14  160.08    9.60
   3   8 -14  159.18   13.50
   2  -8 -14    3.60    4.10
  -2   8  14   10.80    3.30
   2   8 -14   17.40    5.30
   1  -8 -14   17.70    6.00
  -1   8  14   27.70    5.20
   1   8 -14   35.30    7.50
   0  -8 -14  355.26   21.50
   0   8  14  358.16   16.20
   0   8 -14  383.16   20.00
  -1  -8 -14    1.30    5.30
   1   8  14    8.60    4.30
  -1   8 -14    7.90    5.00
  -2  -8 -14    0.70    6.60
   2   8  14   -5.20    4.50
  -2   8 -14    9.90    5.60
  -3  -8 -14   59.49   11.80
  -3   8 -14   39.60    8.40
   3   8  14   44.40    9.60
  -4  -8 -14   -2.50    7.50
   4   8  14   22.30    7.90
  -4   8 -14    9.50    5.90
  -5  -8 -14   16.80    9.60
   5   8  14   21.40   13.50
  -5   8 -14    2.70    8.00
  -6  -8 -14   50.49   13.50
   6  -8  14   23.10   10.40
   6   8  14   40.30   11.40
  -6   8 -14   14.80   13.90
  -7  -8 -14    7.80   13.00
   7  -8  14  -19.30    9.90
   7   8  14   -8.20   10.30
 -10  -9  14   11.70   10.80
  10  -9 -14   12.20   10.10
  -9  -9  14   40.30   12.10
   8  -9 -14   10.80    6.50
  -8  -9  14    8.00    7.90
   8   9 -14   12.80    6.80
  -7  -9  14   50.29   11.90
   7  -9 -14   43.70    8.90
   7   9 -14   38.00    7.20
   7   9 -14   47.90   10.10
   6  -9 -14   -7.70    4.50
   6   9 -14   11.80    6.40
   6   9 -14    4.90    4.60
   5  -9 -14   23.20    6.90
   5   9 -14   27.50    6.80
   5   9 -14   30.30    5.90
   4  -9 -14   12.20    5.30
   4   9 -14    7.30    3.80
   4   9 -14    8.80    4.30
   3  -9 -14   72.99   10.30
  -3   9  14  103.29    5.70
   3   9 -14  109.09   10.90
   3   9 -14   94.29    8.30
   2  -9 -14   31.50    8.20
  -2   9  14   33.80    5.10
   2   9 -14   46.50    7.60
   1  -9 -14  205.28   16.30
   1   9 -14  194.88   14.30
  -1   9  14  201.18   11.30
   0  -9 -14   63.99   10.80
   0   9  14   46.10    7.40
   0   9 -14   61.59    9.10
  -1  -9 -14   92.49   13.30
  -1   9 -14  105.79   11.60
   1   9  14   97.09   10.60
  -2  -9 -14   52.19   17.30
  -2   9 -14   31.60    7.90
   2   9  14   38.00    8.50
  -3  -9 -14   17.00    7.70
   3   9  14   19.60    8.00
  -3   9 -14    6.90    5.80
  -4  -9 -14    7.40    7.50
  -4   9 -14    9.00    6.60
   4   9  14   -1.80    6.90
  -5  -9 -14    1.50    9.40
   5   9  14    3.40    8.20
  -6  -9 -14   -0.70   10.20
   6   9  14    0.10    9.30
  -6   9 -14   -5.00    9.60
   9 -10 -14    5.30    8.60
  -9 -10  14    1.10   10.40
  -8 -10  14    6.80    9.10
   8  10 -14   57.39   11.40
   7 -10 -14   13.60    6.30
  -7 -10  14   15.30    9.50
   7  10 -14   19.20    6.20
   6 -10 -14  104.29   11.40
  -6 -10  14   87.49   14.20
   6  10 -14  106.39   10.40
   6  10 -14  119.49   13.00
   5 -10 -14    2.90    5.40
   5  10 -14   -0.50    4.10
  -5  10  14   -2.00    2.60
   5  10 -14    0.00    6.70
   4 -10 -14  294.67   18.00
  -4  10  14  289.87   10.50
   4  10 -14  275.97   14.70
  -4  10  14  297.07   12.40
   4  10 -14  331.17   19.40
   3 -10 -14   14.40    6.10
   3  10 -14   25.40    5.70
   3  10 -14   22.80    6.40
  -3  10  14   21.40    5.10
  -3  10  14   25.60    4.40
   2 -10 -14   70.89   11.00
   2  10 -14  103.89   11.00
  -2  10  14  100.19    9.60
   1 -10 -14  153.38   14.50
   1  10 -14  143.89   13.00
  -1  10  14  146.99   10.40
   0 -10 -14   35.60    8.00
   0  10 -14   66.29    9.60
   0  10  14   64.19    8.70
  -1 -10 -14   34.20    9.00
  -1  10 -14   46.80    8.80
   1  10  14   34.00    7.60
  -2 -10 -14   21.00    8.10
  -2  10 -14   22.90    7.50
   2  10  14   30.10    8.00
  -3 -10 -14    7.20    8.00
  -3  10 -14   -1.20    5.90
   3  10  14    0.70    6.10
  -4 -10 -14   20.60    8.30
   4  10  14   40.60   10.30
  -4  10 -14   35.10    8.40
  -5 -10 -14    1.70    8.60
  -5  10 -14   -7.80    8.20
   5  10  14  -10.60    7.70
  -6 -10 -14   91.89   26.70
   6  10  14   98.29   18.80
   9 -11 -14   -9.10   10.10
  -8 -11  14   -4.60    7.70
   8  11 -14   -2.30    6.50
  -7 -11  14   77.59   14.70
   7  11 -14   60.99   10.60
  -6 -11  14   96.29   14.30
   6 -11 -14   93.19   12.30
   6  11 -14  104.59   12.80
   6  11 -14   80.09   10.30
   5 -11 -14   36.40    8.10
  -5  11  14   38.70    6.50
   5  11 -14   42.60    8.40
   5  11 -14   32.70    6.80
   4 -11 -14   29.00    7.40
   4  11 -14   27.80    6.60
  -4  11  14   22.90    4.80
   4  11 -14   34.70    7.70
   3 -11 -14    8.10    5.60
  -3  11  14   16.90    4.30
   3  11 -14   22.70    6.20
   3  11 -14   21.30    5.30
   2 -11 -14   74.79   10.40
   2  11 -14   46.40    8.40
   1 -11 -14   60.59   11.40
  -1  11  14   77.09    9.20
   1  11 -14  116.29   11.60
   0 -11 -14    6.10    6.00
   0  11 -14    4.20    4.60
   0  11  14    2.70    5.00
   1  11  14    3.00    5.60
  -1  11 -14    5.30    4.60
  -2 -11 -14   19.30    7.80
  -2  11 -14   37.90    8.10
   2  11  14   35.60    8.10
  -3 -11 -14    5.70    7.80
  -3  11 -14   -2.70    5.70
   3  11  14   -4.60    7.60
  -4 -11 -14   31.80    9.50
   4  11  14   24.10   14.70
  -5 -11 -14    8.80   10.20
   5  11  14   27.00   10.40
  -5  11 -14   16.60    9.30
  -6 -11 -14  -14.30   11.20
   6  11  14   -0.20   11.00
  -9 -12  14    0.90   10.30
   8 -12 -14   35.30    9.50
  -8 -12  14   19.60    9.80
  -7 -12  14    4.40    7.80
   7  12 -14   29.30    8.10
   6 -12 -14  199.68   15.40
  -6 -12  14  194.38   19.60
   6  12 -14  189.78   14.60
   6  12 -14  201.78   17.10
   5 -12 -14   -6.20    5.30
   5  12 -14   -0.60    4.30
  -5  12  14    0.50    4.60
   5  12 -14   -3.90    4.80
   4 -12 -14   13.20    6.40
   4  12 -14   31.30    7.30
   4  12 -14   33.90    8.00
  -4  12  14   18.20    5.40
   3 -12 -14   42.80    9.20
   3  12 -14   42.70    8.60
   3  12 -14   45.30    9.20
   2 -12 -14   -7.70    4.80
   2  12 -14   -1.00    3.90
  -2  12  14   -0.20    4.30
   1 -12 -14    5.00    5.80
   1  12 -14    3.40    4.40
   0 -12 -14  421.96   26.60
   0  12 -14  372.86   20.60
   0  12  14  336.37   18.60
  -1 -12 -14   14.90    8.20
  -1  12 -14   11.10    6.10
   1  12  14    8.00    6.60
  -2 -12 -14    5.40    7.70
   2  12  14   -0.70    6.90
  -2  12 -14    7.30    6.10
  -3 -12 -14   15.50    8.70
   3  12  14   18.20    8.30
  -4 -12 -14  -17.80    8.00
  -4  12 -14    3.90    7.70
   4  12  14    4.10    8.80
  -5 -12 -14    9.90   10.40
   5  12  14   14.20    9.60
  -8 -13  14   35.80   14.40
  -7 -13  14   54.79   14.50
   7 -13 -14   51.39   10.20
  -6 -13  14    2.00    7.50
   6  13 -14   -2.40    5.40
   5 -13 -14  122.79   13.00
   5  13 -14  117.79   13.70
  -5  13  14  119.69   10.90
   5  13 -14  118.39   13.00
   4 -13 -14    9.70    6.70
   4  13 -14    6.70    5.50
   4  13 -14    4.80    4.90
  -4  13  14    2.90    5.70
   3 -13 -14   -2.90    5.80
   3  13 -14    0.10    4.80
  -3  13  14   -6.20    4.50
   2 -13 -14  119.59   14.10
   2  13 -14  107.79   12.30
  -2  13  14  124.09   11.80
   1 -13 -14   67.19   12.80
   1  13 -14   77.99   10.30
   0 -13 -14    0.70    7.00
   0  13  14   -0.40    5.90
   0  13 -14   -2.80    4.80
  -1 -13 -14   11.20    8.00
  -1  13 -14    2.90    5.30
   1  13  14    2.00    6.40
  -2 -13 -14  115.69   17.40
   2  13  14  124.89   14.60
  -2  13 -14  105.49   11.80
  -3 -13 -14   16.00   10.50
   3  13  14   10.70    8.90
  -3  13 -14   10.10    6.70
  -4 -13 -14   15.90   11.10
   4  13  14   21.10   11.20
  -4  13 -14   14.60    9.00
  -5 -13 -14  127.09   22.60
   5  13  14  130.59   21.40
  -8 -14  14   19.90   11.40
  -7 -14  14   29.70   12.20
   7 -14 -14    8.60    9.00
  -6 -14  14   60.99   14.80
   6  14 -14   39.80    9.50
  -5  14  14    4.80    6.60
   5  14 -14    3.60    5.70
   4 -14 -14   43.30    9.40
   4  14 -14   29.10    8.50
  -4  14  14   22.30    6.60
   3 -14 -14  210.38   17.80
  -3  14  14  220.88   14.20
   3  14 -14  206.68   16.80
   2 -14 -14   -2.50    6.40
   2  14 -14   -4.80    4.50
   1 -14 -14   17.30    8.50
   1  14 -14   20.60    6.30
   0 -14 -14   32.10    9.50
   0  14 -14   28.70    7.40
  -1 -14 -14    3.60    7.30
  -1  14 -14   -8.00    5.90
  -2 -14 -14   14.40    8.80
   2  14  14    7.60    7.80
  -3 -14 -14  307.07   27.30
   3  14  14  278.17   23.60
  -3  14 -14  352.16   19.60
  -4 -14 -14   55.89   14.00
   4  14  14   30.70   12.80
  -7 -15  14   65.89   21.90
   7  15 -14   24.10   14.30
  -6 -15  14   51.19   13.40
   6 -15 -14   31.80   11.00
   6  15 -14   61.09   11.80
  -5  15  14   50.29   10.30
   5  15 -14   44.20    9.70
   4 -15 -14   20.80    8.30
   4  15 -14   31.50    8.70
   3 -15 -14   26.90    8.40
  -3  15  14   27.60    8.80
   3  15 -14   33.30    7.80
   2  15 -14   -9.30    5.20
   1 -15 -14   11.00    8.20
   1  15 -14   44.10    9.20
   0 -15 -14    3.90    7.70
   0  15 -14    2.70    5.90
  -1 -15 -14   60.39   12.10
  -2 -15 -14    0.60    8.70
  -2  15 -14   -0.10    7.30
  -3 -15 -14    2.50    9.60
   3  15  14    0.50   10.70
  -4 -15 -14  -23.90   10.80
   4  15  14  -26.80    9.90
  -6 -16  14   81.79   15.80
   6 -16 -14   85.09   15.50
   6  16 -14  106.69   15.60
   5 -16 -14    5.30    8.80
   5  16 -14    5.90    7.00
   4  16 -14   20.00    8.10
  -4  16  14   14.20    8.40
  -3  16  14    7.80    7.50
   3  16 -14    2.00    6.40
   2 -16 -14   27.80    9.20
   2  16 -14   18.50    7.70
  -2  16  14   11.30    7.70
   1 -16 -14   84.19   16.80
   0 -16 -14  188.28   20.30
  -1 -16 -14   38.90   11.80
  -2 -16 -14   30.40   12.10
  -2  16 -14   19.60    8.20
  -3 -16 -14    6.40   13.80
   5 -17 -14   97.39   15.80
   5  17 -14  119.19   14.60
   4  17 -14   10.20    7.70
  -4  17  14   29.60   10.60
  -3  17  14   -7.60    9.10
   3  17 -14   11.40    7.00
   2 -17 -14   13.10   10.70
   2  17 -14   22.80    7.60
  -2  17  14   19.10    8.90
   1 -17 -14   93.49   17.40
   0 -17 -14    4.80    9.60
  -1 -17 -14  103.09   19.80
  -1  17 -14   85.59   13.70
  -2 -17 -14   22.70   12.80
   4 -18 -14   22.50   12.60
   4  18 -14    2.00    8.10
   3  18 -14   72.19   13.10
  -3  18  14   33.30   12.00
  -2  18  14   15.00   10.40
   1 -18 -14  -15.20    9.20
  -1  18  14   -7.90   13.70
   0 -18 -14  127.49   21.00
   0  18 -14   89.59   13.70
  -1 -18 -14   26.00   13.30
  10   0 -15    9.70    7.90
   9   0 -15  102.59   13.50
   8   0 -15    0.50    5.10
   7   0 -15   14.90    5.30
   6   0 -15   -2.60    3.90
   5   0 -15  276.97   17.60
   4   0 -15    3.80    4.30
   3   0 -15  310.07   18.30
   2   0 -15    4.50    4.40
   1   0 -15  115.99   11.80
   0   0 -15   -1.80    3.20
   1   0  15  111.39    8.50
  -1   0 -15  102.29   11.90
   2   0  15    0.50    3.80
  -2   0 -15   -1.20    4.90
  -3   0 -15   29.50    8.70
   3   0  15   35.90    7.50
  -4   0 -15   -3.70    6.50
   4   0  15   -0.50    5.50
  -5   0 -15  187.18   19.10
   5   0  15  150.68   16.00
  -6   0 -15  -26.10    8.60
   6   0  15    2.50    8.10
   7   0  15   61.19   13.80
  -7   0 -15   54.29   14.50
  10  -1 -15   69.79   13.30
  10   1 -15   78.49   13.90
   9  -1 -15   27.50    8.50
   9   1 -15   12.60    6.70
   8  -1 -15   37.10    8.60
   8   1 -15   27.90    8.30
   7  -1 -15   13.80    5.10
   7   1 -15    5.70    5.10
   6  -1 -15    3.60    4.50
   6   1 -15    6.30    4.60
   5  -1 -15   60.29    8.90
   5   1 -15   46.30    8.30
   4  -1 -15  436.06   22.20
   4   1 -15  390.26   20.90
   3  -1 -15   -0.90    3.50
   3   1 -15    3.00    3.60
   2  -1 -15   10.10    3.90
   2   1 -15   12.50    4.50
   1  -1 -15    1.00    4.30
   1   1 -15    4.50    4.00
   0  -1 -15  364.16   21.10
   0   1 -15  427.76   22.40
   0   1  15  370.36   13.30
  -1  -1 -15   11.70    5.00
   1  -1  15    9.30    3.90
  -1   1 -15   12.90    5.80
   1   1  15   11.80    3.80
   2  -1  15    6.10    4.50
  -2  -1 -15   -0.80    4.30
  -2   1 -15   15.70    5.90
   2   1  15    2.00    3.50
   3  -1  15    5.60    5.40
  -3  -1 -15   -0.30    5.40
   3   1  15    8.50    5.10
  -3   1 -15   13.60    6.30
   4  -1  15   29.60    8.70
  -4  -1 -15   28.10   11.10
   4   1  15   25.50    7.70
  -4   1 -15   14.50    7.40
  -5  -1 -15    9.20    8.10
   5  -1  15    0.70    7.30
   5   1  15   20.60    8.20
  -5   1 -15    3.90    8.90
  -6  -1 -15   78.49   16.10
   6  -1  15  105.79   16.00
   6   1  15  116.09   16.70
  -6   1 -15  104.09   17.10
   7  -1  15   15.10   11.70
  -7  -1 -15   -5.40   10.70
  -7   1 -15    9.70   12.00
   7   1  15    9.90   10.70
  10  -2 -15    2.20    6.90
  10   2 -15   10.70    8.60
   9  -2 -15   75.29   13.20
   9   2 -15   80.19   12.80
   8   2 -15    1.40    5.80
   7  -2 -15    4.30    4.50
   7   2 -15    6.40    5.50
   6  -2 -15    3.10    3.30
   6   2 -15    5.20    5.30
   5  -2 -15   72.69    9.70
   5   2 -15   69.39    9.80
   4  -2 -15   24.20    6.70
   4   2 -15   13.80    4.40
   3  -2 -15  584.74   26.10
   3   2 -15  533.55   25.10
   2  -2 -15   16.90    5.70
   2   2 -15   11.50    4.90
   1  -2 -15  124.79   12.80
   1   2 -15  143.39   12.50
   0  -2 -15    7.50    4.90
   0   2 -15   19.50    6.40
   0   2  15   23.00    4.20
  -1  -2 -15    6.30    5.60
  -1   2 -15    0.70    4.20
   1   2  15   12.50    3.60
   2  -2  15  156.58   11.90
  -2  -2 -15  170.88   16.10
   2   2  15  172.98   12.00
  -2   2 -15  164.78   14.60
  -3  -2 -15   47.10   11.30
   3  -2  15   46.20    8.90
   3   2  15   32.20    6.90
  -3   2 -15   40.70    9.40
  -4  -2 -15   32.70    8.80
   4  -2  15   51.59    9.80
  -4   2 -15   28.80    9.60
   4   2  15   34.10    7.80
  -5  -2 -15   83.19   14.90
   5  -2  15  105.59   14.40
   5   2  15   94.99   14.80
  -5   2 -15  107.89   15.60
  -6  -2 -15    0.80   10.00
   6  -2  15   17.20    8.80
   6   2  15   16.90    8.70
  -6   2 -15   19.90   10.00
  -7  -2 -15   20.40   11.30
   7  -2  15    6.20   11.90
   7   2  15    9.80   10.90
  -7   2 -15    4.20   12.60
  10  -3 -15   10.20    8.10
  10   3 -15    9.70    8.10
   9  -3 -15   14.10    7.40
   9   3 -15   13.70    7.20
   8  -3 -15  212.48   20.50
   8   3 -15  199.38   17.10
   7  -3 -15   60.29    9.70
   7   3 -15   59.49   10.70
   6  -3 -15  197.88   15.50
   6   3 -15  187.48   15.50
   5  -3 -15   16.50    5.80
   5   3 -15    6.60    4.80
   4  -3 -15  209.38   14.90
   4   3 -15  215.48   15.50
   3  -3 -15   59.79    8.70
   3   3 -15   74.19    9.30
   2  -3 -15    5.00    4.40
   2   3 -15    9.50    4.30
   1  -3 -15   26.80    6.90
   1   3 -15   43.80    7.80
   0  -3 -15  453.55   23.90
   0   3  15  450.15   15.20
   0   3 -15  484.55   23.80
  -1  -3 -15   36.60    8.60
  -1   3 -15   44.30    8.80
   1   3  15   47.20    6.50
  -2  -3 -15   64.89   11.50
   2   3  15   70.59    8.70
  -2   3 -15   73.89   11.20
  -3  -3 -15   -2.30    5.20
   3  -3  15    6.50    5.10
  -3   3 -15    9.40    6.20
   3   3  15    3.80    4.70
   4  -3  15    2.40    6.30
  -4  -3 -15    7.60    6.40
  -4   3 -15    8.10    7.30
   4   3  15    9.20    6.50
   5  -3  15   -3.00    6.90
  -5  -3 -15    6.00    7.10
   5   3  15   -6.00    7.10
  -5   3 -15  -17.80    7.30
   6  -3  15  146.89   18.90
  -6  -3 -15  145.49   20.00
   6   3  15  174.38   18.70
  -6   3 -15  151.28   19.00
  -7  -3 -15    5.40   11.10
   7  -3  15   -4.70   10.20
   7   3  15  -10.70   10.30
  10  -4 -15    1.90    7.50
  10   4 -15    8.10    6.80
   9  -4 -15  101.59   13.20
   9   4 -15   71.89   12.30
   8  -4 -15   -0.10    5.70
   8   4 -15   11.70    6.40
   7  -4 -15    6.50    5.00
   7   4 -15   11.20    6.10
   6  -4 -15   16.70    6.00
   6   4 -15   17.40    5.40
   5  -4 -15  191.08   14.40
   5   4 -15  187.88   15.00
   4  -4 -15  114.49   11.60
   4   4 -15  106.99   11.40
   3  -4 -15   72.19    9.80
   3   4 -15   65.39    8.90
   2  -4 -15   27.50    6.60
   2   4 -15   27.60    2.90
   2   4 -15   53.69    8.50
   1  -4 -15   10.30    5.40
   1   4 -15   10.30    4.50
   0  -4 -15   74.39   10.60
   0   4 -15   83.49   10.70
   0   4  15   92.69    6.70
   0   4 -15   96.39   11.90
  -1  -4 -15  588.74   29.30
   1   4  15  667.53   22.80
  -1   4 -15  617.74   28.30
  -2  -4 -15    0.10    4.70
  -2   4 -15   -2.20    4.10
   2   4  15   -3.70    4.00
   3  -4  15    2.20    5.00
  -3   4 -15    0.30    5.80
   3   4  15   -2.60    4.80
   4  -4  15   24.40    7.90
  -4  -4 -15   12.00    8.50
   4   4  15   12.60    6.70
  -4   4 -15    4.00    6.80
   5  -4  15    0.00   10.00
  -5  -4 -15   11.10    7.80
   5   4  15   -0.50    7.10
   6  -4  15   16.90   10.20
  -6  -4 -15   15.70   11.50
  -6   4 -15   31.40   10.60
   6   4  15   27.60   10.40
   7  -4  15   49.40   14.40
  -7  -4 -15   79.39   18.40
   7   4  15   22.10   12.20
  10  -5 -15   59.79   16.90
  10   5 -15   85.49   14.20
   9  -5 -15   -2.10    6.60
   9   5 -15   -3.20    6.50
   8  -5 -15   10.60    6.30
   8   5 -15   15.00    7.20
   7  -5 -15   11.60    5.40
   7   5 -15   12.70    6.40
   6  -5 -15   49.60    8.90
   6   5 -15   28.50    7.40
   5  -5 -15    2.00    4.30
   5   5 -15   -1.90    4.20
   4  -5 -15  114.79   11.70
   4   5 -15  148.79   13.20
   3  -5 -15   29.10    6.90
   3   5 -15   28.40    6.90
   2  -5 -15    9.80    4.70
   2   5 -15    8.20    4.30
   1  -5 -15   18.00    5.80
   1   5 -15   27.70    6.40
  -1   5  15   25.40    3.00
   0  -5 -15  173.08   14.90
   0   5  15  168.18    9.60
   0   5 -15  192.98   14.60
  -1  -5 -15    5.80    5.20
  -1   5 -15    3.40    3.80
   1   5  15   -1.80    3.60
  -2  -5 -15   59.79   11.60
  -2   5 -15   68.49   10.40
   2   5  15   59.39    8.90
  -3  -5 -15   50.39   12.10
   3  -5  15   39.60    8.20
  -3   5 -15   25.50    7.60
   3   5  15   35.90    8.40
   4  -5  15   -2.20    6.20
  -4  -5 -15    4.50    7.70
   4   5  15   -6.00    6.10
  -4   5 -15   -8.30    6.20
   5  -5  15   46.00   11.10
  -5  -5 -15   38.30   11.50
  -5   5 -15   39.80   13.40
   5   5  15   57.79   11.80
   6  -5  15  145.59   18.30
  -6  -5 -15  121.09   19.50
   6   5  15  165.98   18.70
  -7  -5 -15   -7.60   18.80
   7  -5  15    1.40   10.40
   7   5  15    7.90   11.50
  -7   5 -15   34.70   21.50
  10   6 -15    8.50    7.80
   9  -6 -15   60.39   10.70
   9   6 -15   71.39   12.70
   8  -6 -15   -7.50    5.20
   8   6 -15    0.30    6.50
   7  -6 -15   22.70    7.50
   7   6 -15   35.60    9.10
   6  -6 -15   18.30    6.60
   6   6 -15   32.40    9.00
   5  -6 -15   32.60    7.20
   5   6 -15   24.90    6.10
   4  -6 -15   13.80    6.00
   4   6 -15   10.30    4.50
   4   6 -15   12.00    2.30
   4   6 -15   15.00    2.90
   3  -6 -15    7.20    5.40
   3   6 -15    4.40    4.10
   2  -6 -15   53.59    9.60
   2   6 -15   54.49    8.40
   1  -6 -15    0.50    4.90
   1   6 -15   -2.80    3.20
   0  -6 -15   -4.60    3.90
   0   6  15   -1.10    3.90
   0   6 -15    0.00    3.50
  -1  -6 -15  257.87   19.20
   1   6  15  281.07   14.50
  -1   6 -15  215.38   16.50
  -2  -6 -15   20.50    9.30
  -2   6 -15   18.80    6.90
   2   6  15   26.50    8.50
  -3  -6 -15   84.99   20.70
  -3   6 -15   53.39   10.50
   3   6  15   61.69   10.50
   4  -6  15   35.10    8.90
  -4  -6 -15   24.30    9.10
  -4   6 -15   43.10   10.00
   4   6  15   42.80    9.30
  -5  -6 -15   -5.50    8.50
   5  -6  15    5.50    8.40
  -5   6 -15  -18.30    7.10
   6  -6  15    1.90    8.60
  -6  -6 -15   -1.20    9.60
   6   6  15   -4.40   10.00
  10   7 -15    9.70    9.60
   9   7 -15    3.20    6.70
   8  -7 -15   73.49   11.80
   8   7 -15   98.49   13.30
   7  -7 -15    3.70    5.70
   7   7 -15   10.50    5.50
   7   7 -15   11.80    6.80
   6  -7 -15  158.58   13.60
   6   7 -15  152.68    9.10
   6   7 -15  169.88   14.90
   5  -7 -15    6.50    5.30
   5   7 -15   12.40    3.90
   5   7 -15   10.30    5.50
   4  -7 -15   59.39    9.90
   4   7 -15   91.99   10.80
   4   7 -15   65.29    5.50
   3  -7 -15   14.40    5.50
   3   7 -15    5.60    2.70
   3   7 -15    9.50    4.70
   2  -7 -15   83.79   11.60
   2   7 -15  103.79   10.50
   1  -7 -15    5.90    4.00
   1   7 -15   -1.30    3.80
   0  -7 -15   11.00    5.90
   0   7 -15   14.80    5.70
   0   7  15   18.90    4.50
  -1  -7 -15   17.60    7.70
  -1   7 -15   15.30    5.70
   1   7  15   22.90    6.10
  -2  -7 -15   50.29   10.80
  -2   7 -15   72.29   10.40
   2   7  15   79.09   10.40
  -3  -7 -15   -5.10    6.10
  -3   7 -15    2.40    5.80
   3   7  15   -2.70    5.50
  -4  -7 -15    9.00    8.20
  -4   7 -15   27.10    7.60
   4   7  15   16.80    8.80
   5  -7  15   23.40    9.70
  -5  -7 -15   17.60   10.00
   5   7  15   15.90    9.10
  -6  -7 -15    7.70   11.60
   6  -7  15   14.90   10.70
   6   7  15   21.70   10.10
   9   8 -15   85.39   14.90
   8  -8 -15   20.70    7.70
   8   8 -15    8.20    7.60
   7  -8 -15    5.30    5.40
   7   8 -15   -2.10    5.10
   7   8 -15   12.10    5.10
   6  -8 -15    7.40    5.50
   6   8 -15   13.80    6.00
   6   8 -15    7.10    3.80
   5  -8 -15   51.79    9.20
   5   8 -15   31.80   10.60
   5   8 -15   54.19    6.10
   4  -8 -15   34.60    8.00
   4   8 -15   23.50    6.70
   3  -8 -15  101.19   11.40
   3   8 -15  100.19   11.50
   3   8 -15  109.09    8.00
   2  -8 -15    4.40    4.50
   2   8 -15    5.20    3.90
  -2   8  15   -1.60    1.80
   1  -8 -15   42.70   10.10
   1   8 -15   56.99    8.80
   0  -8 -15  141.59   14.40
   0   8  15  122.79    9.90
   0   8 -15   98.29   11.70
  -1  -8 -15  149.09   17.20
  -1   8 -15  126.69   12.80
   1   8  15  142.79   11.60
  -2  -8 -15   64.29   13.40
  -2   8 -15   95.39   11.70
   2   8  15   55.29   10.50
  -3  -8 -15   35.30    8.50
  -3   8 -15   20.40    7.00
   3   8  15   37.10    9.30
  -4  -8 -15   -7.20    7.40
  -4   8 -15   18.60    8.00
   4   8  15   18.80    7.40
  -5  -8 -15   80.39   16.70
   5   8  15   78.09   13.90
  -6   8 -15   27.50   13.60
   6   8  15   16.10   11.90
  -9  -9  15  138.19   18.60
   9   9 -15  111.59   15.00
   8   9 -15    1.00    6.70
   7  -9 -15   10.80    6.60
   7   9 -15    2.20    5.80
   7   9 -15    6.30    5.40
   6  -9 -15   17.80    6.90
   6   9 -15   19.60    7.20
   6   9 -15   19.40    5.40
   5  -9 -15   67.49   10.70
   5   9 -15   62.09    9.50
   5   9 -15   61.19    7.20
   4  -9 -15  310.97   19.20
   4   9 -15  300.97   19.50
   4   9 -15  276.37   13.70
   3  -9 -15   12.20    5.70
   3   9 -15   21.20    5.30
   3   9 -15   20.60    6.50
   2  -9 -15    1.40    6.00
  -2   9  15   -1.30    3.00
  -2   9  15   -1.50    3.70
   2   9 -15   -1.70    3.50
   1  -9 -15    9.80    6.80
   1   9 -15   16.30    6.10
  -1   9  15    6.10    3.90
   0  -9 -15   33.00    9.50
   0   9 -15   18.10    6.20
   0   9  15   22.40    5.40
  -1  -9 -15   50.29   10.80
  -1   9 -15   70.79   10.00
  -2  -9 -15  235.58   20.10
  -2   9 -15  279.47   18.00
   2   9  15  261.87   17.40
  -3  -9 -15    9.50    8.00
   3   9  15    5.00    6.80
  -3   9 -15    4.70    5.60
  -4  -9 -15    0.60    7.70
   4   9  15   -3.00    7.80
  -4   9 -15    8.00    7.50
  -5  -9 -15   -5.90    7.70
   5   9  15   -1.10    8.50
  -6  -9 -15   38.10   13.00
   6   9  15   34.70   13.30
  -9 -10  15   42.50   13.20
   9  10 -15    5.40    9.60
  -8 -10  15   12.30    7.80
   8  10 -15    5.60    7.70
   7 -10 -15   -0.40    5.80
   7  10 -15   -0.10    6.20
   7  10 -15    1.10    5.80
   6 -10 -15    7.90    5.90
   6  10 -15    6.20    5.00
   6  10 -15    0.20    5.70
   5 -10 -15  152.48   14.30
   5  10 -15  148.19   14.30
   5  10 -15  134.89   10.80
   4 -10 -15   55.99   10.10
   4  10 -15   67.09   10.90
   4  10 -15   83.79    8.90
   3 -10 -15   14.40    5.60
   3  10 -15   17.20    5.30
  -3  10  15   12.50    3.00
   3  10 -15   12.80    5.00
   2 -10 -15   20.50    7.40
   2  10 -15   30.90    7.40
  -2  10  15   22.00    4.40
   1 -10 -15    3.70    5.80
   1  10 -15    3.40    4.70
   0  10 -15   17.70    5.80
   0  10  15   12.10    6.20
  -1 -10 -15  225.08   19.10
  -1  10 -15  212.88   16.40
  -2 -10 -15   25.80    8.90
   2  10  15   23.20    7.50
  -2  10 -15   23.00    8.20
  -3 -10 -15    6.80    7.60
  -3  10 -15   -6.20    6.30
   3  10  15    9.60    8.10
  -4 -10 -15   48.90   12.20
  -5 -10 -15   42.10   15.00
  -5  10 -15   53.69   12.50
   5  10  15   70.29   14.60
  -8 -11  15    0.20    9.10
   8  11 -15  -10.70    6.60
   7  11 -15  109.49   13.50
   7  11 -15  115.99   12.40
   6 -11 -15   13.20    6.90
   6  11 -15    2.50    5.60
   6  11 -15    9.70    6.30
   5 -11 -15    5.70    5.90
   5  11 -15    3.10    5.90
   5  11 -15   11.20    5.90
   4 -11 -15   50.29   10.30
   4  11 -15   45.80    9.80
   4  11 -15   54.99    9.30
   3 -11 -15  -15.90    4.90
  -3  11  15    1.50    3.90
   3  11 -15   -6.50    3.90
   3  11 -15   -5.70    6.30
   2 -11 -15   14.80    5.70
   2  11 -15   25.50    7.80
  -2  11  15   19.40    5.30
   1 -11 -15  236.88   20.20
   1  11 -15  221.98   16.40
  -1  11  15  255.47   21.90
   0 -11 -15  105.49   14.50
   0  11 -15   94.19   11.70
  -1 -11 -15    7.50    6.40
   1  11  15   10.60    6.40
  -1  11 -15   14.50    6.30
  -2 -11 -15  107.79   16.00
  -2  11 -15  115.69   13.80
  -3 -11 -15  123.39   18.50
  -3  11 -15  126.39   15.30
   3  11  15  103.89   15.20
  -4 -11 -15    8.70    8.50
   4  11  15    0.60    9.40
  -4  11 -15   -2.00   13.20
  -5 -11 -15    8.90   14.20
   5  11  15   -1.40    9.70
   8 -12 -15   36.80    9.90
   7  12 -15   -2.90    7.20
   7  12 -15  -12.20    6.60
   6 -12 -15   -0.20    6.60
   6  12 -15   -2.40    6.30
   6  12 -15    7.80    6.60
   5 -12 -15   60.99   11.80
   5  12 -15   34.00    7.70
   5  12 -15   50.79   10.00
   4 -12 -15   -0.10    6.50
   4  12 -15   -1.20    4.80
   4  12 -15  -13.70    4.60
   3 -12 -15  114.09   13.80
   3  12 -15  139.89   13.50
  -3  12  15  105.09    9.20
   3  12 -15  120.39   11.40
   2 -12 -15   39.10    9.60
   2  12 -15   53.59    9.80
  -2  12  15   47.20    7.50
   1 -12 -15   78.59   13.10
  -1  12  15   67.39    9.90
   1  12 -15   95.69   11.60
   0 -12 -15   -0.80    5.90
   0  12 -15   -2.70    4.90
  -1 -12 -15   13.70    8.00
  -1  12 -15    0.30    6.20
  -2 -12 -15   52.39   13.20
  -2  12 -15   55.69   10.30
  -3 -12 -15   87.49   17.60
  -4 -12 -15   28.20   11.00
  -4  12 -15   36.50    9.90
   4  12  15   58.69   18.60
  -8 -13  15   16.50   13.00
   8  13 -15   13.50    9.10
   7 -13 -15   -3.10    8.50
   7  13 -15  -11.70    6.60
   6  13 -15    5.00    7.10
   6  13 -15   11.90    6.80
   5 -13 -15   15.80    7.00
   5  13 -15   28.50    6.70
   5  13 -15   16.80    7.00
   4 -13 -15  100.39   13.60
   4  13 -15   95.59   12.60
   3 -13 -15   36.90    8.80
   3  13 -15   43.30    8.10
   3  13 -15   30.00    8.70
  -3  13  15   44.20    7.90
   2 -13 -15   36.10   10.00
  -2  13  15   31.70    7.60
   2  13 -15   42.50    8.60
   1 -13 -15   18.80    8.10
   1  13 -15    6.60    5.70
   0 -13 -15    6.70    7.40
   0  13 -15    4.50    5.70
  -1 -13 -15   14.20    8.60
  -1  13 -15    7.60    6.80
  -2 -13 -15   79.09   17.10
  -3 -13 -15    2.40    9.20
  -3  13 -15    3.30    7.40
  -4 -13 -15   34.00   21.30
   7 -14 -15   -1.80   10.30
   7  14 -15  -16.80   11.90
   6  14 -15   48.50   10.60
   5  14 -15   91.49   13.50
   4 -14 -15   11.80    8.90
   4  14 -15    7.50    7.50
   3 -14 -15   13.20    8.30
  -3  14  15   11.80    7.50
   3  14 -15   18.10    7.30
   2 -14 -15    3.00    7.30
   2  14 -15    2.20    5.60
   1 -14 -15   19.10    8.50
   1  14 -15   20.50    8.10
   0 -14 -15    4.40    8.20
   0  14 -15    8.20    7.00
   0  14  15    5.40    7.80
  -1 -14 -15  355.56   27.20
  -2 -14 -15   -7.00    9.50
  -3 -14 -15   23.20   11.50
  -3  14 -15   33.00    9.80
   6 -15 -15   -0.40   10.10
   6  15 -15    8.70    7.20
   5  15 -15   -7.60    6.20
   4  15 -15  108.39   14.10
   3 -15 -15    8.80    8.70
  -3  15  15   16.00    8.40
   3  15 -15   13.30    8.00
   2 -15 -15   12.90    8.10
   2  15 -15    8.90    6.40
   1 -15 -15    3.90    7.80
   1  15 -15   60.29   10.50
  -1  15  15   24.00    8.70
   0 -15 -15   49.70   13.10
   0  15  15   21.90    9.50
  -1 -15 -15    7.40    9.50
  -2 -15 -15  141.89   20.40
  -2  15 -15  138.39   15.70
  -3 -15 -15   -9.50   10.80
   5 -16 -15  107.59   16.70
   5  16 -15   74.29   13.00
   4  16 -15    5.00    7.20
   3 -16 -15   10.50    9.30
   3  16 -15    5.70    7.10
   2 -16 -15  111.69   16.50
  -2  16  15   93.59   14.50
   2  16 -15   95.09   13.20
   1 -16 -15    2.30    9.90
   1  16 -15   -3.50    6.20
  -1  16  15    1.40    9.10
   0 -16 -15   13.80   10.30
   0  16  15   -0.40    9.50
  -1 -16 -15   58.29   14.70
  -2 -16 -15    3.80   12.70
   4 -17 -15    8.40   18.70
   4  17 -15   15.90    8.20
   3  17 -15   28.20    9.20
   2 -17 -15   -0.90    9.70
  -2  17  15   -6.10   12.60
   2  17 -15    3.90    7.10
   1 -17 -15   22.80   11.50
  -1  17  15   14.70   11.40
   0 -17 -15    2.80   10.50
   0  17 -15   20.10    9.10
  10   0 -16  221.88   21.10
   9   0 -16    2.40    6.70
   8   0 -16   57.89   10.60
   7   0 -16   -2.40    4.90
   6   0 -16    7.40    4.70
   5   0 -16   -1.40    3.40
   4   0 -16   59.79    9.30
   3   0 -16   -1.70    3.90
   2   0 -16  235.38   16.90
   1   0 -16   -0.10    4.00
   0   0 -16  177.68   15.30
   1   0  16    2.20    3.50
  -1   0 -16   -2.00    4.40
  -2   0 -16   40.20   10.00
   2   0  16   36.80    7.20
   3   0  16   -2.80    5.30
  -3   0 -16   -1.40    6.60
   4   0  16  171.88   15.70
  -4   0 -16  173.08   17.70
  -5   0 -16    6.80    9.10
   6   0  16   73.19   14.30
  -6   0 -16   66.29   15.70
  10  -1 -16    7.20    8.80
  10   1 -16   15.30    8.80
   9  -1 -16   72.89   12.30
   9   1 -16   66.39   13.00
   8  -1 -16   21.40    6.80
   8   1 -16   29.30    8.60
   7  -1 -16   84.49   11.40
   7   1 -16   77.79   11.50
   6  -1 -16   75.79   10.30
   6   1 -16   68.49   12.40
   5  -1 -16   29.10    8.10
   5   1 -16   24.70    6.90
   4  -1 -16   90.09   11.20
   4   1 -16   68.29   10.10
   3  -1 -16  169.58   14.00
   3   1 -16  170.58   14.40
   2  -1 -16    0.30    4.10
   2   1 -16   10.20    4.90
   1  -1 -16    9.20    5.00
   1   1 -16    8.40    5.30
   0  -1 -16   -3.40    4.30
   0   1 -16   -3.60    4.00
  -1  -1 -16   36.00    8.20
   1  -1  16   28.30    5.50
   1   1  16   37.10    6.60
  -1   1 -16   41.60    8.40
   2  -1  16   -3.70    4.50
  -2  -1 -16   -4.00    5.50
  -2   1 -16    5.70    5.70
   2   1  16   -2.40    4.60
  -3  -1 -16  106.29   14.50
   3  -1  16  131.49   12.70
   3   1  16  109.29   12.20
   4  -1  16   28.90    8.30
  -4  -1 -16    8.90    7.50
   4   1  16    4.00    6.50
  -4   1 -16   31.50    9.80
  -5  -1 -16   12.90    9.60
   5   1  16   -7.20   10.60
  -5   1 -16    5.80    8.20
   6  -1  16   -9.90    8.50
  -6  -1 -16  -15.60   10.80
  -6   1 -16    7.70   10.90
   6   1  16    6.40   10.30
  10  -2 -16   15.80    9.40
  10   2 -16   49.70   11.50
   9  -2 -16   13.00    7.30
   9   2 -16   -1.20    7.10
   8  -2 -16   89.09   12.40
   8   2 -16  103.79   13.90
   7  -2 -16   -0.60    5.00
   7   2 -16    1.10    5.40
   6  -2 -16    6.90    4.90
   5  -2 -16   32.00    7.50
   5   2 -16   28.80    6.40
   4  -2 -16  298.37   18.80
   4   2 -16  272.57   18.00
   3  -2 -16    4.20    4.90
   3   2 -16    3.00    3.90
   2  -2 -16    2.70    4.80
   2   2 -16   25.60    6.80
   1  -2 -16    6.20    5.40
   1   2 -16    5.50    2.60
   1   2 -16   17.70    6.00
   0  -2 -16    9.30    5.70
   0   2  16    2.70    3.00
   0   2 -16    3.50    4.20
  -1  -2 -16   10.70    6.40
   1   2  16   15.70    5.10
  -1   2 -16   21.80    6.10
  -2  -2 -16  486.05   31.30
   2  -2  16  489.35   24.00
  -2   2 -16  522.65   27.00
   2   2  16  509.85   21.70
  -3  -2 -16   -1.60    7.20
   3  -2  16    5.10    5.80
   3   2  16   -5.40    5.80
  -3   2 -16    0.80    6.60
  -4  -2 -16    6.10    8.20
   4  -2  16   -4.40    7.00
  -4   2 -16    2.50    7.10
   4   2  16    2.00    8.20
   5  -2  16   11.00    8.50
  -5  -2 -16   -5.80    8.30
  -5   2 -16   -5.80    8.20
   6  -2  16  -12.90    8.60
  -6  -2 -16   12.60   11.90
   6   2  16   -6.40    9.40
  -6   2 -16   23.80   11.20
  10  -3 -16   -2.10    8.70
  10   3 -16  -12.10    8.30
   9  -3 -16  146.79   15.40
   9   3 -16  167.28   17.70
   8  -3 -16   25.30    7.30
   8   3 -16   39.30    9.40
   7  -3 -16    1.60    7.00
   7   3 -16    2.40    4.70
   6  -3 -16   37.20    9.20
   6   3 -16   33.90    8.30
   5  -3 -16    0.60    5.10
   5   3 -16   -3.50    4.20
   4  -3 -16    1.20    4.00
   4   3 -16    0.30    3.50
   3  -3 -16  241.18   16.90
   3   3 -16  233.58   16.70
   2  -3 -16   -0.10    4.10
   2   3 -16    2.40    4.10
   1  -3 -16   -1.70    4.20
   1   3 -16   -1.80    3.90
   0  -3 -16   86.19   11.30
   0   3 -16   95.99   11.80
   0   3  16   72.09    6.00
  -1  -3 -16  132.59   14.50
  -1   3 -16  134.29   13.50
   1   3  16  131.49    9.70
   2  -3  16    2.30    4.40
  -2  -3 -16   -2.80    7.70
   2   3  16   -1.00    5.10
  -2   3 -16   -3.70    5.10
   3  -3  16   66.39   10.40
  -3  -3 -16   46.60   11.50
   3   3  16   33.80    8.20
  -3   3 -16   57.69   12.10
   4  -3  16    2.90    6.60
  -4  -3 -16    2.70    7.10
  -4   3 -16    3.50    7.60
  -5  -3 -16   -6.20    8.00
   5  -3  16    0.10    7.80
  -5   3 -16  -12.10    8.50
   6  -3  16    5.20    9.20
  -6  -3 -16   -3.60   10.00
   6   3  16   -0.20    8.80
  -6   3 -16    4.10   11.30
  10  -4 -16   42.80   10.90
  10   4 -16   49.70   11.70
   9  -4 -16    3.40    7.10
   9   4 -16    5.00    6.90
   8  -4 -16   38.10    8.70
   8   4 -16   27.30    8.20
   7   4 -16   14.00    7.50
   6  -4 -16   -2.50    4.90
   6   4 -16    3.70    5.20
   5  -4 -16   14.00    4.60
   5   4 -16   13.50    6.10
   4  -4 -16   54.69    8.80
   4   4 -16   65.09    9.40
   3  -4 -16    1.10    4.10
   3   4 -16    5.50    4.60
   2  -4 -16  241.68   17.90
   2   4 -16  200.98   15.60
   1  -4 -16  113.49   12.70
   1   4 -16  128.19   12.10
   0  -4 -16   10.90    6.40
   0   4 -16   17.20    6.60
   0   4  16   11.90    3.60
  -1  -4 -16    7.10    5.70
   1   4  16    9.80    4.40
  -1   4 -16   15.70    6.50
  -2  -4 -16  158.88   16.20
  -2   4 -16  171.68   16.30
  -3  -4 -16   10.60    7.20
   3  -4  16    2.40    5.50
  -3   4 -16   11.30    7.60
   3   4  16    9.60    6.20
  -4  -4 -16    7.80    8.40
   4  -4  16    9.30    6.90
   4   4  16    0.80    8.40
  -4   4 -16    3.50    7.50
  -5  -4 -16   -4.60    9.00
   5  -4  16   -3.40    8.80
   5   4  16   -6.30    7.50
  -5   4 -16   -0.70    8.80
   6  -4  16   -5.30    9.50
  -6  -4 -16  -13.00   10.70
   6   4  16  -12.10    9.40
  -6   4 -16   10.60   10.80
  10   5 -16   -4.80    9.70
   9  -5 -16    1.30    6.60
   9   5 -16    3.70    7.90
   8  -5 -16   41.10    8.80
   8   5 -16   31.40    9.00
   7   5 -16  162.88   15.60
   6  -5 -16   21.90    6.10
   6   5 -16   15.30    6.90
   5  -5 -16  189.58   15.20
   5   5 -16  218.68   25.40
   4  -5 -16   11.20    5.90
   4   5 -16   14.50    5.60
   3  -5 -16   22.60    7.20
   3   5 -16   32.50    8.50
   2  -5 -16    2.10    4.50
   2   5 -16    1.70    2.90
   2   5 -16   -1.10    3.40
   2   5 -16   -2.70    2.10
   1  -5 -16  236.08   18.10
   1   5 -16  228.58   16.90
   0  -5 -16    5.30    4.60
   0   5  16    1.80    3.40
   0   5 -16    1.20    4.70
  -1  -5 -16  139.99   22.50
  -1   5 -16  193.18   16.10
   1   5  16  166.98   11.20
  -2  -5 -16   -4.60    6.40
  -2   5 -16   -1.30    5.50
  -3  -5 -16   21.60    8.80
  -3   5 -16   21.70    8.30
   3   5  16   34.20    8.60
   4  -5  16    5.40    7.10
  -4  -5 -16   14.50    9.10
   4   5  16    9.90    7.60
  -4   5 -16   -6.40    7.70
   5  -5  16   -1.10    8.40
  -5  -5 -16   14.90   10.80
  -5   5 -16   26.40   10.50
   5   5  16   19.50    9.10
  -6  -5 -16  -20.50   11.60
   6  -5  16   42.90   13.40
   6   5  16   19.10   10.60
   9  -6 -16    1.90    7.70
   9   6 -16   -8.40    6.80
   8  -6 -16   79.89   12.20
   8   6 -16   71.59   12.50
   7   6 -16   -4.20    6.00
   6  -6 -16    2.10    5.20
   6   6 -16    3.00    4.80
   5  -6 -16   32.40    7.30
   5   6 -16   54.69   11.10
   4  -6 -16   61.99   10.10
   4   6 -16   56.19    9.30
   3  -6 -16   26.50    8.10
   3   6 -16   16.10    3.00
   3   6 -16   19.30    5.90
   2  -6 -16  459.25   24.60
   2   6 -16  460.55   24.00
   1  -6 -16   -4.60    4.30
   1   6 -16    0.80    4.50
   0  -6 -16    9.50    6.00
   0   6 -16    6.00    5.40
   0   6  16    4.20    3.40
  -1  -6 -16   65.29   12.40
  -1   6 -16   43.20    9.50
   1   6  16   48.20    7.90
  -2  -6 -16  289.67   22.10
  -2   6 -16  271.57   19.40
  -3  -6 -16  148.59   17.60
  -3   6 -16   86.39   13.70
   3   6  16   76.39   12.80
  -4  -6 -16   -0.80    8.10
   4   6  16   18.50    8.40
  -4   6 -16    3.30    9.40
  -5  -6 -16    6.60    9.60
   5  -6  16    1.40    8.40
  -5   6 -16    9.70   10.40
   5   6  16    1.40    8.40
   6  -6  16   19.30   11.30
  -6  -6 -16    1.00   12.80
   6   6  16   10.50   12.30
   9   7 -16   24.90    9.10
   8  -7 -16   14.40    7.10
   8   7 -16   -4.50    6.10
   7   7 -16    2.00    6.50
   6  -7 -16   -6.90    5.10
   6   7 -16   15.70    7.20
   5  -7 -16    3.50    5.00
   5   7 -16   -4.80    4.50
   4  -7 -16    1.00    4.80
   4   7 -16    0.10    2.50
   3  -7 -16  276.07   18.80
   3   7 -16  268.47   18.10
   3   7 -16  272.47   10.70
   2  -7 -16    0.00    4.50
   2   7 -16    9.50    5.00
   1  -7 -16   49.30   10.50
  -1   7  16   45.30    4.60
   1   7 -16   36.70    8.20
   0   7 -16   21.90    6.90
  -1  -7 -16   37.30   10.00
  -1   7 -16   36.80    8.20
   1   7  16   42.60    8.40
  -2  -7 -16    5.70    6.60
   2   7  16   -4.50    7.10
  -2   7 -16    3.00    5.50
  -3  -7 -16  120.19   17.80
  -3   7 -16  127.79   14.60
  -4  -7 -16   22.60    8.20
   4   7  16   16.90    9.20
  -4   7 -16    2.40    9.40
  -5  -7 -16    5.40   10.40
   5   7  16   -0.90   10.50
   8  -8 -16   76.69   13.50
   8   8 -16  105.29   14.30
   7   8 -16   -0.30    5.40
   6  -8 -16    6.60    6.40
   6   8 -16    6.20    6.20
   5  -8 -16   29.20    8.00
   5   8 -16   29.90    5.30
   5   8 -16   27.70    8.30
   4  -8 -16  155.28   14.20
   4   8 -16  195.98   16.00
   4   8 -16  158.58    8.80
   3  -8 -16   53.79   10.30
   3   8 -16   71.59    6.90
   3   8 -16   85.89   11.30
   2  -8 -16   89.99   12.10
   2   8 -16   86.79   10.70
   1  -8 -16  112.49   13.80
   1   8 -16  107.69   12.20
   0  -8 -16   15.00    7.00
   0   8 -16   26.40    7.80
  -1  -8 -16    7.30    6.90
  -1   8 -16    0.20    5.00
   1   8  16   -6.30    5.10
  -2  -8 -16  216.78   20.40
  -2   8 -16  253.67   18.20
  -3  -8 -16   15.60    7.90
  -3   8 -16   14.70    7.10
  -4  -8 -16   18.40   10.10
  -5  -8 -16   84.09   17.20
   9   9 -16   43.30   11.90
   8   9 -16   -8.80    5.90
   7  -9 -16  115.19   18.40
   7   9 -16  115.69   14.60
   6  -9 -16   43.80   10.20
   6   9 -16   37.00    9.40
   5  -9 -16  102.89   12.60
   5   9 -16   49.50    7.20
   5   9 -16   77.89   11.50
   4  -9 -16   43.20    9.10
   4   9 -16   34.50    6.50
   4   9 -16   43.60    8.90
   3  -9 -16  106.39   12.70
   3   9 -16   84.09   12.40
   3   9 -16   82.69    7.90
   2  -9 -16   -7.60    5.00
   2   9 -16    2.90    4.20
   1  -9 -16   -7.30    5.90
   1   9 -16   -9.90    4.60
  -1   9  16    0.60    3.90
   0  -9 -16    3.80    7.20
   0   9 -16    9.50    5.60
  -1  -9 -16  162.08   17.70
  -1   9 -16  164.58   15.10
  -2  -9 -16   -0.80    6.80
  -2   9 -16   15.20    7.60
  -3  -9 -16   86.19   16.20
  -3   9 -16   92.59   13.10
  -4  -9 -16    6.20    9.70
  -5  -9 -16   33.80   14.20
  -5   9 -16   26.00   12.10
   8  10 -16   26.10    9.30
   7  10 -16   84.19   12.70
   6 -10 -16    4.10    7.70
   6  10 -16   -3.70    5.60
   5 -10 -16    1.80    5.80
   5  10 -16   -3.50    5.20
   5  10 -16   -0.70    4.50
   4 -10 -16   58.69   10.50
   4  10 -16   56.79    8.30
   4  10 -16   56.29   10.00
   3 -10 -16   -0.80    6.30
   3  10 -16   -0.90    4.10
   3  10 -16    6.30    5.90
   2 -10 -16   71.69   13.90
   2  10 -16   85.69   18.90
  -2  10  16   74.59    6.70
   1 -10 -16   16.00    8.00
   1  10 -16   15.90    7.00
  -1  10  16   17.70    5.40
   0 -10 -16   35.10   11.10
   0  10  16    5.10    5.40
   0  10 -16   11.80    6.10
  -1 -10 -16   -4.90    7.20
  -1  10 -16    5.00    6.30
  -2 -10 -16    7.60    8.90
  -2  10 -16   15.30    7.20
  -3 -10 -16   56.89   13.90
  -4 -10 -16   66.89   15.30
   8 -11 -16   22.90   11.40
   8  11 -16   56.79   13.60
   7  11 -16  130.19   15.10
   6 -11 -16   -5.10   11.90
   6  11 -16    6.90    6.60
   5  11 -16   -1.80    5.30
   5  11 -16    4.40    5.90
   4  11 -16   30.40    7.80
   3 -11 -16   73.59   12.50
   3  11 -16   65.79    8.90
   3  11 -16   88.49   11.90
   2 -11 -16   35.20    8.30
  -2  11  16   32.70    5.90
   2  11 -16   29.60    7.20
   1 -11 -16   -8.20    5.60
  -1  11  16   -5.50    5.10
   0 -11 -16    0.00    7.10
   0  11  16    1.20    6.20
   0  11 -16    3.20    5.70
  -1 -11 -16   24.20    9.70
  -1  11 -16   13.90    6.90
  -2 -11 -16   -4.80    6.60
  -3 -11 -16  130.39   20.20
   7  12 -16    2.00    6.90
   6  12 -16    2.00    6.20
   5 -12 -16    8.50    7.30
   5  12 -16   11.40    7.10
   5  12 -16    5.80    5.70
   4 -12 -16   34.20    9.50
   4  12 -16   46.90    9.80
   4  12 -16   70.99    9.90
   3 -12 -16   10.50    7.20
   3  12 -16   -2.80    5.00
   3  12 -16    0.20    6.10
   2 -12 -16    6.90    7.50
  -2  12  16    3.20    5.80
   2  12 -16   15.00    6.30
   1 -12 -16   13.20    8.30
  -1  12  16    9.20    6.90
   1  12 -16   -5.90    5.20
   0 -12 -16   -2.10    6.90
   0  12 -16   12.50    8.30
   0  12  16    8.50    8.40
  -1 -12 -16   22.30    9.70
  -1  12 -16   14.10   12.00
   1  12  16   -6.90    7.10
  -2 -12 -16   60.49   15.80
  -3 -12 -16   -2.90   10.50
  -4 -12 -16   26.30   12.80
   7 -13 -16   10.80   10.40
   7  13 -16   22.60   10.60
   6  13 -16   33.80    9.80
   5 -13 -16   11.40    8.90
   5  13 -16    1.10    6.90
   5  13 -16    3.40    6.30
   4 -13 -16    1.40    7.60
   4  13 -16    6.80    6.30
   4  13 -16    1.80    6.20
   3 -13 -16  241.88   20.20
   3  13 -16  246.08   18.90
   3  13 -16  208.78   15.50
   2 -13 -16    6.80    7.60
   2  13 -16   -5.90    5.40
   1 -13 -16   15.30    8.50
   1  13 -16   -5.50    5.80
  -1  13  16   -0.40   11.40
   0 -13 -16   82.49   15.60
   0  13 -16  111.19   12.90
  -1 -13 -16   12.00    9.50
   1  13  16   45.80    9.90
  -2 -13 -16  -10.90    9.30
   6  14 -16   -2.20    6.50
   5  14 -16   32.90    8.60
   4 -14 -16   53.29   11.70
   4  14 -16   56.69   13.50
   4  14 -16   50.39   11.20
   3 -14 -16   11.50    9.50
   3  14 -16    5.10    6.10
   2 -14 -16    9.70    8.20
   2  14 -16   14.90    7.30
   1 -14 -16  106.99   15.70
  -1  14  16   64.89   12.10
   1  14 -16   64.59   11.70
   0 -14 -16  150.28   19.90
   0  14  16  135.89   16.50
  -1 -14 -16   12.40   11.50
   1  14  16   -2.60    9.60
  -2 -14 -16   -6.90    9.50
  -2  14 -16   -3.90    7.90
   5  15 -16   74.39   14.20
   4  15 -16    3.50    7.80
   4  15 -16   14.90    8.50
   3 -15 -16   34.90   10.70
   3  15 -16   29.90    9.30
   2 -15 -16  117.49   16.70
   2  15 -16  115.29   13.70
   1 -15 -16  -10.30    8.10
   1  15 -16  -10.80    6.10
   0 -15 -16    1.20   10.20
   0  15  16    6.70    9.80
  -1 -15 -16   32.80   12.80
  -1  15 -16   13.80    8.50
   1  15  16   28.70   11.90
   4  16 -16   40.50   10.30
   3 -16 -16   15.80   10.20
   3  16 -16   26.00    9.30
   2 -16 -16    7.90   10.20
   2  16 -16   15.40    7.90
   1 -16 -16  -15.00    9.20
   0 -16 -16   11.10   11.70
   0  16  16   -6.90   13.40
   9   0 -17    9.20    8.50
   8   0 -17    2.20    6.00
   7   0 -17  156.38   15.40
   6   0 -17    0.00    5.30
   5   0 -17    5.10    4.40
   4   0 -17    0.20    4.20
   3   0 -17  165.28   14.90
   2   0 -17   -6.70    3.80
   1   0 -17   16.50    6.50
   0   0 -17    3.40    4.90
  -1   0 -17   -4.00    5.30
  -2   0 -17    0.80    6.20
  -3   0 -17  230.88   20.40
  -4   0 -17   10.50    8.50
  -5   0 -17   33.00   12.30
   9  -1 -17   25.60    8.90
   9   1 -17   40.40   11.60
   8  -1 -17   93.29   13.20
   8   1 -17  101.79   13.40
   7  -1 -17   57.39   10.30
   7   1 -17   37.70    8.60
   6  -1 -17   44.10   10.10
   6   1 -17   36.50    9.10
   5  -1 -17   62.99   12.10
   5   1 -17   67.39   10.50
   4  -1 -17    3.50    4.60
   4   1 -17    6.70    5.30
   3  -1 -17   61.39   10.40
   3   1 -17   74.59   10.50
   2  -1 -17  209.68   17.00
   2   1 -17  220.88   17.00
   1  -1 -17    2.00    4.70
   1   1 -17    1.80    4.80
   0  -1 -17    1.90    5.80
   0   1 -17   -0.40    5.20
  -1  -1 -17   60.99   11.50
  -1   1 -17   63.59   16.80
  -2  -1 -17  125.79   16.10
  -2   1 -17  121.69   14.80
  -3  -1 -17    3.80    7.80
  -3   1 -17    1.00    6.70
  -4  -1 -17  112.79   16.50
  -4   1 -17  129.89   17.40
  -5  -1 -17    2.90   10.40
  -5   1 -17    9.40    8.90
   9  -2 -17   16.30    8.80
   9   2 -17   16.40    7.80
   8  -2 -17   -5.40    6.10
   8   2 -17   -6.30    6.40
   7  -2 -17   74.19   11.20
   7   2 -17  102.29   13.20
   6  -2 -17   -0.90    4.80
   6   2 -17    6.50    5.50
   5  -2 -17   13.40   10.60
   5   2 -17    2.40    4.60
   4  -2 -17    8.60    5.30
   3  -2 -17   12.20    6.70
   3   2 -17   14.10    6.20
   2  -2 -17   13.10    6.10
   2   2 -17   18.00    7.10
   1  -2 -17  131.69   14.10
   1   2 -17  106.39   12.60
   0   2 -17   30.20    8.80
  -1  -2 -17   23.20    6.80
  -2  -2 -17    7.60    6.80
  -2   2 -17   19.50    6.50
  -3  -2 -17   -1.60    7.30
  -3   2 -17    2.40    7.70
  -4  -2 -17  -10.30    7.40
  -4   2 -17    5.10    9.00
  -5  -2 -17   24.80   12.90
  -5   2 -17   39.00   13.50
   9  -3 -17    1.50    7.30
   9   3 -17    9.30    8.20
   8  -3 -17  148.79   15.20
   8   3 -17  160.38   16.30
   7  -3 -17    9.60    6.70
   7   3 -17   10.10    6.80
   6  -3 -17  182.68   15.90
   6   3 -17  167.18   15.00
   5  -3 -17    0.20    7.90
   5   3 -17    2.40    4.10
   4  -3 -17  102.79   12.20
   4   3 -17   95.19   13.60
   3  -3 -17   33.10    9.20
   3   3 -17   65.79   10.60
   2  -3 -17   61.49   10.10
   2   3 -17   65.59   10.20
   1  -3 -17    9.60    6.30
   1   3 -17   17.20    5.40
   0  -3 -17   50.09   10.90
   0   3 -17   67.99   11.00
  -1  -3 -17   -1.60    6.50
  -2  -3 -17   34.90    9.50
  -2   3 -17   56.29   11.40
  -3  -3 -17    8.00    8.30
  -3   3 -17   15.10    9.10
  -4  -3 -17   84.69   16.20
   4  -3  17  123.99   19.50
  -4   3 -17  108.19   16.60
  -5  -3 -17   -3.80    9.20
  -5   3 -17   13.30   11.30
   9  -4 -17    7.90    8.00
   9   4 -17   15.40    8.20
   8  -4 -17   13.50    7.00
   8   4 -17   10.80    8.30
   7  -4 -17   98.29   13.50
   7   4 -17   85.49   13.20
   6  -4 -17   18.90    7.30
   6   4 -17   26.20    8.00
   5  -4 -17   -8.50    9.10
   5   4 -17    0.40    4.30
   4  -4 -17   14.00    6.30
   4   4 -17   22.70    6.60
   3  -4 -17  154.68   15.30
   3   4 -17  211.58   22.60
   2  -4 -17   20.60    7.40
   2   4 -17   21.80    6.90
   1   4 -17   70.59   10.80
   0  -4 -17   90.89   12.00
   0   4 -17   62.49   10.30
  -1  -4 -17   -2.50    6.20
  -2  -4 -17   28.70    9.40
  -2   4 -17    2.80    6.10
  -3  -4 -17   97.19   15.30
  -3   4 -17   73.69   13.00
  -4  -4 -17   64.99   13.80
  -4   4 -17   62.69   13.70
  -5  -4 -17  -12.00   10.00
  -5   4 -17   -8.10    9.80
   9  -5 -17    7.50    8.40
   9   5 -17   16.40    8.80
   8  -5 -17  173.28   16.90
   8   5 -17  167.88   17.10
   7  -5 -17   13.30    6.20
   7   5 -17   -4.60    5.20
   6  -5 -17    0.90    5.40
   6   5 -17   -5.00    4.90
   5  -5 -17   59.69   11.00
   5   5 -17   62.59   10.90
   4  -5 -17   17.10   10.60
   4   5 -17   11.80    6.10
   3  -5 -17   21.80    7.80
   3   5 -17   11.20    6.50
   2  -5 -17  329.97   32.70
   2   5 -17  251.87   19.70
   1  -5 -17   -5.60    5.40
   1   5 -17   -3.80    4.40
   0   5 -17   35.60    8.60
   0   5  17   30.90    5.20
  -1  -5 -17   50.79   10.90
  -2  -5 -17   -0.70    7.50
  -2   5 -17   12.60    8.20
  -3  -5 -17    9.20    7.70
  -3   5 -17    9.60    7.70
  -4  -5 -17  117.79   17.60
  -4   5 -17   82.09   14.40
  -5  -5 -17   20.00   12.00
  -5   5 -17    3.60    9.70
   9  -6 -17   54.49   11.50
   8  -6 -17   18.70    8.30
   8   6 -17   13.20    9.10
   7  -6 -17  127.39   15.00
   7   6 -17  130.29   15.40
   6  -6 -17   11.00    5.90
   6   6 -17   14.80    6.00
   5  -6 -17    9.20    6.60
   5   6 -17    6.10    5.60
   4   6 -17   16.40    6.50
   3   6 -17  184.58   15.90
   2  -6 -17   27.00    8.00
   1  -6 -17  166.48   16.00
   1   6 -17  162.18   19.30
   0  -6 -17   39.90    9.80
   0   6  17   33.30    6.30
   0   6 -17   20.90    9.50
  -1  -6 -17   16.30    7.80
   1   6  17   17.50    5.70
  -2  -6 -17   17.00    7.70
  -2   6 -17    2.10    6.80
  -3  -6 -17  136.59   18.60
  -3   6 -17  149.59   16.80
  -4  -6 -17    0.80    9.10
  -4   6 -17   -5.80    7.90
   9   7 -17   40.20   10.60
   8  -7 -17   66.49   13.20
   8   7 -17   40.10   10.40
   7  -7 -17   -0.50    6.60
   7   7 -17    8.70    6.70
   6  -7 -17   79.79   11.90
   6   7 -17   78.79   12.60
   5  -7 -17    9.30    6.50
   5   7 -17   13.20    6.80
   4  -7 -17  132.89   14.50
   4   7 -17  130.99   13.80
   3  -7 -17    0.00    4.80
   3   7 -17   -1.20    4.50
   2  -7 -17   45.00   10.60
   2   7 -17   30.00    7.30
   2   7 -17   46.60    5.60
   1  -7 -17    6.20    6.70
   1   7 -17    7.40    8.30
   0  -7 -17   68.99   13.20
   0   7  17   69.79    7.70
  -1  -7 -17   58.19   12.50
   1   7  17   86.29   10.70
  -1   7 -17   82.79   14.40
  -2  -7 -17   83.89   14.90
  -2   7 -17   97.39   13.80
  -3  -7 -17    3.20    8.20
  -3   7 -17    6.00    8.90
  -4  -7 -17   26.70   11.30
  -4   7 -17   19.90   11.20
  -5  -7 -17   25.10   12.00
   8  -8 -17   14.60    8.70
   8   8 -17   12.40    7.20
   7  -8 -17  103.09   14.60
   7   8 -17  108.39   14.80
   6  -8 -17   -4.10    7.00
   6   8 -17   -9.20    5.30
   5  -8 -17   -5.70    6.10
   5   8 -17   -2.20    4.80
   4  -8 -17   72.39   11.50
   4   8 -17  111.59   12.80
   3  -8 -17   89.69   12.70
   3   8 -17   41.30    6.00
   3   8 -17   71.09   10.30
   2  -8 -17   13.50    6.20
   2   8 -17    6.50    5.70
   1  -8 -17  131.29   15.10
   1   8 -17  152.28   14.60
   0  -8 -17   17.50    7.80
   0   8 -17   13.90    6.90
   0   8  17   15.60    5.30
  -1  -8 -17   28.40    9.40
   1   8  17   34.00    7.50
  -1   8 -17   21.50    8.90
  -2  -8 -17   -1.20    8.20
  -2   8 -17    5.20    6.50
  -3  -8 -17   61.99   14.00
  -3   8 -17   56.69   11.50
  -4  -8 -17  149.19   19.90
  -4   8 -17  117.89   24.80
   8   9 -17   40.20   18.60
   7  -9 -17   48.40   10.80
   7   9 -17   60.89   12.20
   6  -9 -17   28.80    9.10
   6   9 -17   32.60    9.40
   5  -9 -17   66.09   12.00
   5   9 -17   44.40   10.10
   4  -9 -17    2.10    6.50
   4   9 -17    5.40    5.10
   3  -9 -17   52.49   11.10
   3   9 -17   36.40    6.00
   3   9 -17   30.40    7.70
   2  -9 -17  144.89   16.60
   2   9 -17  160.88   14.90
   1  -9 -17   70.39   13.20
   1   9 -17   82.89   11.90
   0  -9 -17   23.10    9.80
   0   9 -17   18.10    6.90
   0   9  17    2.80    5.50
  -1  -9 -17   14.00    9.00
  -1   9 -17    6.60    7.00
  -2  -9 -17   16.40    9.70
   2   9  17   31.10    8.30
  -2   9 -17   10.90    7.80
  -3  -9 -17    0.60    8.80
  -3   9 -17   -8.60    9.20
   3   9  17   -2.30    9.30
  -4  -9 -17   33.10   16.10
   8  10 -17   -7.60    6.60
   7 -10 -17   41.80   10.20
   7  10 -17   51.99   11.40
   6 -10 -17    1.10    6.90
   6  10 -17   14.00    7.70
   5 -10 -17   40.60   10.00
   5  10 -17   35.90    9.70
   4 -10 -17   14.90    6.60
   4  10 -17    5.30    6.00
   3 -10 -17   75.29   13.40
   3  10 -17   78.79   11.50
   3  10 -17   74.39    9.00
   2 -10 -17   -6.80    5.40
   2  10 -17    0.30    6.10
   1 -10 -17   10.40    7.50
   1  10 -17   23.90    7.60
   0 -10 -17    8.00    7.40
   0  10  17    5.80    6.30
   0  10 -17   15.20    7.00
  -1 -10 -17   44.50   10.90
  -1  10 -17   60.89   11.90
  -2 -10 -17   12.20    8.90
   2  10  17    7.80    8.80
  -2  10 -17    8.10    8.00
  -3 -10 -17  159.28   21.60
   3  10  17  138.09   18.10
  -4 -10 -17   -7.40   11.40
  -4  10 -17  -16.20    9.30
   4  10  17   -6.70   12.60
   6 -11 -17   92.89   15.40
   6  11 -17  127.29   15.40
   5 -11 -17   39.40   10.30
   5  11 -17   63.09   12.20
   4 -11 -17    2.40    8.30
   4  11 -17   16.50    6.80
   3 -11 -17   -0.30    7.50
   3  11 -17    4.60    5.80
   3  11 -17   10.70    6.70
   2 -11 -17  149.09   16.80
   2  11 -17  147.29   15.40
   1 -11 -17   47.60   11.20
   1  11 -17   27.20    8.40
   0 -11 -17   18.60    9.40
   0  11  17    3.60    6.80
   0  11 -17    9.70    7.30
  -1 -11 -17   25.70   11.70
  -1  11 -17   37.80   10.00
   1  11  17   37.70   10.50
  -2 -11 -17  141.49   19.50
   2  11  17  129.69   17.10
  -3 -11 -17  -13.40   17.30
   3  11  17   10.10   17.10
   7  12 -17   49.99   12.30
   6  12 -17    1.70    7.20
   5 -12 -17   84.29   15.00
   5  12 -17   58.09   11.60
   4 -12 -17    2.00    7.50
   4  12 -17    5.00    6.30
   3 -12 -17  103.79   15.60
   3  12 -17  118.59   11.70
   3  12 -17   76.89   12.70
   2 -12 -17    6.00    7.90
   2  12 -17    6.10    6.90
   1 -12 -17  112.39   16.40
   1  12 -17  108.69   14.10
   0 -12 -17   43.90   12.10
   0  12 -17   29.80    9.00
  -1 -12 -17   99.19   17.70
  -1  12 -17   95.09   13.80
   1  12  17   64.49   11.50
  -2 -12 -17   15.80   10.90
   2  12  17   26.70   11.80
  -3 -12 -17   28.10   13.90
   3  12  17    8.50   12.50
  -3  12 -17   21.70   11.20
   6  13 -17   30.10   16.90
   5 -13 -17   25.10    9.90
   5  13 -17   20.40    9.80
   4 -13 -17    7.80    8.20
   4  13 -17    7.80    6.80
   3 -13 -17   41.10   10.20
   3  13 -17   37.50    8.10
   3  13 -17   34.80    9.20
   2 -13 -17  102.09   16.40
   2  13 -17   71.19   12.80
   1 -13 -17   -7.60    8.20
   1  13 -17    1.70    6.80
   0 -13 -17   15.90    9.00
   0  13 -17    0.10    6.70
  -1 -13 -17   -1.00    9.90
   1  13  17    9.50    9.60
  -2 -13 -17    1.00   13.60
   2  13  17   12.70   11.80
  -2  13 -17   10.40    8.80
   5  14 -17   20.90   10.30
   4 -14 -17   15.70    8.90
   4  14 -17   13.90    8.20
   3 -14 -17   50.39   12.90
   3  14 -17   44.40    9.90
   2 -14 -17    6.00    9.20
   2  14 -17   -6.40    6.50
   1 -14 -17   38.00   12.20
   1  14 -17   13.40    8.20
   0 -14 -17    6.60   10.20
   4  15 -17   13.80    8.30
   3 -15 -17   -6.70    9.50
   3  15 -17   -4.90    7.10
   2 -15 -17  131.19   19.50
   2  15 -17  122.39   16.20
   1 -15 -17    0.30   10.00
   1  15 -17   -3.20    7.90
   9   0 -18    2.60    8.80
   8   0 -18   40.20   11.10
   7   0 -18    0.90    6.10
   6   0 -18  182.18   16.70
   5   0 -18   -4.20    4.50
   4   0 -18   41.50    9.00
   3   0 -18   -3.00    4.20
   2   0 -18   13.30    6.00
   1   0 -18   -2.60    5.50
   0   0 -18  301.37   21.40
  -1   0 -18   -1.10    5.70
   2   0  18   34.40    7.30
  -2   0 -18   22.60    9.50
  -3   0 -18   -1.00    8.20
   3   0  18   13.90    7.30
  -4   0 -18   15.30   10.30
  -5   0 -18   16.60   11.90
   9  -1 -18    8.90    8.90
   9   1 -18  -10.90    8.30
   8  -1 -18   -0.80    7.30
   8   1 -18    4.90    7.70
   7  -1 -18   -2.00    6.00
   7   1 -18    0.10    6.30
   6  -1 -18   16.10    6.90
   6   1 -18   17.80    6.60
   5  -1 -18  125.29   13.30
   5   1 -18  110.29   13.30
   4  -1 -18   24.20    8.00
   4   1 -18   33.70    9.10
   3  -1 -18   44.30    9.70
   3   1 -18   27.20    7.90
   2  -1 -18   35.00    8.40
   2   1 -18   37.10   10.10
   1  -1 -18   46.20   10.10
   1   1 -18   72.09   11.50
   0  -1 -18   28.60    8.70
   0   1 -18   22.90    8.30
  -1  -1 -18   65.29   12.70
  -1   1 -18   40.90    9.60
  -2  -1 -18   18.80    9.30
  -2   1 -18    5.40    7.60
   2   1  18   18.80    7.80
  -3  -1 -18   82.49   16.00
   3   1  18   93.79   13.60
  -3   1 -18   83.59   14.80
  -4  -1 -18   20.50   11.30
  -4   1 -18   10.10    9.80
  -5  -1 -18    4.40   13.20
  -5   1 -18   24.50   12.20
   9  -2 -18   -1.50    8.90
   9   2 -18   10.50    9.20
   8  -2 -18   48.90   10.80
   8   2 -18   27.60   10.00
   7  -2 -18   63.79   11.80
   7   2 -18   74.29   12.70
   6  -2 -18  124.19   14.10
   6   2 -18  146.29   15.30
   5  -2 -18   61.09   10.60
   5   2 -18   67.49   11.20
   4  -2 -18   -3.90    5.30
   4   2 -18   11.40    6.50
   3  -2 -18   13.60    6.00
   3   2 -18    7.10    6.10
   2  -2 -18  117.69   13.60
   2   2 -18  111.49   13.30
   1  -2 -18   20.30    7.60
   1   2 -18   11.10    6.20
   0  -2 -18   46.00   10.40
   0   2 -18   54.69   11.30
  -1  -2 -18  -12.60    6.20
  -1   2 -18   -5.20    5.40
   1   2  18   -3.30    4.80
  -2  -2 -18   47.20   12.50
   2   2  18   54.89   12.20
  -2   2 -18   37.40    9.30
  -3  -2 -18   -3.30    8.60
   3   2  18   -2.00    7.50
  -3   2 -18   14.50    9.00
  -4  -2 -18  175.18   21.40
  -4   2 -18  207.48   20.80
  -5   2 -18    8.50   11.70
   9  -3 -18   -1.70    8.80
   8  -3 -18   63.99   12.50
   8   3 -18   58.09   12.30
   7  -3 -18   94.79   13.60
   7   3 -18   81.09   13.10
   6  -3 -18    1.10    5.40
   6   3 -18   -0.80    5.30
   5  -3 -18    0.80    6.50
   5   3 -18   16.20    6.10
   4  -3 -18   52.09   10.20
   4   3 -18   54.29   11.00
   3  -3 -18    5.90    5.50
   3   3 -18    4.70    5.30
   2  -3 -18   13.70    6.70
   2   3 -18   13.00    7.10
   1  -3 -18  328.77   22.20
   1   3 -18  338.87   22.20
   0  -3 -18   -0.80    4.60
   0   3 -18   -1.90    6.20
  -1  -3 -18    3.30    7.60
  -1   3 -18   -0.20    5.50
   1   3  18    7.10    5.10
  -2  -3 -18    6.00    7.40
  -2   3 -18   -6.10    6.40
   2   3  18   -7.90    6.90
  -3  -3 -18   17.00    9.50
   3   3  18   27.90    9.40
  -3   3 -18    9.80    8.90
  -4  -3 -18   72.39   15.40
  -4   3 -18   70.79   14.90
   9  -4 -18    2.40    9.20
   9   4 -18   12.10    9.10
   8  -4 -18  -10.40    7.10
   8   4 -18    1.90    7.20
   7  -4 -18   26.80    8.50
   7   4 -18   24.10    8.90
   6  -4 -18   96.39   13.40
   6   4 -18   76.89   12.80
   5  -4 -18   -1.80    4.80
   5   4 -18    2.20    4.70
   4  -4 -18   40.30   10.00
   4   4 -18   42.90   10.00
   3  -4 -18    8.30    5.40
   3   4 -18    4.40    5.30
   2  -4 -18   95.49   13.60
   2   4 -18  110.79   12.80
   1  -4 -18   15.40    7.30
   1   4 -18   46.90   10.40
   0  -4 -18  135.69   15.40
   0   4 -18  120.09   14.40
  -1  -4 -18   42.90   10.30
   1   4  18   49.80    7.40
  -1   4 -18   61.99   12.20
  -2  -4 -18   -8.00    7.10
  -2   4 -18    8.40    7.50
   2   4  18   13.40    9.60
  -3  -4 -18    6.30    8.70
   3   4  18   -2.60    7.40
  -3   4 -18    3.10    8.40
  -4  -4 -18   52.69   14.00
  -4   4 -18   44.10   13.40
   4   4  18   30.40   12.00
   8  -5 -18   10.00    8.20
   8   5 -18   16.60    9.10
   7  -5 -18   78.59   13.80
   7   5 -18   82.69   12.80
   6  -5 -18   33.90    9.00
   6   5 -18   36.00    9.90
   5  -5 -18  259.27   18.80
   5   5 -18  236.58   18.40
   4  -5 -18   20.00    6.60
   4   5 -18    8.00    5.90
   3  -5 -18   52.99   10.60
   3   5 -18   95.99   12.50
   2  -5 -18   34.80    8.10
   2   5 -18   56.59   11.50
   1  -5 -18   27.00    8.90
   1   5 -18   15.90    7.10
   0  -5 -18   -2.50    5.30
   0   5 -18   -6.40    6.20
  -1  -5 -18   25.50    8.70
   1   5  18   20.70    6.60
  -1   5 -18   27.10    9.50
  -2  -5 -18  -12.70    7.10
  -2   5 -18    7.50    7.10
  -3  -5 -18  107.69   18.30
   3   5  18   83.09   14.50
  -3   5 -18   87.79   16.10
  -4  -5 -18    9.60   10.70
  -4   5 -18   -2.90    9.50
   4   5  18    1.40    9.90
   8  -6 -18   91.99   15.60
   8   6 -18  103.39   17.00
   7  -6 -18   30.50    8.90
   7   6 -18   36.20    9.10
   6  -6 -18  128.59   15.50
   6   6 -18  110.39   14.40
   5  -6 -18   42.90    9.40
   5   6 -18   33.90    9.00
   4  -6 -18   13.40    6.10
   4   6 -18    6.40    6.70
   3  -6 -18    2.00    5.70
   3   6 -18    6.80    5.70
   2  -6 -18  182.08   17.40
   2   6 -18  190.08   16.80
   1  -6 -18   24.90    8.80
   1   6 -18   18.30    7.60
   0  -6 -18   92.69   14.50
   0   6 -18   80.39   12.10
  -1  -6 -18    0.50    6.20
   1   6  18   -2.50    5.70
  -1   6 -18    6.90    7.20
  -2  -6 -18   61.59   12.20
  -2   6 -18   27.20    9.20
  -3  -6 -18   20.40   10.30
   3   6  18   27.20    9.80
  -3   6 -18   29.90   11.10
  -4  -6 -18   18.70   21.20
  -4   6 -18    8.90   10.60
   8  -7 -18  139.29   17.20
   8   7 -18  108.99   18.30
   7  -7 -18  114.79   16.20
   7   7 -18  127.19   16.00
   6  -7 -18   92.99   13.90
   6   7 -18   68.29   12.30
   5  -7 -18   -3.50    6.40
   5   7 -18    6.40    6.30
   4  -7 -18    5.40    6.20
   4   7 -18   12.40    7.30
   3  -7 -18   53.69   11.30
   3   7 -18   40.10    9.10
   2  -7 -18   16.00    7.40
   2   7 -18   22.40    8.40
   1  -7 -18  199.48   18.70
   1   7 -18  156.38   15.70
   0  -7 -18   33.10   11.20
   0   7 -18   27.90    8.80
  -1  -7 -18   -6.10    6.80
  -1   7 -18   -5.00    6.50
   1   7  18   -5.70    7.20
  -2  -7 -18    1.50    8.40
  -2   7 -18   -8.60    7.00
   2   7  18    0.10    7.90
  -3  -7 -18    3.60    9.90
   3   7  18   -0.40    8.80
  -3   7 -18   -2.00    8.90
  -4  -7 -18    7.30   11.30
   4   7  18   -3.80   11.40
  -4   7 -18  -14.60    9.60
   8  -8 -18    4.20    9.00
   8   8 -18    5.30    8.40
   7  -8 -18    3.60    8.60
   7   8 -18   -5.90    6.50
   6  -8 -18  121.49   15.20
   6   8 -18  138.99   15.50
   5  -8 -18   -7.30    6.10
   5   8 -18    5.10    6.40
   4  -8 -18   -1.60    6.20
   4   8 -18    1.20    5.60
   3  -8 -18    0.30    5.20
   3   8 -18    1.70    5.30
   2  -8 -18    7.50    7.60
   2   8 -18   15.00    6.80
   1  -8 -18    4.90    6.80
   1   8 -18    9.20    6.60
   0  -8 -18   42.20   11.00
   0   8 -18   34.00    9.60
  -1  -8 -18    5.10    7.80
  -1   8 -18   -6.10    7.50
  -2  -8 -18  -25.80    7.50
   2   8  18  -23.30    7.80
  -2   8 -18  -12.20    7.40
  -3  -8 -18    2.70   10.70
  -3   8 -18   -2.60    8.70
   3   8  18   -6.60   10.30
   7  -9 -18   83.99   15.10
   6  -9 -18   14.00    7.80
   6   9 -18    4.80    7.00
   5  -9 -18  105.29   15.10
   5   9 -18  132.79   15.60
   4  -9 -18    9.40    7.10
   4   9 -18    6.70    6.40
   3  -9 -18   66.99   12.30
   3   9 -18   72.59   11.30
   2  -9 -18   19.50    8.50
   2   9 -18   18.20    6.80
   1  -9 -18  139.19   18.00
   1   9 -18  159.58   16.10
   0  -9 -18   -8.70    8.00
   0   9 -18    7.40    6.90
  -1  -9 -18   49.50   12.50
  -1   9 -18   63.19   12.20
  -2  -9 -18   30.50   14.10
   2   9  18   15.00   11.20
  -2   9 -18   11.70    9.50
  -3  -9 -18  107.49   19.10
   3   9  18   86.19   15.80
   7 -10 -18   55.29   14.40
   7  10 -18   29.40    9.80
   6 -10 -18   86.19   15.30
   6  10 -18  120.79   15.80
   5 -10 -18   16.60    7.70
   5  10 -18   33.70    9.20
   4 -10 -18    2.60    6.90
   4  10 -18    3.30    6.10
   3 -10 -18    5.40    7.90
   3  10 -18   -5.70    5.90
   2 -10 -18   16.50    9.10
   2  10 -18    1.00    6.70
   1 -10 -18    0.20    8.10
   1  10 -18    3.00    6.60
   0 -10 -18   86.89   16.60
   0  10 -18   76.89   13.80
  -1 -10 -18  -10.60    8.30
  -1  10 -18   -3.50    7.80
  -2 -10 -18   39.60   13.30
  -2  10 -18   16.40    9.60
   6 -11 -18    4.20    8.60
   5 -11 -18   31.70    9.60
   5  11 -18   16.00    6.80
   4 -11 -18  -16.00    7.20
   4  11 -18   -4.10    6.90
   3 -11 -18   44.70   11.30
   3  11 -18   33.60    9.00
   2 -11 -18   14.00    9.20
   2  11 -18    6.90    7.40
   1 -11 -18  105.49   16.70
   1  11 -18   65.59   12.70
   0 -11 -18   13.10    9.50
   0  11 -18    9.90    8.30
  -1 -11 -18   24.40   11.90
  -1  11 -18   13.60    9.50
  -2 -11 -18   19.10   11.10
   5 -12 -18   20.00    9.90
   5  12 -18   49.80   11.50
   4 -12 -18   11.40    8.90
   4  12 -18    5.40    7.10
   3 -12 -18   11.30    9.70
   3  12 -18    5.30    6.30
   2 -12 -18   54.49   13.40
   2  12 -18   42.10    9.60
   1 -12 -18    2.10    9.20
   1  12 -18    2.60    7.40
   0 -12 -18   30.60   11.70
   0  12 -18   28.80   10.10
  -1 -12 -18   11.30   20.00
   4  13 -18  102.19   15.30
   3 -13 -18   15.50   10.60
   3  13 -18    1.40    7.30
   2 -13 -18   11.80   10.10
   2  13 -18   -6.80    7.40
   1 -13 -18   55.09   13.90
   1  13 -18  104.59   15.30
   0 -13 -18    7.00   11.30
   0  13 -18    5.40    8.80
   2 -14 -18   23.50   11.70
   2  14 -18   51.09   11.70
   8   0 -19   -8.20    6.50
   7   0 -19   77.79   13.50
   6   0 -19   -6.10    5.50
   5   0 -19  284.77   21.40
   4   0 -19    5.70    5.90
   3   0 -19   -2.70    5.90
   2   0 -19   -7.80    5.00
   1   0 -19  135.99   16.00
   0   0 -19    2.10    7.10
  -1   0 -19  191.78   18.50
  -2   0 -19  -11.90    7.30
   3   0  19   12.50    9.50
  -3   0 -19    2.70    8.80
  -4   0 -19  -19.40   11.40
   8  -1 -19   28.50    9.70
   8   1 -19   27.60    9.50
   7  -1 -19   28.80    9.20
   7   1 -19   11.50    8.90
   6  -1 -19    4.50    6.70
   6   1 -19    8.90    7.00
   5  -1 -19   10.30    7.40
   5   1 -19   20.60    8.20
   4  -1 -19   71.19   12.10
   4   1 -19   71.69   11.80
   3  -1 -19   18.40    7.70
   3   1 -19   14.30    6.80
   2  -1 -19    1.80    5.90
   2   1 -19    7.10    7.10
   1  -1 -19   94.89   13.70
   1   1 -19   97.19   13.80
   0  -1 -19  184.78   18.40
   0   1 -19  227.78   19.80
  -1  -1 -19   14.30    8.50
  -1   1 -19   12.70    6.90
  -2  -1 -19   29.50   10.50
  -2   1 -19   44.90   10.60
   2   1  19   10.30    8.10
   3  -1  19   23.10   10.30
  -3  -1 -19   10.10   10.20
  -3   1 -19   19.00   10.40
   3   1  19   15.20    9.70
   4  -1  19   -8.20   10.30
  -4   1 -19   -8.80    9.50
   8  -2 -19   54.29   12.10
   8   2 -19   21.90    8.90
   7  -2 -19   18.80    9.10
   7   2 -19   16.00    8.70
   6  -2 -19   27.00    8.10
   6   2 -19   54.49   11.40
   5  -2 -19  134.79   15.50
   5   2 -19  144.89   15.80
   4  -2 -19   10.40    7.50
   4   2 -19   22.40    7.30
   3  -2 -19   48.20   10.80
   3   2 -19   55.59   11.90
   2  -2 -19   -7.60    5.80
   2   2 -19   -0.10    5.90
   1  -2 -19   20.80    8.20
   1   2 -19   28.40    9.30
   0  -2 -19   35.00   10.00
   0   2 -19   37.40    9.80
  -1  -2 -19  199.68   19.60
  -1   2 -19  181.38   18.20
  -2  -2 -19    1.60    7.60
  -2   2 -19   -8.90    7.90
  -3  -2 -19   19.40   10.50
   3   2  19   21.80   10.50
  -3   2 -19   20.20   10.30
  -4  -2 -19   21.20   13.60
   4  -2  19   33.10   11.30
  -4   2 -19   33.20   12.90
   8  -3 -19    4.50    8.70
   8   3 -19    1.90   14.50
   7  -3 -19   -2.90    6.80
   7   3 -19    5.20    7.40
   6  -3 -19   32.00    9.80
   6   3 -19   40.00   10.50
   5  -3 -19    4.80    6.90
   5   3 -19   -5.90    5.80
   4  -3 -19  255.77   19.90
   4   3 -19  212.18   18.70
   3  -3 -19   11.00    7.10
   3   3 -19   30.30    8.30
   2  -3 -19   62.89   12.40
   2   3 -19   96.89   13.80
   1  -3 -19   17.80    8.60
   1   3 -19    6.70    7.20
   0  -3 -19  120.79   15.80
   0   3 -19  110.59   14.00
  -1  -3 -19    4.80    7.90
  -1   3 -19    5.00    7.40
  -2  -3 -19   61.49   13.90
  -2   3 -19   55.79   12.80
  -3  -3 -19   -1.60    9.60
   3   3  19   11.30    9.20
  -3   3 -19   10.90    9.30
   8  -4 -19    0.20    8.80
   8   4 -19   -5.70    9.00
   7  -4 -19    5.20    7.90
   7   4 -19   16.30    8.80
   6  -4 -19   52.49   11.00
   6   4 -19   67.49   12.70
   5  -4 -19   85.49   12.80
   5   4 -19   59.69   11.30
   4  -4 -19   44.60   10.70
   4   4 -19   32.40    8.80
   3  -4 -19   12.70    7.20
   3   4 -19   -3.10    5.40
   2  -4 -19    1.80    7.30
   2   4 -19    5.60    7.10
   1  -4 -19   26.70   10.40
   1   4 -19   46.20    9.50
   0  -4 -19    4.30    7.20
   0   4 -19   -2.90    6.80
  -1  -4 -19    9.40    8.70
  -1   4 -19   10.10    7.10
  -2  -4 -19   -3.10    8.30
  -2   4 -19   12.00    9.30
  -3  -4 -19    1.70    9.70
  -3   4 -19    7.60   10.60
   3   4  19   10.20   15.80
   8  -5 -19   -1.90    9.10
   8   5 -19   -5.10    7.70
   7  -5 -19   24.10    9.60
   7   5 -19   14.00    7.10
   6  -5 -19  218.98   19.60
   6   5 -19  240.48   19.50
   5  -5 -19   20.50    7.70
   5   5 -19   14.70    6.10
   4  -5 -19   -6.20    6.20
   4   5 -19    3.10    6.10
   3  -5 -19   25.20    7.90
   3   5 -19   34.70   10.00
   2  -5 -19   12.30    7.30
   2   5 -19   12.40    7.10
   1  -5 -19    2.20    6.50
   1   5 -19    7.50    7.20
   0  -5 -19  112.59   16.10
   0   5 -19  108.49   14.80
  -1  -5 -19  -11.30    7.20
  -1   5 -19    2.10    6.90
  -2  -5 -19   -1.00    7.90
  -2   5 -19   -4.20    7.80
  -3   5 -19   -5.70    9.60
   7  -6 -19   16.20    8.80
   7   6 -19   17.60    8.70
   6  -6 -19    5.60    8.60
   6   6 -19    5.90    6.70
   5  -6 -19  109.29   15.20
   5   6 -19   80.89   12.90
   4  -6 -19    0.90    6.30
   4   6 -19    6.10    6.20
   3  -6 -19    6.10    7.20
   3   6 -19    0.80    5.60
   2  -6 -19   -6.40    6.70
   2   6 -19    9.10    6.80
   1  -6 -19   36.40    9.90
   1   6 -19   29.30    8.80
   0  -6 -19   18.00    9.10
   0   6 -19   16.00    8.10
  -1  -6 -19   63.09   14.80
  -1   6 -19   80.09   14.80
  -2  -6 -19   -5.20    9.20
  -2   6 -19    1.80    8.90
  -3  -6 -19    4.80   10.10
  -3   6 -19    1.80   10.10
   7  -7 -19   -3.20    8.50
   7   7 -19   -5.60    7.10
   6  -7 -19   80.49   15.70
   6   7 -19   76.79   13.70
   5  -7 -19   36.60   10.90
   5   7 -19   29.90    8.70
   4  -7 -19  183.08   18.30
   4   7 -19  202.18   18.40
   3  -7 -19   53.39   12.20
   3   7 -19   60.79   11.90
   2  -7 -19    5.20    7.10
   2   7 -19    7.50    6.10
   1  -7 -19   17.10    8.80
   1   7 -19    3.60    6.20
   0  -7 -19   -4.10    7.90
   0   7 -19   10.10    8.10
  -1  -7 -19   19.00    9.10
  -1   7 -19   28.40   10.20
  -2  -7 -19   30.50   11.20
  -2   7 -19   33.80   11.30
  -3  -7 -19   13.10    9.80
  -3   7 -19    6.10   10.20
   7  -8 -19   32.70   12.00
   7   8 -19   10.80    7.90
   6  -8 -19   16.00   10.30
   6   8 -19   12.10    9.00
   5  -8 -19   59.39   12.50
   5   8 -19   97.09   13.80
   4  -8 -19   16.60    9.50
   4   8 -19   18.40    8.40
   3  -8 -19   13.70    8.20
   3   8 -19    9.00    6.50
   2  -8 -19   24.00    9.60
   2   8 -19   19.80    8.00
   1  -8 -19   26.10   10.20
   1   8 -19   30.30    9.40
   0  -8 -19   49.20   12.50
   0   8 -19   17.10    8.60
  -1  -8 -19   91.99   16.90
  -1   8 -19  101.89   16.20
  -2  -8 -19  -12.90   12.00
  -2   8 -19   -6.00    8.40
   6  -9 -19   44.50   13.20
   6   9 -19   73.89   18.00
   5  -9 -19    8.60    8.20
   5   9 -19    5.50    8.30
   4  -9 -19   33.20    9.90
   4   9 -19   38.00    9.60
   3  -9 -19   48.90   11.70
   3   9 -19   54.99   11.90
   2  -9 -19   -4.40    8.10
   2   9 -19   -2.40    7.30
   1  -9 -19   48.20   11.30
   1   9 -19   43.70   10.20
   0  -9 -19   57.79   14.80
   0   9 -19   60.69   12.80
  -1  -9 -19   11.50   10.90
  -1   9 -19    8.00    8.40
  -2  -9 -19    0.50   10.00
  -2   9 -19   11.20    9.10
   6 -10 -19   90.49   17.40
   6  10 -19  112.29   16.50
   5 -10 -19   39.20   11.40
   5  10 -19   31.20   10.40
   4 -10 -19   29.60   10.20
   4  10 -19   24.50    8.80
   3 -10 -19   -3.20    8.80
   3  10 -19    2.70    7.10
   2 -10 -19   19.60    9.70
   2  10 -19    7.70    7.90
   1 -10 -19   40.00   12.30
   1  10 -19   30.10    9.60
   0 -10 -19   -4.90    9.50
   0  10 -19   10.20    8.80
  -1 -10 -19   11.10   11.50
  -1  10 -19    6.10    9.10
   5 -11 -19   43.00   13.90
   5  11 -19   31.20   11.40
   4 -11 -19   42.70   13.10
   4  11 -19   21.60    8.90
   3 -11 -19  189.58   20.50
   3  11 -19  167.88   17.80
   2 -11 -19   58.19   14.40
   2  11 -19   74.89   13.70
   1 -11 -19   31.30   12.60
   1  11 -19   21.70    9.40
   0  11 -19   70.89   13.90
   3 -12 -19   32.20   12.00
   3  12 -19   20.30    9.10
   2 -12 -19    8.80   10.10
   2  12 -19    0.50    8.20
   1  12 -19   28.20   10.40
   7   0 -20   10.30    8.70
   6   0 -20   88.39   14.90
   5   0 -20   -6.00    6.30
   4   0 -20   18.40    8.50
   3   0 -20   -2.80    7.10
   2   0 -20   75.89   13.60
   1   0 -20   -3.10    6.50
   0   0 -20  105.59   16.10
  -1   0 -20   -8.00    7.80
  -2   0 -20  261.67   23.40
   7  -1 -20   11.00    8.90
   7   1 -20   14.80    8.70
   6  -1 -20   59.29   13.10
   6   1 -20   49.99   10.60
   5  -1 -20   13.20    7.90
   5   1 -20    3.00    7.10
   4  -1 -20   13.00    7.80
   4   1 -20   20.10    8.10
   3  -1 -20  253.77   21.50
   3   1 -20  239.58   20.20
   2  -1 -20   46.90   11.70
   2   1 -20   50.79   10.80
   1  -1 -20   31.40    9.30
   1   1 -20   25.20    9.10
   0  -1 -20   42.50   10.20
   0   1 -20   67.59   13.20
  -1  -1 -20    2.30    7.70
  -1   1 -20    8.00    8.60
  -2  -1 -20   19.10   11.20
  -2   1 -20   20.30   11.10
   7  -2 -20   -7.40    8.20
   7   2 -20    8.90   12.40
   6  -2 -20   11.20    8.40
   6   2 -20    4.60    7.30
   5  -2 -20  113.89   16.40
   5   2 -20  104.79   14.70
   4  -2 -20  120.19   15.50
   4   2 -20  121.79   15.80
   3  -2 -20   28.10    8.10
   3   2 -20   17.60    8.90
   2  -2 -20   -5.70    5.60
   2   2 -20    4.50    7.00
   1  -2 -20    6.20    8.50
   1   2 -20   14.10    8.40
   0  -2 -20   80.99   14.20
   0   2 -20   54.39   12.50
  -1  -2 -20    3.70    8.90
  -1   2 -20    8.30    7.80
  -2  -2 -20   80.19   15.10
  -2   2 -20   38.50   13.00
   7  -3 -20    5.80    9.00
   7   3 -20    3.40    9.40
   6  -3 -20   -1.80    7.30
   6   3 -20    2.80    7.20
   5  -3 -20  127.29   16.50
   5   3 -20  159.18   16.90
   4  -3 -20   75.39   14.30
   4   3 -20   39.60    9.20
   3  -3 -20   86.69   14.40
   3   3 -20   63.89   12.30
   2  -3 -20    3.40    6.40
   2   3 -20    5.40    6.90
   1  -3 -20   24.80    8.20
   1   3 -20   18.40    8.60
   0  -3 -20    3.70    8.70
   0   3 -20    6.30    8.10
  -1  -3 -20  179.18   20.10
  -1   3 -20  186.68   19.70
  -2  -3 -20   24.70   14.40
  -2   3 -20   -3.50    9.50
   7  -4 -20   17.70    9.60
   7   4 -20    8.20    7.80
   6  -4 -20    9.90    9.60
   6   4 -20   10.70    7.50
   5  -4 -20   53.89   12.80
   5   4 -20   21.30    8.90
   4  -4 -20  132.29   17.00
   4   4 -20   94.59   14.40
   3  -4 -20   49.99   11.80
   3   4 -20   46.50   11.50
   2  -4 -20   53.19   10.90
   2   4 -20   41.90   10.00
   1  -4 -20   35.90   10.10
   1   4 -20   35.30    9.20
   0  -4 -20    4.50    9.00
   0   4 -20   -0.30    7.90
  -1  -4 -20    8.40    9.30
  -1   4 -20    1.80    8.30
  -2  -4 -20    6.60   11.60
  -2   4 -20   23.40    9.90
   7  -5 -20   12.50    8.90
   7   5 -20   13.80    8.60
   6  -5 -20    6.30    8.80
   6   5 -20    4.60    8.70
   5  -5 -20   24.20    8.70
   5   5 -20   30.90   10.80
   4  -5 -20    8.60    7.40
   4   5 -20   -0.20    6.70
   3  -5 -20  163.68   19.10
   3   5 -20  168.08   17.40
   2  -5 -20    0.10    7.60
   2   5 -20    0.00    6.80
   1  -5 -20   69.99   14.50
   1   5 -20   44.20   10.60
   0  -5 -20    3.80    8.20
   0   5 -20   -5.40    7.50
  -1  -5 -20   18.00   10.20
  -1   5 -20    6.40    8.40
  -2  -5 -20   20.40   10.60
  -2   5 -20   -2.20    9.70
   6  -6 -20    9.30    9.40
   6   6 -20   11.80    7.40
   5  -6 -20   41.00   12.60
   5   6 -20   59.49   11.80
   4  -6 -20  115.59   16.20
   4   6 -20  100.59   14.60
   3  -6 -20   29.80   10.00
   3   6 -20   14.70    8.30
   2  -6 -20   47.50   12.60
   2   6 -20   77.89   14.10
   1  -6 -20   24.40   10.90
   1   6 -20   22.30    9.00
   0  -6 -20   52.19   13.60
   0   6 -20   45.70   11.90
  -1   6 -20  -10.80    8.30
   6  -7 -20   -6.00    9.30
   6   7 -20    6.90    7.50
   5  -7 -20   63.79   13.40
   5   7 -20   66.09   15.00
   4  -7 -20   -6.50    7.60
   4   7 -20    2.30    8.10
   3  -7 -20    8.00    8.00
   3   7 -20  -11.40    6.70
   2  -7 -20    4.20    9.10
   2   7 -20    4.10    7.00
   1  -7 -20    0.00    7.70
   1   7 -20   -6.00    8.10
   0  -7 -20   -3.90   10.30
   0   7 -20   16.30    8.80
  -1  -7 -20   94.89   17.70
  -1   7 -20  102.49   17.10
   5  -8 -20   13.20    9.50
   5   8 -20    8.70   10.20
   4  -8 -20  152.38   18.60
   4   8 -20  123.59   16.60
   3  -8 -20    5.90    8.00
   3   8 -20    0.90    6.90
   2  -8 -20   24.70   11.20
   2   8 -20    9.30    7.90
   1  -8 -20   25.10   10.80
   1   8 -20    8.60    8.60
   0   8 -20   66.29   13.80
  -1  -8 -20   -2.70    9.30
  -1   8 -20    4.60    9.30
   5  -9 -20   -0.30    8.60
   5   9 -20    1.90    7.20
   4  -9 -20   10.40    9.40
   4   9 -20   -0.20   12.50
   3  -9 -20  123.19   19.50
   3   9 -20  119.09   15.80
   2  -9 -20   64.19   13.50
   2   9 -20  152.48   17.60
   1  -9 -20   34.50   17.80
   1   9 -20   23.10    9.80
   0  -9 -20    8.20   10.60
   0   9 -20    3.20    9.10
   3 -10 -20    3.80   10.90
   2  10 -20   30.80    9.90
   1 -10 -20   10.40   13.80
   1  10 -20  -19.70    7.70
   6   0 -21    1.00    8.00
   5   0 -21   22.60    9.00
   4   0 -21    7.70    7.20
   3   0 -21   35.70   11.20
   2   0 -21    5.60    8.70
   1   0 -21   77.09   15.30
   0   0 -21    2.20    8.80
  -1   0 -21  169.48   27.60
   6  -1 -21    1.30   11.70
   6   1 -21    6.60    8.80
   5  -1 -21    1.30    7.50
   5   1 -21   -8.30    7.00
   4  -1 -21  177.98   19.40
   4   1 -21  133.39   16.80
   3  -1 -21   27.70    9.40
   3   1 -21   39.50   10.50
   2  -1 -21  101.49   15.20
   2   1 -21   99.09   15.40
   1  -1 -21   -0.70    8.10
   1   1 -21   23.70    9.70
   0  -1 -21    6.60    8.50
   0   1 -21    4.30    8.30
  -1  -1 -21  -16.30    9.70
  -1   1 -21   15.10   13.00
   6  -2 -21    9.70   11.00
   6   2 -21   -1.10    9.00
   5  -2 -21    3.30    8.70
   5   2 -21    5.70   11.30
   4  -2 -21   93.99   16.80
   4   2 -21   91.49   15.10
   3  -2 -21   24.30   10.10
   3   2 -21    3.80    7.50
   2  -2 -21   51.49   11.90
   2   2 -21   52.99   12.70
   1  -2 -21  134.79   17.80
   1   2 -21  134.29   17.90
   0  -2 -21   36.80   14.80
   0   2 -21   20.50   10.30
  -1  -2 -21   63.29   15.00
   6  -3 -21    2.90    9.80
   6   3 -21   -0.20    8.20
   5  -3 -21   -1.40    8.90
   5   3 -21    3.40   13.70
   4  -3 -21   30.60   10.40
   4   3 -21   23.60   10.10
   3  -3 -21    9.80    8.70
   3   3 -21    6.80    7.70
   2  -3 -21   58.69   12.00
   2   3 -21   58.99   12.90
   1  -3 -21   -5.20    7.20
   1   3 -21   12.00    9.80
   0   3 -21    1.60    8.20
  -1  -3 -21   30.70   11.40
   5  -4 -21  -15.60   10.50
   5   4 -21    5.00    9.00
   4  -4 -21   29.20   10.10
   4   4 -21   21.20   10.10
   3  -4 -21  173.58   19.30
   3   4 -21  203.58   19.20
   2  -4 -21   17.90    9.00
   2   4 -21   51.59   12.50
   1  -4 -21   37.20   12.90
   1   4 -21   23.70    9.40
   0  -4 -21    4.30    9.50
   0   4 -21    3.90    9.00
   5  -5 -21   25.00   16.60
   5   5 -21   15.10    9.00
   4  -5 -21   28.90   10.20
   3  -5 -21   23.20   10.70
   3   5 -21   -2.30    8.00
   2  -5 -21   -0.10    8.70
   2   5 -21   -0.50    8.00
   1   5 -21   26.60   10.20
   0  -5 -21    5.60    9.80
   0   5 -21    7.70   10.80
   4  -6 -21    3.20   18.00
   4   6 -21   23.30   10.50
   3  -6 -21  121.79   26.30
   2   6 -21   -7.70    8.80
   1  -6 -21   56.09   14.00
   1   6 -21   19.80   11.30
   4  -7 -21    7.30   14.30
   4   7 -21    1.40    8.60
   3  -7 -21   -5.50   16.80
   3   7 -21   13.50    9.30
   2  -7 -21   34.90   13.00
   1  -7 -21  -12.90   10.00
   4   0 -22   10.70    9.70
   3   0 -22    0.60    7.60
   2   0 -22   24.70   10.80
   3  -1 -22   49.80   13.20
   3   1 -22   32.70   10.60
   2  -1 -22   -5.00    8.40
   2   1 -22    2.50    8.20
   3  -2 -22   -0.40    8.60
   3   2 -22  -10.20    8.30
   2  -2 -22   69.79   15.30
   2   2 -22  106.89   18.30
   0   0   0    0.00    0.00

_computing_structure_solution     'SHELXT 2018/2 (Sheldrick, 2018)'
;
_shelx_hkl_checksum   44237

