 
data_VT-31_autored_a
 
_audit_creation_method            'SHELXL-2018/3'
_shelx_SHELXL_version_number      '2018/3'
_chemical_name_systematic         ?
_chemical_name_common             ?
_chemical_melting_point           ?
_chemical_formula_moiety          ?
_chemical_formula_sum
 'C H I N O Zn' 
_chemical_formula_weight          235.30

loop_
 _atom_type_symbol
 _atom_type_description
 _atom_type_scat_dispersion_real
 _atom_type_scat_dispersion_imag
 _atom_type_scat_source
 'C'  'C'   0.0033   0.0016
 'International Tables Vol C Tables 4.2.6.8 and 6.1.1.4'
 'H'  'H'   0.0000   0.0000
 'International Tables Vol C Tables 4.2.6.8 and 6.1.1.4'
 'N'  'N'   0.0061   0.0033
 'International Tables Vol C Tables 4.2.6.8 and 6.1.1.4'
 'O'  'O'   0.0106   0.0060
 'International Tables Vol C Tables 4.2.6.8 and 6.1.1.4'
 'Zn'  'Zn'   0.2839   1.4301
 'International Tables Vol C Tables 4.2.6.8 and 6.1.1.4'
 'I'  'I'  -0.4742   1.8119
 'International Tables Vol C Tables 4.2.6.8 and 6.1.1.4'
 
_space_group_crystal_system       triclinic
_space_group_IT_number            2
_space_group_name_H-M_alt         'P -1'
_space_group_name_Hall            '-P 1'
 
_shelx_space_group_comment
;
The symmetry employed for this shelxl refinement is uniquely defined
by the following loop, which should always be used as a source of
symmetry information in preference to the above space-group names.
They are only intended as comments.
;
 
loop_
 _space_group_symop_operation_xyz
 'x, y, z'
 '-x, -y, -z'
 
_cell_length_a                    10.8587(17)
_cell_length_b                    10.9191(15)
_cell_length_c                    15.745(2)
_cell_angle_alpha                 81.221(12)
_cell_angle_beta                  79.091(13)
_cell_angle_gamma                 89.848(12)
_cell_volume                      1811.0(5)
_cell_formula_units_Z             21
_cell_measurement_temperature     290(2)
_cell_measurement_reflns_used     ?
_cell_measurement_theta_min       ?
_cell_measurement_theta_max       ?
 
_exptl_crystal_description        ?
_exptl_crystal_colour             ?
_exptl_crystal_density_meas       ?
_exptl_crystal_density_method     ?
_exptl_crystal_density_diffrn     4.531          
_exptl_crystal_F_000              2205
_exptl_transmission_factor_min    ?
_exptl_transmission_factor_max    ?
_exptl_crystal_size_max           ?
_exptl_crystal_size_mid           ?
_exptl_crystal_size_min           ?
_exptl_absorpt_coefficient_mu     15.833
_shelx_estimated_absorpt_T_min    ?
_shelx_estimated_absorpt_T_max    ?
_exptl_absorpt_correction_type    ?
_exptl_absorpt_correction_T_min   ?
_exptl_absorpt_correction_T_max   ?
_exptl_absorpt_process_details    ?
_exptl_absorpt_special_details    ?
_diffrn_ambient_temperature       290(2)
_diffrn_radiation_wavelength      0.71073
_diffrn_radiation_type            MoK\a
_diffrn_source                    ?
_diffrn_measurement_device_type   ?
_diffrn_measurement_method        ?
_diffrn_detector_area_resol_mean  ?
_diffrn_reflns_number             8197
_diffrn_reflns_av_unetI/netI      0.1664
_diffrn_reflns_av_R_equivalents   0.1557
_diffrn_reflns_limit_h_min        -14
_diffrn_reflns_limit_h_max        10
_diffrn_reflns_limit_k_min        -12
_diffrn_reflns_limit_k_max        14
_diffrn_reflns_limit_l_min        -16
_diffrn_reflns_limit_l_max        21
_diffrn_reflns_theta_min          2.136
_diffrn_reflns_theta_max          29.379
_diffrn_reflns_theta_full         25.242
_diffrn_measured_fraction_theta_max   0.595
_diffrn_measured_fraction_theta_full  0.775
_diffrn_reflns_Laue_measured_fraction_max    0.595
_diffrn_reflns_Laue_measured_fraction_full   0.775
_diffrn_reflns_point_group_measured_fraction_max   0.595
_diffrn_reflns_point_group_measured_fraction_full  0.775
_reflns_number_total              5933
_reflns_number_gt                 2768
_reflns_threshold_expression      'I > 2\s(I)'
_reflns_Friedel_coverage          0.000
_reflns_Friedel_fraction_max      .
_reflns_Friedel_fraction_full     .
 
_reflns_special_details
;
 Reflections were merged by SHELXL according to the crystal
 class for the calculation of statistics and refinement.
 
 _reflns_Friedel_fraction is defined as the number of unique
 Friedel pairs measured divided by the number that would be
 possible theoretically, ignoring centric projections and
 systematic absences.
;
 
_computing_data_collection        ?
_computing_cell_refinement        ?
_computing_data_reduction         ?
_computing_structure_solution     'SHELXT 2018/2 (Sheldrick, 2018)'
_computing_structure_refinement 'SHELXL-2018/3 (Sheldrick, 2018)'
_computing_molecular_graphics     ?
_computing_publication_material   ?
_refine_special_details           ?
_refine_ls_structure_factor_coef  Fsqd
_refine_ls_matrix_type            full
_refine_ls_weighting_scheme       calc
_refine_ls_weighting_details
'w=1/[\s^2^(Fo^2^)+(0.1000P)^2^] where P=(Fo^2^+2Fc^2^)/3'
_atom_sites_solution_primary      ?
_atom_sites_solution_secondary    ?
_atom_sites_solution_hydrogens    .
_refine_ls_hydrogen_treatment     undef
_refine_ls_extinction_method      none
_refine_ls_extinction_coef        .
_refine_ls_number_reflns          5933
_refine_ls_number_parameters      181
_refine_ls_number_restraints      0
_refine_ls_R_factor_all           0.3855
_refine_ls_R_factor_gt            0.2603
_refine_ls_wR_factor_ref          0.6346
_refine_ls_wR_factor_gt           0.5008
_refine_ls_goodness_of_fit_ref    3.082
_refine_ls_restrained_S_all       3.082
_refine_ls_shift/su_max           0.000
_refine_ls_shift/su_mean          0.000
 
loop_
 _atom_site_label
 _atom_site_type_symbol
 _atom_site_fract_x
 _atom_site_fract_y
 _atom_site_fract_z
 _atom_site_U_iso_or_equiv
 _atom_site_adp_type
 _atom_site_occupancy
 _atom_site_site_symmetry_order  
 _atom_site_calc_flag
 _atom_site_refinement_flags_posn
 _atom_site_refinement_flags_adp
 _atom_site_refinement_flags_occupancy
 _atom_site_disorder_assembly
 _atom_site_disorder_group
Zn1 Zn -0.1472(3) 0.6997(3) 0.59649(17) 0.0304(9) Uiso 1 1 d . . . . .
Zn2 Zn 0.7982(3) 0.6530(3) 0.78814(17) 0.0302(9) Uiso 1 1 d . . . . .
O1 O -0.170(2) 0.514(2) 0.6358(15) 0.068(6) Uiso 1 1 d . . . . .
O003 O -0.1507(14) -0.1202(14) 0.6179(9) 0.026(3) Uiso 1 1 d . . . . .
O5 O -0.147(2) 1.122(2) 0.0169(15) 0.070(6) Uiso 1 1 d . . . . .
O005 O -0.1991(14) 0.4713(13) 0.7719(9) 0.024(3) Uiso 1 1 d . . . . .
N006 N -0.143(2) 0.758(2) 0.3292(14) 0.041(5) Uiso 1 1 d . . . . .
C1 C -0.205(3) 0.450(3) 0.700(2) 0.054(8) Uiso 1 1 d . . . . .
O007 O 0.6610(19) 0.7025(18) 0.6312(12) 0.053(5) Uiso 1 1 d . . . . .
O008 O 0.619(2) 0.649(2) 0.7801(15) 0.072(7) Uiso 1 1 d . . . . .
O009 O 0.036(2) 0.6922(19) 0.5984(14) 0.062(6) Uiso 1 1 d . . . . .
N1 N -0.144(2) 0.707(2) 0.4707(14) 0.041(5) Uiso 1 1 d . . . . .
N00A N -0.201(2) 0.6495(19) -0.0847(12) 0.034(5) Uiso 1 1 d . . . . .
O00B O -0.0126(18) 0.6607(17) 0.7487(12) 0.048(5) Uiso 1 1 d . . . . .
O2 O -0.190(3) -0.162(2) 0.7583(17) 0.082(7) Uiso 1 1 d . . . . .
N00C N -0.163(2) 0.721(2) 0.0299(15) 0.049(6) Uiso 1 1 d . . . . .
N00F N -0.148(3) 0.739(2) 0.1779(16) 0.058(7) Uiso 1 1 d . . . . .
N00G N -0.144(3) 0.639(2) 0.3404(17) 0.058(7) Uiso 1 1 d . . . . .
N00H N -0.149(3) 0.128(3) 0.610(2) 0.077(9) Uiso 1 1 d . . . . .
N2 N -0.138(4) 0.592(4) 0.053(3) 0.114(13) Uiso 1 1 d . . . . .
N3 N -0.141(3) 1.118(3) 0.1063(18) 0.069(8) Uiso 1 1 d . . . . .
N4 N -0.140(3) 0.996(3) -0.0117(19) 0.072(8) Uiso 1 1 d . . . . .
C00J C 0.456(3) 0.675(3) 0.6977(18) 0.048(7) Uiso 1 1 d . . . . .
C00K C 0.068(2) 0.672(2) 0.6753(15) 0.035(6) Uiso 1 1 d . . . . .
C00L C -0.180(3) 0.301(3) 0.6997(17) 0.043(7) Uiso 1 1 d . . . . .
C00M C -0.191(3) 0.748(3) -0.0542(19) 0.052(8) Uiso 1 1 d . . . . .
C00P C 0.197(3) 0.674(2) 0.6872(17) 0.041(6) Uiso 1 1 d . . . . .
C00Q C 0.240(3) 0.643(3) 0.7724(17) 0.044(7) Uiso 1 1 d . . . . .
C00R C 0.577(3) 0.684(3) 0.7092(18) 0.046(7) Uiso 1 1 d . . . . .
C00S C -0.158(3) 0.791(3) 0.0973(17) 0.044(7) Uiso 1 1 d . . . . .
C00T C 0.413(4) 0.707(3) 0.616(2) 0.070(10) Uiso 1 1 d . . . . .
C00U C -0.176(2) 0.048(2) 0.6897(15) 0.033(6) Uiso 1 1 d . . . . .
C00V C -0.204(3) 0.220(2) 0.7729(17) 0.039(6) Uiso 1 1 d . . . . .
C00X C -0.195(3) 0.087(2) 0.7771(17) 0.042(6) Uiso 1 1 d . . . . .
C00Y C -0.141(3) 0.816(3) 0.2481(19) 0.052(8) Uiso 1 1 d . . . . .
C010 C -0.139(3) 0.615(3) 0.421(2) 0.055(8) Uiso 1 1 d . . . . .
C011 C -0.169(3) 0.264(2) 0.6148(16) 0.038(6) Uiso 1 1 d . . . . .
C012 C -0.142(3) 0.953(3) 0.228(2) 0.057(8) Uiso 1 1 d . . . . .
C013 C 0.356(3) 0.652(3) 0.775(2) 0.059(8) Uiso 1 1 d . . . . .
C014 C -0.144(4) 0.555(4) -0.040(3) 0.079(11) Uiso 1 1 d . . . . .
C015 C 0.291(3) 0.696(3) 0.608(2) 0.066(9) Uiso 1 1 d . . . . .
C016 C -0.157(3) -0.095(3) 0.6861(19) 0.051(7) Uiso 1 1 d . . . . .
C017 C -0.155(3) 0.929(3) 0.0729(18) 0.045(7) Uiso 1 1 d . . . . .
C018 C -0.156(4) 1.009(3) 0.136(2) 0.070(10) Uiso 1 1 d . . . . .
C01B C -0.146(3) 0.804(3) 0.400(2) 0.062(9) Uiso 1 1 d . . . . .
 
_geom_special_details
;
 All esds (except the esd in the dihedral angle between two l.s. planes)
 are estimated using the full covariance matrix.  The cell esds are taken
 into account individually in the estimation of esds in distances, angles
 and torsion angles; correlations between esds in cell parameters are only
 used when they are defined by crystal symmetry.  An approximate (isotropic)
 treatment of cell esds is used for estimating esds involving l.s. planes.
;
 
loop_
 _geom_bond_atom_site_label_1
 _geom_bond_atom_site_label_2
 _geom_bond_distance
 _geom_bond_site_symmetry_2
 _geom_bond_publ_flag
Zn01 N1 1.96(2) . ?
Zn01 O009 2.00(2) . ?
Zn01 O1 2.03(2) . ?
Zn01 O003 2.044(15) 1_565 ?
Zn01 O007 2.05(2) 1_455 ?
Zn01 Zn02 2.928(4) 1_455 ?
Zn02 O008 1.97(2) . ?
Zn02 O2 2.00(3) 1_665 ?
Zn02 N00A 2.00(2) 1_656 ?
Zn02 O00B 2.03(2) 1_655 ?
Zn02 O005 2.038(15) 1_655 ?
O1 C1 1.13(3) . ?
O003 C016 1.14(3) . ?
O5 N3 1.42(3) . ?
O5 N4 1.50(3) . ?
O005 C1 1.21(3) . ?
N006 N00G 1.28(3) . ?
N006 C01B 1.28(4) . ?
N006 C00Y 1.33(4) . ?
C1 C00L 1.65(4) . ?
O007 C00R 1.37(3) . ?
O008 C00R 1.29(4) . ?
O009 C00K 1.31(3) . ?
N1 C010 1.36(4) . ?
N1 C01B 1.42(4) . ?
N00A C00M 1.25(3) . ?
N00A C014 1.37(4) . ?
O00B C00K 1.30(3) . ?
O2 C016 1.25(3) . ?
N00C C00M 1.40(4) . ?
N00C C00S 1.40(3) . ?
N00C N2 1.45(4) . ?
N00F C00S 1.33(4) . ?
N00F C00Y 1.50(4) . ?
N00G C010 1.27(4) . ?
N00H C00U 1.40(4) . ?
N00H C011 1.51(4) . ?
N2 C014 1.60(5) . ?
N3 C018 1.22(4) . ?
N4 C017 1.40(4) . ?
C00J C00R 1.36(4) . ?
C00J C00T 1.45(5) . ?
C00J C013 1.46(4) . ?
C00K C00P 1.45(4) . ?
C00L C00V 1.33(4) . ?
C00L C011 1.44(4) . ?
C00P C015 1.44(4) . ?
C00P C00Q 1.49(4) . ?
C00Q C013 1.28(4) . ?
C00S C017 1.50(4) . ?
C00T C015 1.36(5) . ?
C00U C00X 1.48(3) . ?
C00U C016 1.58(4) . ?
C00V C00X 1.45(4) . ?
C00Y C012 1.48(4) . ?
C012 C018 1.52(5) . ?
C017 C018 1.42(4) . ?
 
loop_
 _geom_angle_atom_site_label_1
 _geom_angle_atom_site_label_2
 _geom_angle_atom_site_label_3
 _geom_angle
 _geom_angle_site_symmetry_1
 _geom_angle_site_symmetry_3
 _geom_angle_publ_flag
N1 Zn01 O009 100.5(9) . . ?
N1 Zn01 O1 99.8(9) . . ?
O009 Zn01 O1 91.3(9) . . ?
N1 Zn01 O003 105.6(7) . 1_565 ?
O009 Zn01 O003 91.2(8) . 1_565 ?
O1 Zn01 O003 153.5(8) . 1_565 ?
N1 Zn01 O007 95.3(9) . 1_455 ?
O009 Zn01 O007 164.2(8) . 1_455 ?
O1 Zn01 O007 85.1(9) . 1_455 ?
O003 Zn01 O007 85.3(7) 1_565 1_455 ?
N1 Zn01 Zn02 167.2(6) . 1_455 ?
O009 Zn01 Zn02 89.6(6) . 1_455 ?
O1 Zn01 Zn02 71.8(7) . 1_455 ?
O003 Zn01 Zn02 81.8(4) 1_565 1_455 ?
O007 Zn01 Zn02 74.6(5) 1_455 1_455 ?
O008 Zn02 O2 92.3(10) . 1_665 ?
O008 Zn02 N00A 105.0(9) . 1_656 ?
O2 Zn02 N00A 95.0(10) 1_665 1_656 ?
O008 Zn02 O00B 159.1(9) . 1_655 ?
O2 Zn02 O00B 85.1(9) 1_665 1_655 ?
N00A Zn02 O00B 95.9(8) 1_656 1_655 ?
O008 Zn02 O005 87.1(8) . 1_655 ?
O2 Zn02 O005 159.8(8) 1_665 1_655 ?
N00A Zn02 O005 104.6(7) 1_656 1_655 ?
O00B Zn02 O005 88.3(7) 1_655 1_655 ?
O008 Zn02 Zn01 86.9(7) . 1_655 ?
O2 Zn02 Zn01 75.8(8) 1_665 1_655 ?
N00A Zn02 Zn01 165.4(6) 1_656 1_655 ?
O00B Zn02 Zn01 72.3(5) 1_655 1_655 ?
O005 Zn02 Zn01 84.0(4) 1_655 1_655 ?
C1 O1 Zn01 136(2) . . ?
C016 O003 Zn01 121.9(19) . 1_545 ?
N3 O5 N4 114(2) . . ?
C1 O005 Zn02 116.4(18) . 1_455 ?
N00G N006 C01B 114(3) . . ?
N00G N006 C00Y 117(2) . . ?
C01B N006 C00Y 129(3) . . ?
O1 C1 O005 126(3) . . ?
O1 C1 C00L 116(3) . . ?
O005 C1 C00L 107(2) . . ?
C00R O007 Zn01 134.7(19) . 1_655 ?
C00R O008 Zn02 124(2) . . ?
C00K O009 Zn01 116.8(18) . . ?
C010 N1 C01B 95(2) . . ?
C010 N1 Zn01 130(2) . . ?
C01B N1 Zn01 135(2) . . ?
C00M N00A C014 110(3) . . ?
C00M N00A Zn02 121.0(19) . 1_454 ?
C014 N00A Zn02 120(2) . 1_454 ?
C00K O00B Zn02 137.4(18) . 1_455 ?
C016 O2 Zn02 130(2) . 1_445 ?
C00M N00C C00S 135(3) . . ?
C00M N00C N2 112(3) . . ?
C00S N00C N2 113(3) . . ?
C00S N00F C00Y 122(3) . . ?
C010 N00G N006 101(2) . . ?
C00U N00H C011 116(3) . . ?
N00C N2 C014 95(3) . . ?
C018 N3 O5 103(3) . . ?
C017 N4 O5 96(2) . . ?
C00R C00J C00T 126(3) . . ?
C00R C00J C013 118(3) . . ?
C00T C00J C013 115(3) . . ?
O00B C00K O009 124(2) . . ?
O00B C00K C00P 113(2) . . ?
O009 C00K C00P 123(2) . . ?
C00V C00L C011 122(3) . . ?
C00V C00L C1 122(2) . . ?
C011 C00L C1 114(2) . . ?
N00A C00M N00C 110(3) . . ?
C015 C00P C00K 116(2) . . ?
C015 C00P C00Q 118(3) . . ?
C00K C00P C00Q 126(2) . . ?
C013 C00Q C00P 120(3) . . ?
O008 C00R C00J 127(3) . . ?
O008 C00R O007 118(3) . . ?
C00J C00R O007 112(2) . . ?
N00F C00S N00C 123(3) . . ?
N00F C00S C017 120(3) . . ?
N00C C00S C017 116(2) . . ?
C015 C00T C00J 123(3) . . ?
N00H C00U C00X 125(2) . . ?
N00H C00U C016 117(2) . . ?
C00X C00U C016 117(2) . . ?
C00L C00V C00X 125(3) . . ?
C00V C00X C00U 113(2) . . ?
N006 C00Y C012 122(3) . . ?
N006 C00Y N00F 118(3) . . ?
C012 C00Y N00F 120(3) . . ?
N00G C010 N1 120(3) . . ?
C00L C011 N00H 117(2) . . ?
C00Y C012 C018 117(3) . . ?
C00Q C013 C00J 124(3) . . ?
N00A C014 N2 107(3) . . ?
C00T C015 C00P 118(3) . . ?
O003 C016 O2 129(3) . . ?
O003 C016 C00U 114(2) . . ?
O2 C016 C00U 114(3) . . ?
N4 C017 C018 111(3) . . ?
N4 C017 C00S 127(3) . . ?
C018 C017 C00S 122(3) . . ?
N3 C018 C017 115(3) . . ?
N3 C018 C012 124(3) . . ?
C017 C018 C012 119(3) . . ?
N006 C01B N1 110(3) . . ?
 
_refine_diff_density_max    8.682
_refine_diff_density_min   -6.210
_refine_diff_density_rms    0.587

_shelx_res_file
;
TITL VT-31_autored_a.res in P-1
    VT-31_autored_a.res
    created by SHELXL-2018/3 at 15:40:39 on 21-Oct-2022
REM Old TITL VT-31_autored in P-1
REM SHELXT solution in P-1: R1 0.409, Rweak 0.011, Alpha 0.183
REM <I/s>   0.000 for    0 systematic absences,  Orientation as input
REM Formula found by SHELXT:  C29 N9 O7 Zn2
CELL  0.71073  10.8587  10.9191  15.7453   81.221   79.091   89.848
ZERR   21.000   0.0017   0.0015   0.0023    0.012    0.013    0.012
LATT  1
SFAC C H N O ZN I
UNIT 21.00 21.00 21.00 21.00 21.00 21.00
ACTA
TEMP 17
L.S. 10
BOND
LIST 6
FMAP 2
PLAN 20
WGHT    0.100000
FVAR       0.22937
ZN01  5   -0.147221    0.699726    0.596489    11.00000    0.03045
ZN02  5    0.798199    0.653016    0.788138    11.00000    0.03019
O1    4   -0.169665    0.513609    0.635801    11.00000    0.06847
O003  4   -0.150732   -0.120182    0.617871    11.00000    0.02617
O5    4   -0.147426    1.121539    0.016887    11.00000    0.07036
O005  4   -0.199147    0.471349    0.771913    11.00000    0.02426
N006  3   -0.143097    0.758152    0.329169    11.00000    0.04114
C1    1   -0.204681    0.450336    0.699624    11.00000    0.05365
O007  4    0.661007    0.702547    0.631183    11.00000    0.05319
O008  4    0.619175    0.649306    0.780111    11.00000    0.07212
O009  4    0.036163    0.692172    0.598379    11.00000    0.06199
N1    3   -0.144048    0.707132    0.470709    11.00000    0.04115
N00A  3   -0.200719    0.649542   -0.084734    11.00000    0.03401
O00B  4   -0.012618    0.660688    0.748727    11.00000    0.04786
O2    4   -0.189627   -0.162422    0.758267    11.00000    0.08178
N00C  3   -0.163493    0.721497    0.029950    11.00000    0.04864
N00F  3   -0.147770    0.739268    0.177949    11.00000    0.05772
N00G  3   -0.144386    0.639431    0.340426    11.00000    0.05837
N00H  3   -0.149109    0.128144    0.609702    11.00000    0.07669
N2    3   -0.137513    0.592013    0.053321    11.00000    0.11359
N3    3   -0.141416    1.118482    0.106309    11.00000    0.06853
N4    3   -0.139662    0.996041   -0.011660    11.00000    0.07164
C00J  1    0.455961    0.675365    0.697693    11.00000    0.04804
C00K  1    0.067588    0.671838    0.675253    11.00000    0.03469
C00L  1   -0.179892    0.301324    0.699721    11.00000    0.04327
C00M  1   -0.191101    0.747612   -0.054166    11.00000    0.05167
C00P  1    0.196886    0.673684    0.687230    11.00000    0.04114
C00Q  1    0.240129    0.643277    0.772384    11.00000    0.04436
C00R  1    0.576681    0.684349    0.709191    11.00000    0.04647
C00S  1   -0.157903    0.790709    0.097266    11.00000    0.04427
C00T  1    0.412755    0.706909    0.615627    11.00000    0.06960
C00U  1   -0.176179    0.047966    0.689736    11.00000    0.03287
C00V  1   -0.203965    0.219969    0.772922    11.00000    0.03860
C00X  1   -0.195474    0.086933    0.777071    11.00000    0.04218
C00Y  1   -0.140933    0.816387    0.248089    11.00000    0.05194
C010  1   -0.138613    0.614945    0.421347    11.00000    0.05483
C011  1   -0.168653    0.264061    0.614784    11.00000    0.03753
C012  1   -0.141959    0.952825    0.227901    11.00000    0.05651
C013  1    0.356496    0.652309    0.775388    11.00000    0.05891
C014  1   -0.144348    0.554996   -0.040014    11.00000    0.07891
C015  1    0.290895    0.696027    0.608029    11.00000    0.06603
C016  1   -0.157127   -0.095011    0.686067    11.00000    0.05133
C017  1   -0.155053    0.928762    0.072915    11.00000    0.04464
C018  1   -0.155711    1.008803    0.135785    11.00000    0.07013
C01B  1   -0.145779    0.804136    0.399733    11.00000    0.06234
HKLF 4




REM  VT-31_autored_a.res in P-1
REM wR2 = 0.6346, GooF = S = 3.082, Restrained GooF = 3.082 for all data
REM R1 = 0.2603 for 2768 Fo > 4sig(Fo) and 0.3855 for all 5933 data
REM 181 parameters refined using 0 restraints

END

WGHT      0.2000      0.0000

REM Highest difference peak  8.682,  deepest hole -6.210,  1-sigma level  0.587
Q1    1   0.7485  0.6779  0.7926  11.00000  0.05    8.68
Q2    1  -0.1859  0.7276  0.6028  11.00000  0.05    8.26
Q3    1  -0.1027  0.6654  0.5966  11.00000  0.05    7.38
Q4    1   0.8363  0.6224  0.7841  11.00000  0.05    7.15
Q5    1   0.8270  0.6722  0.6956  11.00000  0.05    3.70
Q6    1  -0.1058  0.7697  0.4051  11.00000  0.05    2.97
Q7    1   0.6802  0.6048  0.7761  11.00000  0.05    2.91
Q8    1  -0.2348  0.5783 -0.0221  11.00000  0.05    2.56
Q9    1  -0.2028 -0.1518  0.6495  11.00000  0.05    2.15
Q10   1  -0.2295  0.6052  0.0680  11.00000  0.05    2.08
Q11   1  -0.1379  0.5200  0.5943  11.00000  0.05    2.07
Q12   1  -0.1192 -0.1365  0.5992  11.00000  0.05    2.05
Q13   1  -0.1303  0.4977  0.6224  11.00000  0.05    2.04
Q14   1  -0.1075 -0.1995  0.7452  11.00000  0.05    2.03
Q15   1  -0.2180 -0.1419  0.7531  11.00000  0.05    2.00
Q16   1  -0.4603  0.9226  0.0182  11.00000  0.05    1.99
Q17   1  -0.1967  0.6367 -0.1236  11.00000  0.05    1.97
Q18   1  -0.2446  0.5552  0.6381  11.00000  0.05    1.96
Q19   1   0.5919  0.6739  0.7923  11.00000  0.05    1.96
Q20   1  -0.0757  0.6125  0.3350  11.00000  0.05    1.89
;
_shelx_res_checksum   67803

_shelx_hkl_file
;
   0   0   3 1108.79   10.39
   0   0   4    2.90    0.99
   0   0   5 2295.24   20.73
   0   0   6  594.85   11.86
   0   0   7  414.47   10.85
   0   0   8   -0.43    1.47
   0   0   9    5.74    2.04
   0   0  11  125.55    8.53
   0   0  11    8.13    3.07
   0   0  12    0.96    1.43
   0   0  12    0.17    2.90
   0   0  13    2.04    4.33
   0   0  13   59.22    7.14
   0   0  14    5.35    2.38
   0   0  14    0.25    3.95
   0   0  15    3.79    1.92
   0   0  16    0.23    5.55
   0   0  16   41.92    6.15
   0   0  17    0.52    1.00
   0   0  18    1.22    1.58
   0   0  19   -0.52    1.35
   0   0  20    2.16    2.08
   0  -1  19   16.15    4.28
   0  -1  18    0.09    1.14
   0  -1  17    8.74    3.03
   0  -1  16   74.79    8.15
   0  -1  15   -0.97    3.88
   0  -1  15   18.94    3.97
   0  -1  14   -2.57    3.69
   0  -1  14   24.56    4.19
   0  -1  13    2.58    1.36
   0  -1  12   19.57    3.36
   0  -1  12   -0.49    3.19
   0  -1  11  237.76   11.36
   0   1 -10    9.27    1.25
   0  -1  10    0.14    2.22
   0  -1   9  121.99    7.47
   0   1  -9   94.58    3.71
   0   1  -8  109.50    4.39
   0  -1   8   92.03    6.18
   0   1  -7   62.49    3.53
   0  -1   7  106.35    6.24
   0  -1   6  641.32   14.04
   0   1  -6  665.89   10.78
   0  -1   5   -0.67    1.75
   0  -1   5   33.21    2.90
   0   1  -5   59.96    3.27
   0   1  -4  225.56    6.10
   0  -1   4  233.94    6.54
   0   1  -3   11.54    1.41
   0   1  -3   29.52    2.33
   0  -1   3   17.90    1.72
   0  -1   2    6.50    1.02
   0   1  -2    5.67    0.95
   0   1  -2    5.96    0.87
   0   1  -1 1014.78   11.51
   0  -1  -1  108.98    3.29
   0   1   1  106.59    3.09
   0   1   1  111.37    3.30
   0  -1  -1   42.47    2.31
   0  -1  -2  533.10    8.59
   0   1   2  533.39    8.34
   0   1   3   47.32    2.90
   0  -1  -3   40.55    2.81
   0   1   4  112.34    4.78
   0   1   5  373.51    9.65
   0   1   6  269.10    8.94
   0   1   7 1059.59   18.69
   0   1   8   20.44    3.08
   0   1   9   86.67    6.63
   0   1  10   18.28    3.71
   0   1  11   24.81    4.41
   0   1  12   -0.77    6.75
   0   1  13    0.51    3.09
   0   1  14   -0.55    3.41
   0   1  15    2.06    4.18
   0   1  16   -0.67    4.94
   0   1  16    1.65    2.17
   0   1  17    4.58    2.75
   0   1  18   -0.43    1.35
   0   1  19   -1.08    1.36
   0   1  20   12.13    4.05
   0  -2  19    1.31    1.76
   0  -2  18    0.62    1.26
   0  -2  17   14.98    3.92
   0  -2  16    5.16    2.34
   0  -2  15  101.37    9.62
   0  -2  14   56.72    6.72
   0  -2  13   -0.23    0.82
   0   2 -12  106.20    5.44
   0  -2  12  116.42    8.46
   0  -2  11    2.79    1.34
   0   2 -11    1.41    0.84
   0  -2  11    0.05    1.85
   0   2 -10  207.89    7.79
   0  -2  10  219.35   10.47
   0   2  -9  354.33   10.30
   0  -2   9  301.89   11.75
   0   2  -8   74.27    4.99
   0  -2   8   72.42    5.46
   0   2  -7  346.74   10.05
   0  -2   7  386.15   12.37
   0   2  -6   57.01    4.14
   0  -2   6   54.18    4.36
   0   2  -5  706.24   15.11
   0   2  -5  599.30   13.53
   0  -2   5  667.17   15.10
   0   2  -4 1074.01   17.46
   0  -2   4 1012.45   17.24
   0   2  -4 1077.05   16.04
   0   2  -3   30.27    2.70
   0   2  -3   29.84    2.91
   0   2  -2  227.14    7.11
   0   2  -1  366.62    9.04
   0   2  -1  346.20    6.11
   0   2   0 1696.82   18.62
   0  -2   0 1680.40   15.35
   0   2   0 1717.01   14.89
   0  -2  -1 3417.25   23.27
   0   2   1 3344.04   25.73
   0   2   1 3374.45   23.49
   0  -2  -2   26.35    2.50
   0   2   2   22.46    2.15
   0   2   2   26.66    2.48
   0  -2  -3  529.00   11.37
   0   2   3  525.99   11.24
   0   2   3  525.83    9.68
   0   2   4   50.74    3.86
   0   2   4   51.24    2.89
   0   2   5   60.14    3.02
   0   2   5   97.46    5.60
   0   2   6 1326.38   21.61
   0   2   6 1261.86   11.56
   0   2   7  116.75    7.06
   0   2   8   22.51    3.59
   0   2   9   41.28    5.01
   0   2  10   23.20    4.11
   0   2  11  159.32   10.69
   0   2  12   48.49    6.44
   0   2  13    2.75    3.03
   0   2  14    6.60    3.99
   0   2  15    0.81    3.77
   0   2  16    5.79    6.05
   0   2  18   -3.48    6.21
   0   2  18   -0.54    1.31
   0   2  19   -0.76    1.55
   0   2  20    0.09    1.68
   0   2  21    0.02    1.46
   0  -3  18    2.55    2.13
   0  -3  17    0.08    1.35
   0  -3  16   13.97    3.58
   0  -3  15   37.50    5.74
   0  -3  14   36.86    5.60
   0  -3  13    7.75    2.60
   0   3 -13    6.39    1.72
   0  -3  12    4.73    2.04
   0   3 -12    3.57    1.21
   0   3 -11   51.13    4.60
   0  -3  11   44.14    5.34
   0   3 -10  253.84   10.35
   0  -3  10  200.70   10.88
   0   3  -9   45.24    4.74
   0  -3   9   45.14    4.89
   0   3  -8  248.82   10.48
   0  -3   8  230.15   11.03
   0  -3   7   14.42    2.55
   0   3  -7   10.03    3.43
   0   3  -7   20.83    3.07
   0   3  -6   26.51    3.12
   0   3  -6   25.15    3.27
   0   3  -5  155.32    7.35
   0   3  -5  139.14    7.66
   0   3  -4   12.39    2.30
   0   3  -4   13.20    2.13
   0   3  -3   94.21    5.43
   0   3  -3  108.29    6.64
   0   3  -2    0.45    0.71
   0   3  -2    2.18    1.02
   0   3  -1  219.08    8.62
   0   3  -1  240.99    6.76
   0   3   0 2713.91   29.40
   0   3   0 2738.65   23.87
   0   3   1  163.02    6.28
   0   3   1  188.58    7.66
   0   3   2  827.22   16.15
   0   3   2  820.43   15.12
   0   3   3  146.80    6.57
   0   3   3  128.61    6.52
   0   3   4    6.38    1.42
   0   3   4    9.63    2.21
   0   3   5  342.14    9.54
   0   3   5  370.98   11.98
   0   3   6    6.29    2.09
   0   3   6    2.15    0.90
   0   3   7  130.92    8.35
   0   3   7  106.80    4.55
   0   3   8    0.72    1.74
   0   3   8    0.51    0.48
   0   3   9    8.34    2.58
   0   3  10  234.40   13.21
   0   3  11  224.78   13.26
   0   3  12   65.45    7.34
   0   3  13    3.01    3.00
   0   3  14    0.44    2.99
   0   3  15   13.38    5.48
   0   3  16    0.12    4.02
   0   3  17    2.24    4.95
   0   3  20    0.73    1.48
   0   3  21    1.75    2.99
   0   4 -13    5.02    1.73
   0   4 -12   35.37    4.31
   0   4 -11   94.00    7.12
   0   4 -10    5.54    2.00
   0   4  -9  519.69   17.78
   0   4  -8   50.09    5.28
   0   4  -8   26.05    4.35
   0   4  -7   22.97    3.53
   0   4  -7   16.91    3.18
   0   4  -6  446.02   15.52
   0   4  -6  456.22   14.34
   0   4  -5    1.10    1.01
   0   4  -5    1.04    0.95
   0   4  -4  383.69   12.53
   0   4  -4  379.97   13.28
   0   4  -3  191.02    9.77
   0   4  -3  137.33    8.02
   0   4  -2    4.90    1.50
   0   4  -2    5.01    1.72
   0   4  -1  647.17   17.83
   0   4  -1  654.47   13.20
   0   4   0  139.09    8.13
   0   4   0  118.72    6.03
   0   4   1 1851.81   29.14
   0   4   1 1837.86   24.39
   0   4   2 1249.75   23.15
   0   4   2 1185.07   20.92
   0   4   3    2.45    1.23
   0   4   3    1.61    1.63
   0   4   4    5.51    2.20
   0   4   4    3.58    1.34
   0   4   5   25.81    3.63
   0   4   5   28.94    3.30
   0   4   6   24.06    2.92
   0   4   6   31.05    4.28
   0   4   7  880.29   23.15
   0   4   7  819.50   16.93
   0   4   8    3.70    1.17
   0   4   8    1.80    2.10
   0   4   9    7.40    1.31
   0   4   9   18.16    4.02
   0   4  10   91.46    4.53
   0   4  10   95.92    8.96
   0   4  11   72.71    9.11
   0   4  12  116.08   10.82
   0   4  13    1.30    2.32
   0   4  14    0.13    2.84
   0   4  15   -1.40    3.45
   0   4  16   -2.35    4.25
   0   4  17    1.83    5.20
   0   4  18    2.98    7.08
   0   4  19   -1.83    6.51
   0   5 -12   56.18    6.11
   0   5 -11    1.95    1.51
   0   5 -10  277.71   13.35
   0   5 -10  254.75   13.47
   0   5  -9  214.72   12.74
   0   5  -9  171.29   11.02
   0   5  -8   94.60    7.34
   0   5  -8   82.30    7.40
   0   5  -7    2.82    1.46
   0   5  -7    0.54    1.31
   0   5  -6   12.62    3.03
   0   5  -6   12.13    2.58
   0   5  -5  528.51   17.42
   0   5  -5  494.86   18.23
   0   5  -4  353.05   12.78
   0   5  -4  359.29   15.02
   0   5  -3   31.63    4.28
   0   5  -3   36.08    4.85
   0   5  -2   49.25    4.65
   0   5  -2   54.82    5.69
   0   5  -1  215.25    9.25
   0   5  -1  232.92   11.71
   0   5   0  940.23   23.19
   0   5   0 1040.38   19.94
   0   5   1 3199.64   42.14
   0   5   1 3261.18   37.56
   0   5   2  169.65    8.92
   0   5   2  106.38    7.52
   0   5   3  951.46   22.28
   0   5   3 1009.30   22.88
   0   5   4   35.45    4.33
   0   5   4   31.51    4.33
   0   5   5    7.22    2.01
   0   5   5    8.31    2.70
   0   5   6  392.93   13.81
   0   5   6  424.81   16.45
   0   5   7    3.86    1.48
   0   5   7    0.77    2.04
   0   5   8  324.51   15.72
   0   5   8  273.67   10.56
   0   5   9    1.58    1.99
   0   5   9   -0.04    0.56
   0   5  10   22.22    4.88
   0   5  10    8.16    1.60
   0   5  11  200.91    7.87
   0   5  11  237.69   15.60
   0   5  12    3.06    2.94
   0   5  13   45.64    7.74
   0   5  14   30.22    7.00
   0   5  15   -0.16    3.81
   0   5  16    5.68    4.88
   0   5  17    1.83    5.29
   0   5  18    2.55    5.87
   0   5  19   -0.80    8.24
   0   5  20   -2.95    7.47
   0   6 -12    0.74    1.36
   0   6 -11   14.90    3.59
   0   6 -10   33.59    5.82
   0   6  -9   88.29    8.01
   0   6  -9   59.71    7.77
   0   6  -8   51.72    6.90
   0   6  -8   52.95    5.78
   0   6  -7   16.32    3.90
   0   6  -7   19.75    3.53
   0   6  -6   85.86    8.51
   0   6  -6   84.85    7.34
   0   6  -5  251.15   12.40
   0   6  -5  239.81   13.64
   0   6  -4   -0.21    2.37
   0   6  -4    4.28    1.85
   0   6  -4    6.94    2.40
   0   6  -3  657.34   22.12
   0   6  -3  616.39   20.79
   0   6  -2    6.76    2.28
   0   6  -2    0.70    1.56
   0   6  -1  177.90    9.56
   0   6  -1  157.85   10.73
   0   6   0  491.23   16.05
   0   6   0  445.09   17.57
   0   6   1   18.74    3.33
   0   6   1    6.20    2.34
   0   6   2 1203.24   28.49
   0   6   2 1232.97   25.98
   0   6   3  251.92   12.75
   0   6   3  218.94   11.51
   0   6   4   58.84    6.35
   0   6   4   55.33    5.99
   0   6   5   33.07    4.94
   0   6   5   28.53    4.21
   0   6   6   16.06    3.25
   0   6   6    6.12    2.59
   0   6   7  477.08   19.51
   0   6   7  381.62   14.64
   0   6   8  367.84   14.60
   0   6   8  333.14   17.20
   0   6   9    9.24    3.56
   0   6   9    6.32    1.88
   0   6  10   58.29    5.23
   0   6  10   87.43    9.84
   0   6  11   12.62    4.47
   0   6  11   18.29    2.69
   0   6  12   32.35    3.61
   0   6  12   23.25    5.94
   0   6  13   80.00   12.05
   0   6  14    2.56    3.60
   0   6  15   -0.85    4.74
   0   6  16    3.04    4.59
   0   6  17    5.52    5.73
   0   6  18    2.71    6.60
   0   6  19    5.27    8.41
   0   6  20   12.32   10.05
   0   7  -6   54.40    6.52
   0   7  -6   44.04    6.56
   0   7  -5    0.37    0.76
   0   7  -5    0.20    2.61
   0   7  -5    0.80    1.38
   0   7  -4   40.58    7.15
   0   7  -4  236.51   14.49
   0   7  -3  137.21   10.38
   0   7  -3  181.85   12.59
   0   7  -2   99.36    9.80
   0   7  -2   86.15    8.72
   0   7  -1   16.92    3.92
   0   7  -1   11.56    3.27
   0   7   0    0.05    1.19
   0   7   0    1.10    1.92
   0   7   1  550.72   19.24
   0   7   1  475.71   19.98
   0   7   2  868.17   26.58
   0   7   2  803.81   24.08
   0   7   3   74.89    7.60
   0   7   3   58.43    6.78
   0   7   4   13.07    3.55
   0   7   4   19.08    3.77
   0   7   5    9.11    3.29
   0   7   5    8.57    2.72
   0   7   6   94.50    9.14
   0   7   6   67.57    6.92
   0   7   7  465.82   18.31
   0   7   7  463.79   21.07
   0   7   8   40.11    6.83
   0   7   8   16.23    3.56
   0   7   9   72.74    9.14
   0   7   9   76.76    7.05
   0   7  10    0.39    0.85
   0   7  10    0.78    2.36
   0   7  11    1.63    2.93
   0   7  11    0.17    0.98
   0   7  12   60.48    5.72
   0   7  12   32.42    7.24
   0   7  13    1.01    3.04
   0   7  13    7.98    2.16
   0   7  14   16.28    6.29
   0   7  15    0.44    4.44
   0   7  16    2.47    4.75
   0   7  17   -0.21    5.15
   0   7  18    0.94    6.04
   0   7  19   -2.39    7.73
   0   8  -6    2.72    3.46
   0   8  -5    1.72    3.65
   0   8  -3   15.17    4.44
   0   8  -2   17.75    5.01
   0   8  -1    1.03    2.25
   0   8   0   15.29    3.91
   0   8   0   13.89    3.86
   0   8   1  257.26   15.03
   0   8   1  284.73   16.30
   0   8   2   46.49    6.59
   0   8   2   75.79    8.31
   0   8   3  125.11   10.58
   0   8   3  124.41   10.72
   0   8   4    3.84    2.50
   0   8   4    5.78    2.42
   0   8   5   16.93    4.56
   0   8   5   13.46    3.58
   0   8   6  113.64    9.67
   0   8   6  120.85   11.42
   0   8   7   10.44    4.01
   0   8   7    5.06    2.29
   0   8   8   18.00    4.11
   0   8   8   12.96    4.62
   0   8   9    5.59    2.47
   0   8   9    5.80    3.82
   0   8  10   12.09    3.07
   0   8  10   15.85    6.14
   0   8  11  143.88    9.85
   0   8  11  113.50   13.72
   0   8  12    4.74    1.70
   0   8  12    1.95    3.01
   0   8  13   52.96   10.01
   0   8  14    6.97    5.61
   0   8  15    5.66    5.13
   0   8  16    3.70    6.55
   0   8  17   -1.12    6.85
   0   8  18   -0.07    6.28
   0   9  -5    3.08    5.15
   0   9  -4    0.56    4.35
   0   9  -3   11.43    6.47
   0   9  -2   21.64    6.26
   0   9  -1   33.85    6.75
   0   9   0   46.51    7.51
   0   9   1   28.19    5.70
   0   9   2  402.84   20.02
   0   9   3   23.65    5.56
   0   9   4   18.70    5.14
   0   9   5   23.52    5.71
   0   9   6    0.87    2.71
   0   9   7   47.82    8.65
   0   9   8   73.88   10.99
   0   9   9    9.68    4.69
   0   9  10   19.25    4.24
   0   9  10   17.34    6.08
   0   9  11    0.78    2.88
   0   9  11    4.91    2.18
   0   9  12   31.07    8.18
   0   9  13   38.26    9.82
   0   9  14    6.26    5.56
   0   9  15   -0.98    4.60
   0   9  16    1.35    4.70
   0  10  -5    0.54    4.86
   0  10  -4   -3.18    4.68
   0  10  -2   29.61    8.82
   0  10  -1    6.86    4.32
   0  10   0    0.86    3.27
   0  10   1  169.41   15.70
   0  10   2   94.82   11.43
   0  10   3   40.43    7.40
   0  10   4   87.01   10.47
   0  10   5   -0.51    2.28
   0  10   6   34.26    7.90
   0  10   7   59.49   10.15
   0  10   8   18.40    6.63
   0  10   9   31.30    8.27
   0  10  10    1.59    3.14
   0  10  11    3.89    4.96
   0  10  12   16.71    7.65
   0  10  13    2.90    5.45
   0  10  14    6.32    6.58
   0  11  -4    7.13    7.27
   0  11  -2    7.47    6.61
   0  11  -1    0.82    4.96
   0  11   0    0.32    4.39
   0  11   1   39.79    8.65
   0  11   2   53.43   10.49
   0  11   3  156.03   17.89
   0  11   4    3.43    3.41
   0  11   5   36.15    8.90
   0  11   6    9.23    5.57
   0  11   7    8.62    5.39
   0  11   8   77.44   13.49
   0  11   9    4.33    4.88
   0  11  10    1.41    4.12
   0  11  11    4.09    5.58
   0  11  12    3.92    5.80
   0  12  -3    4.14    6.97
   0  12  -1    3.00    6.06
   0  12   0    4.46    6.57
   0  12   1    3.04    5.23
   0  12   2   70.71   13.52
   0  12   3    1.14    4.37
   0  12   4   28.10    9.69
   0  12   5   12.36    6.79
   0  12   6    2.88    4.90
   0  12   7   30.62   10.61
   0  12   8   12.11    7.43
   0  12   9   10.82    7.28
   0  12  10   13.07    8.19
   0  13   0    2.66    6.47
   0  13   1   -1.52    8.05
   0  13   2    0.09    6.51
   0  13   3    3.57    6.62
   0  13   4   13.85    7.08
   0  13   5    2.02    5.65
   0  13   6    5.14    6.29
   0  13   7    5.14    5.56
   0  13   8    0.63    6.08
   0  14   1    3.07    7.86
   0  14   2   -2.58    8.70
   0  14   3    8.14    9.51
   0  14   4    0.87    9.28
   0  14   5    1.83    7.00
  -1  14   5   -0.09    8.28
  -1  14   4   -0.54    7.70
  -1  14   3   -1.05    7.98
  -1  14   2   -6.87   11.51
  -1  14   1    3.35    8.77
  -1  14   0    0.64    9.77
  -1  13   8    3.08    7.98
  -1  13   7    0.97    7.40
  -1  13   6    1.51    6.63
  -1  13   5   -0.19    7.97
  -1  13   4    2.34    8.13
  -1  13   3   -2.48    7.30
  -1  13   2    4.24    7.06
  -1  13   0    3.89    8.18
  -1  13  -1   -7.39   10.15
  -1  12  10    4.15    6.32
  -1  12   9    4.71    6.13
  -1  12   8    3.77    6.57
  -1  12   7    2.95    6.24
  -1  12   6   16.71    9.65
  -1  12   5    3.82    6.97
  -1  12   4    5.01    7.21
  -1  12   3    9.89    8.25
  -1  12   2    4.94    6.36
  -1  12   0    3.80    7.87
  -1  12  -1    0.90    7.41
  -1  11  12    1.82    6.19
  -1  11  11   -0.71    5.32
  -1  11  10    2.67    6.67
  -1  11   9   17.84    9.04
  -1  11   8    4.43    5.88
  -1  11   7   93.49   16.62
  -1  11   6    2.02    5.78
  -1  11   5   -1.81    6.13
  -1  11   4   20.15    9.61
  -1  11   3    2.67    4.83
  -1  11   2   75.42   15.39
  -1  11   1   26.79   10.43
  -1  11  -1   -0.29    5.50
  -1  11  -2    3.34    6.77
  -1  11  -3   -2.12    7.22
  -1  11  -4    6.09    7.54
  -1  10  14   -0.53    6.08
  -1  10  13   -2.09    5.88
  -1  10  12    0.43    5.82
  -1  10  11    5.50    6.15
  -1  10  10    1.28    4.36
  -1  10   9    5.02    5.59
  -1  10   8   65.57   13.46
  -1  10   7    3.76    5.63
  -1  10   6   65.55   12.46
  -1  10   5   -0.62    3.50
  -1  10   4    1.51    4.48
  -1  10   3    7.31    5.48
  -1  10   2   31.49    8.82
  -1  10   1   31.79    8.82
  -1  10   0    0.89    4.82
  -1  10  -2   -3.75    5.99
  -1  10  -4    1.05    5.51
  -1  10  -6    2.35    5.83
  -1   9  16    5.20    8.74
  -1   9  15    4.93    6.60
  -1   9  14    2.71    5.96
  -1   9  13   -1.50    6.15
  -1   9  12   11.37    6.80
  -1   9  11   18.85    4.45
  -1   9  11   16.60    7.16
  -1   9  10    6.07    2.68
  -1   9  10    1.78    4.38
  -1   9   9   11.63    6.55
  -1   9   8   14.68    6.51
  -1   9   7   29.54    8.48
  -1   9   6  217.44   20.35
  -1   9   5    1.37    3.78
  -1   9   4    0.35    3.67
  -1   9   3   25.34    6.92
  -1   9   2   84.09   11.66
  -1   9   1  183.31   18.05
  -1   9   0   -0.68    3.86
  -1   9  -1    3.35    5.16
  -1   9  -2    3.04    4.60
  -1   9  -3   -0.36    5.10
  -1   9  -5    3.16    5.08
  -1   9  -6    0.34    4.20
  -1   8  17    0.64    8.81
  -1   8  16   -2.85    6.48
  -1   8  15   -1.14    5.92
  -1   8  14    4.94    7.16
  -1   8  13    7.52    5.49
  -1   8  12    4.64    4.68
  -1   8  12   20.98    3.80
  -1   8  11    3.17    1.78
  -1   8  11    2.62    4.76
  -1   8  10  112.79   14.72
  -1   8  10  135.92   10.55
  -1   8   9    5.85    5.23
  -1   8   9   11.57    3.16
  -1   8   8    3.71    4.24
  -1   8   8   10.91    3.18
  -1   8   7   45.75    6.32
  -1   8   7   38.28    9.13
  -1   8   6   35.42    5.62
  -1   8   6   27.02    7.04
  -1   8   5    0.58    1.23
  -1   8   5    0.20    2.85
  -1   8   4    5.01    4.63
  -1   8   4    4.14    2.19
  -1   8   3   -1.41    2.75
  -1   8   3    0.41    0.95
  -1   8   2  124.20   11.01
  -1   8   2  142.32   14.63
  -1   8   1    0.30    1.48
  -1   8   1    2.01    3.42
  -1   8   0    1.84    1.69
  -1   8   0    1.95    3.35
  -1   8  -1    4.12    4.55
  -1   8  -2   -0.14    3.30
  -1   8  -3    0.25    4.33
  -1   8  -4   -1.69    4.27
  -1   8  -5    1.78    4.31
  -1   8  -6    1.87    3.59
  -1   8  -7    2.01    3.39
  -1   7  18    4.25    6.88
  -1   7  17   -0.13    7.53
  -1   7  16   -2.07    7.19
  -1   7  15    3.40    6.55
  -1   7  14    0.63    5.19
  -1   7  13   17.58    7.40
  -1   7  12   -0.34    3.70
  -1   7  12    0.56    0.95
  -1   7  11    6.13    5.10
  -1   7  11   19.41    3.50
  -1   7  10    1.85    1.55
  -1   7  10    2.99    3.56
  -1   7   9    9.33    2.64
  -1   7   9    5.53    4.33
  -1   7   8  312.86   14.81
  -1   7   8  302.99   20.69
  -1   7   7   23.94    6.13
  -1   7   7    4.45    2.02
  -1   7   6  293.35   18.04
  -1   7   6  283.18   14.50
  -1   7   5  133.27   10.30
  -1   7   5  169.54   13.94
  -1   7   4   40.85    6.59
  -1   7   4   33.49    5.27
  -1   7   3    7.82    2.65
  -1   7   3    3.73    3.19
  -1   7   2    4.62    3.36
   1  -7  -2    3.30    1.78
  -1   7   2    2.58    1.65
  -1   7   1   69.61    7.31
  -1   7   1   84.38   10.21
  -1   7   0   91.31   11.86
  -1   7   0   63.50    7.11
  -1   7  -1    4.17    3.48
  -1   7  -1    4.22    2.06
  -1   7  -2  224.72   13.77
  -1   7  -2  154.33   14.52
  -1   7  -3   89.69    9.04
  -1   7  -4   86.93    9.13
  -1   7  -5  227.95   12.98
  -1   7  -5  227.40   14.55
  -1   7  -6    0.45    0.87
  -1   7  -6    1.31    1.53
  -1   7  -6   -1.27    3.02
  -1   7  -7   62.89    6.86
  -1   7  -8    1.28    1.13
  -1   6  18   -3.64    7.10
  -1   6  17   -0.35    8.03
  -1   6  16   -0.94    6.62
  -1   6  15   -3.82    6.53
  -1   6  14    3.32    4.95
  -1   6  13   11.30    2.11
  -1   6  13    0.16    4.15
  -1   6  12    4.35    4.24
  -1   6  12   20.47    2.84
  -1   6  11   19.93    3.04
  -1   6  11   14.75    5.22
  -1   6  10   23.15    6.92
  -1   6  10   45.46    4.92
  -1   6   9    0.77    2.57
  -1   6   9    0.59    1.01
  -1   6   8    2.91    2.92
  -1   6   8   -0.09    0.85
  -1   6   7  244.53   11.92
  -1   6   7  209.86   14.10
  -1   6   6  219.99   12.01
  -1   6   6  261.19   15.16
   1  -6  -6  243.38   12.78
  -1   6   5   14.41    3.06
   1  -6  -5   15.93    3.23
  -1   6   5    9.48    3.37
   1  -6  -4   30.61    4.30
  -1   6   4   39.04    5.71
  -1   6   4   26.44    4.13
  -1   6   3    1.23    1.14
  -1   6   3    2.38    2.47
   1  -6  -3    2.01    1.60
  -1   6   2  131.01    9.67
  -1   6   2  139.30   11.07
   1  -6  -2  131.72    8.68
  -1   6   1  556.33   20.03
   1  -6  -1  554.55   16.86
  -1   6   0   27.54    4.67
  -1   6   0   22.14    5.61
   1  -6   0   26.18    3.68
  -1   6  -1   67.62    7.32
  -1   6  -1   57.84    9.66
   1  -6   1   60.29    4.89
  -1   6  -2   49.55    6.12
   1  -6   2   47.61    4.23
  -1   6  -2   46.02    8.04
  -1   6  -3  174.85   11.11
  -1   6  -4   -0.77    3.29
  -1   6  -4  211.16   11.91
  -1   6  -5   11.99    2.84
  -1   6  -5   16.44    3.72
  -1   6  -6  226.03   11.69
  -1   6  -6  245.00   14.51
  -1   6  -7    0.01    0.68
  -1   6  -7   -0.41    1.18
  -1   6  -8    1.41    1.68
  -1   6  -8    0.70    1.01
  -1   6  -9  257.75   12.71
  -1   6  -9  260.57   15.25
  -1   6 -10    5.16    2.55
  -1   6 -10   11.77    3.01
  -1   6 -11    1.38    1.60
  -1   6 -12    0.15    1.46
  -1   5  19   -1.71    8.61
  -1   5  18    0.94    8.55
  -1   5  17   -0.44    5.81
  -1   5  16    4.02    7.91
  -1   5  15    0.49    4.92
  -1   5  14   -0.99    4.35
  -1   5  13    1.34    3.74
  -1   5  12   49.84    3.61
  -1   5  12   30.14    7.30
  -1   5  11    6.33    4.03
  -1   5  11   31.76    3.12
  -1   5  10  142.36    7.53
  -1   5  10  105.54   11.64
  -1   5   9    3.66    2.93
  -1   5   9    0.95    0.99
  -1   5   8   82.46    6.09
  -1   5   8   51.48    7.25
   1  -5  -7  483.03   17.25
  -1   5   7  457.65   19.36
  -1   5   7  429.82   14.78
  -1   5   6   52.88    4.87
  -1   5   6   42.61    6.19
   1  -5  -6   60.55    6.05
  -1   5   5  134.19   10.17
   1  -5  -5  137.52    8.79
  -1   5   5  109.87    7.53
  -1   5   4   12.61    2.71
  -1   5   4   20.54    4.25
   1  -5  -4   16.07    2.97
   1  -5  -3    5.33    1.92
  -1   5   3    2.04    1.95
  -1   5   3    6.21    2.00
  -1   5   2  881.42   22.48
   1  -5  -2  844.59   18.97
  -1   5   1    7.10    2.99
  -1   5   1   13.83    3.00
   1  -5  -1   11.79    2.31
  -1   5   0  393.49   15.37
   1  -5   0  358.31   11.27
  -1   5  -1  315.08   20.10
  -1   5  -1  261.39   12.78
   1  -5   1  245.72    8.84
  -1   5  -2    0.13    2.81
  -1   5  -2    9.52    2.64
   1  -5   2    6.93    1.58
   1  -5   3  313.78    9.03
  -1   5  -3  321.30   13.93
  -1   5  -4   30.02    4.53
   1  -5   4   23.48    2.31
  -1   5  -5  391.40   15.94
  -1   5  -5  418.41   14.87
  -1   5  -6  210.77   10.48
  -1   5  -6  200.16   11.12
  -1   5  -7    0.12    0.65
  -1   5  -7    0.45    0.97
  -1   5  -8   72.88    5.93
  -1   5  -8   68.78    7.12
  -1   5  -9   38.44    5.41
  -1   5  -9   59.28    6.13
  -1   5 -10  108.47    9.01
  -1   5 -10   68.37    6.85
  -1   5 -11   26.85    4.65
  -1   5 -12   -0.07    1.38
  -1   5 -13    0.91    1.39
  -1   4  19    5.95    8.70
  -1   4  18   -5.47    9.01
  -1   4  16    1.86    5.51
  -1   4  15    1.75    5.90
  -1   4  14   -2.44    5.49
  -1   4  13    0.12    4.25
  -1   4  12   -0.26    3.23
  -1   4  11   49.65    8.69
  -1   4  11   92.67    3.60
  -1   4  10   18.48    2.10
  -1   4  10   13.31    4.19
  -1   4   9   61.11    4.14
  -1   4   9   43.60    6.99
   1  -4  -8    0.17    1.63
  -1   4   8    0.02    0.60
  -1   4   8   -0.16    2.16
  -1   4   7    9.18    1.88
  -1   4   7    2.44    2.32
   1  -4  -7    6.50    2.22
  -1   4   6   82.44    5.73
  -1   4   6   86.96    8.11
   1  -4  -6   99.15    7.10
   1  -4  -5  180.29    9.16
  -1   4   5  179.69   11.09
  -1   4   5  157.54    7.92
   1  -4  -4  145.40    7.77
  -1   4   4  134.43    9.47
  -1   4   3   55.77    6.01
   1  -4  -3   53.87    4.70
   1  -4  -2    7.76    1.89
  -1   4   2    9.40    2.99
   1  -4  -1  238.60    9.06
  -1   4   1  344.71   14.52
   1  -4   0  181.98    7.73
  -1   4   0  289.63   14.05
  -1   4  -1   34.91    8.64
   1  -4   1   60.95    4.26
  -1   4  -2   -0.55    3.02
   1  -4   2    0.40    0.92
   1  -4   3  124.52    5.01
   1  -4   4  274.29    6.48
  -1   4  -4  302.24   12.76
   1  -4   5  198.94    4.96
  -1   4  -5  228.99    9.47
  -1   4  -5  234.72   11.04
  -1   4  -6   12.23    2.25
  -1   4  -6   11.51    2.72
  -1   4  -7   91.00    5.93
  -1   4  -7   82.97    6.67
  -1   4  -8   23.44    3.84
  -1   4  -8   22.50    3.81
  -1   4  -9  139.62    8.70
  -1   4  -9   87.93    6.99
  -1   4 -10  168.55   10.12
  -1   4 -11    1.12    1.29
  -1   4 -12   41.39    5.27
  -1   4 -13    2.99    1.81
  -1   3  20    0.61    2.01
  -1   3  17    7.27    7.97
  -1   3  16    0.52    6.33
  -1   3  15    2.25    5.47
  -1   3  14    4.43    5.89
  -1   3  13   -1.28    4.33
  -1   3  12   -2.08    4.16
  -1   3  11    4.93    3.64
  -1   3  10    8.70    3.81
  -1   3   9  265.17    6.01
  -1   3   9  219.08   14.53
  -1   3   8    1.26    2.50
  -1   3   8    5.57    1.18
   1  -3  -8    3.44    1.70
  -1   3   7   68.05    7.44
   1  -3  -7   91.36    6.67
  -1   3   7   77.99    4.21
   1  -3  -6   14.92    2.71
  -1   3   6   11.62    1.92
  -1   3   6    9.65    3.17
  -1   3   5   73.54    6.60
   1  -3  -5   89.91    5.84
  -1   3   4  195.86    9.90
   1  -3  -4  177.77    8.06
  -1   3   3    1.76    2.04
   1  -3  -3    1.63    1.25
  -1   3   2   24.79    4.57
   1  -3  -2   21.87    2.93
  -1   3   1    2.38    2.20
   1  -3  -1    1.93    1.35
   1  -3   0    0.46    1.10
  -1   3   0    1.39    2.28
  -1   3  -1    0.90    2.64
   1  -3   1    3.56    1.42
  -1   3  -2    2.32    3.13
   1  -3   2    7.42    1.79
   1  -3   3   14.13    2.07
   1  -3   4   65.83    3.46
  -1   3  -4  101.59    5.29
  -1   3  -5   10.50    1.76
   1  -3   5    3.33    0.79
  -1   3  -6   50.05    4.93
  -1   3  -6   69.35    4.48
  -1   3  -7   21.76    3.34
  -1   3  -7   16.67    2.89
  -1   3  -8   40.31    4.15
  -1   3  -9  435.26   14.36
   1  -3   9  390.56   13.97
  -1   3 -10   15.96    2.91
   1  -3  10   14.52    2.76
   1  -3  11   47.58    5.38
  -1   3 -11   59.55    5.62
   1  -3  12   15.09    3.22
  -1   3 -12   15.32    2.97
   1  -3  13    0.51    1.06
  -1   3 -13    0.30    0.84
   1  -3  14  102.42    9.18
  -1   3 -14  153.16    7.65
   1  -3  15    4.42    2.12
   1  -3  16    6.77    2.42
   1  -3  17    1.26    1.47
   1  -3  18   -1.97    1.81
  -1   2  20    0.95    1.71
  -1   2  19    2.16    2.18
  -1   2  18    0.40    1.45
  -1   2  17    4.35    7.59
  -1   2  16    4.09    6.48
  -1   2  13    3.05    4.85
  -1   2  12    2.78    4.54
  -1   2  11   -1.49    3.31
  -1   2   9    2.76    2.99
   1  -2  -8    0.95    1.34
  -1   2   8    0.97    2.40
   1  -2  -7  104.59    6.34
  -1   2   7   78.90    3.17
  -1   2   7   69.62    7.30
  -1   2   6    5.08    2.75
   1  -2  -6   13.99    2.30
  -1   2   5  544.66   18.06
   1  -2  -5  626.84   14.28
   1  -2  -4   86.99    5.48
  -1   2   4   73.71    6.69
   1  -2  -3   27.92    3.29
  -1   2   3   34.00    4.59
   1  -2  -2  281.01    9.24
  -1   2   2  283.39   13.47
   1  -2  -1   25.20    2.66
  -1   2   1   29.36    4.70
  -1   2   0 1110.29   26.35
   1  -2   0 1130.07   18.94
   1  -2   1    3.21    2.43
  -1   2  -2    0.84    2.24
  -1   2  -3  254.21    6.67
  -1   2  -4    0.49    0.46
   1  -2   5  586.24   12.42
  -1   2  -5  642.10   12.19
   1  -2   6  100.90    5.30
  -1   2  -6  144.69    6.09
   1  -2   7   53.05    4.54
  -1   2  -7   34.07    3.63
   1  -2   7   14.93    1.07
   1  -2   8   31.99    1.83
   1  -2   8   73.63    5.38
  -1   2  -8   77.33    5.26
  -1   2  -9    6.81    1.71
   1  -2   9    9.06    2.06
   1  -2   9    1.81    0.91
   1  -2  10  136.79    8.24
  -1   2 -10  155.68    7.60
   1  -2  11  102.62    7.54
  -1   2 -11   89.63    5.59
   1  -2  12    0.49    2.48
  -1   2 -12    1.66    1.02
   1  -2  12    1.40    1.06
   1  -2  13    1.32    2.93
   1  -2  13   -0.41    0.88
  -1   2 -13    0.13    0.60
   1  -2  14    4.15    1.92
  -1   2 -14    2.31    0.95
   1  -2  15   31.61    5.04
   1  -2  16   79.03    8.21
   1  -2  17    0.49    1.29
   1  -2  18    0.35    1.44
  -1   1  20    8.36    3.43
  -1   1  19    2.54    2.47
  -1   1  18    0.01    1.39
  -1   1  17    2.48    2.77
  -1   1  16   -1.62    5.61
  -1   1  16    8.29    4.21
  -1   1  15   -2.38    6.13
  -1   1  15    2.87    2.17
  -1   1  14    1.84    4.71
  -1   1  12   -0.33    4.05
  -1   1  11    0.88    3.15
  -1   1  10    1.03    3.46
  -1   1   9    2.76    3.09
  -1   1   8   -1.42    2.85
   1  -1  -8   35.80    3.76
   1  -1  -7   19.74    2.63
  -1   1   7   -4.00    3.46
   1  -1  -6  619.84   13.38
  -1   1   5   10.63    4.12
   1  -1  -5  109.32    5.59
  -1   1   4   25.98    3.91
   1  -1  -4  117.55    5.92
   1  -1  -3   80.71    4.76
  -1   1   3   22.98    4.69
   1  -1  -2  104.43    6.01
  -1   1   1    0.84    2.22
   1  -1   0 4606.42   44.93
  -1   1   0 4582.40   44.35
   1  -1   1   -1.03    1.88
  -1   1  -1   -1.26    2.15
   1  -1   2    0.50    1.78
   1  -1   3   16.24    1.38
  -1   1  -3   21.65    1.49
   1  -1   4  149.48    4.54
   1  -1   5  483.82    9.15
   1  -1   6    8.22    1.37
   1  -1   7  678.00   13.48
   1  -1   8    0.70    0.83
   1  -1   8    1.56    0.88
  -1   1  -8    1.13    0.73
   1  -1   9   48.78    3.37
   1  -1   9   28.99    3.24
  -1   1  -9   39.55    3.18
   1  -1  10  151.46    6.58
   1  -1  10  146.32    7.94
  -1   1 -10  151.32    5.89
  -1   1 -11    7.26    1.41
   1  -1  11    1.76    1.06
   1  -1  11    2.30    1.54
   1  -1  12    8.70    2.16
   1  -1  12    2.21    1.72
  -1   1 -12    7.21    1.06
   1  -1  13   -0.54    2.33
   1  -1  13    1.27    1.05
   1  -1  14   10.42    2.69
   1  -1  14    0.98    2.97
   1  -1  15  207.18   12.34
   1  -1  16    2.50    1.53
   1  -1  17    9.30    2.89
   1  -1  18   -0.12    1.03
   1  -1  19    5.89    2.66
  -1   0  20   30.64    6.44
  -1   0  19    3.43    2.29
  -1   0  18    0.61    1.34
  -1   0  17   11.06    3.43
  -1   0  16    1.52    5.35
  -1   0  16    7.63    2.96
  -1   0  15   51.11    7.30
  -1   0  15   -0.88    4.52
  -1   0  14    4.44    2.19
  -1   0  14   -1.50    5.42
  -1   0  13   -1.44    4.86
  -1   0  13    5.82    2.50
  -1   0  12    8.80    3.64
  -1   0  11    0.37    1.05
   1   0  -8   -0.19    0.85
  -1   0   8    0.78    3.45
   1   0  -7  131.10    5.73
   1   0  -6  216.95    7.05
  -1   0   6  177.81    4.65
   1   0  -5  443.89    9.93
  -1   0   5  420.72    6.68
   1   0  -4  319.13    8.38
  -1   0   4  324.73    5.60
   1   0  -3    2.94    1.64
  -1   0   2    1.74    2.37
   1   0  -2    0.44    2.04
   1   0  -1    0.41    1.54
   1   0   8   21.99    2.68
   1   0   9  165.18    6.92
  -1   0  -9  116.31    3.75
   1   0  10   28.38    3.35
   1   0  11  515.73   14.62
   1   0  12   60.51    7.00
   1   0  12  142.03    8.23
   1   0  13    2.46    2.25
   1   0  13   19.45    4.20
   1   0  14   -0.26    2.33
   1   0  14    7.07    2.45
   1   0  15    4.31    3.65
   1   0  15    0.16    0.91
   1   0  16    2.17    4.36
   1   0  16   19.12    4.03
   1   0  17   17.56    4.00
   1   0  18    1.76    1.61
   1   0  19    0.91    1.42
  -1  -1  20    4.36    2.79
  -1  -1  19    7.47    3.19
  -1  -1  18    3.08    2.18
  -1  -1  17   -0.55    1.21
  -1  -1  16  136.20   11.65
  -1  -1  15  108.65    9.56
  -1  -1  14   33.52    5.03
  -1  -1  13    1.69    3.90
  -1  -1  13  136.23    9.74
  -1  -1  12    1.90    1.39
  -1  -1  12    1.78    3.90
  -1  -1  11    1.81    3.60
  -1  -1  11   22.81    3.76
  -1  -1  10    1.00    3.05
  -1  -1  10   37.77    4.71
  -1  -1   9    0.88    0.91
  -1  -1   9    1.11    2.79
  -1  -1   8    0.15    2.75
  -1  -1   8  264.32   11.42
   1   1  -7   56.47    3.34
  -1  -1   7   73.51    5.64
  -1  -1   7    2.52    3.01
  -1  -1   6   27.26    2.43
  -1  -1   6   -1.07    2.58
   1   1  -6   16.27    1.66
  -1  -1   5  454.26    9.75
  -1  -1   5  429.27   11.71
   1   1  -5  428.03    9.03
  -1  -1   4   13.68    1.76
   1   1  -4   10.80    1.45
  -1  -1   4    6.00    1.42
   1   1  -4   -0.27    1.37
  -1  -1   3  116.16    4.92
   1   1  -3  161.01    7.86
   1   1  -3  105.37    4.17
  -1  -1   3  111.69    4.64
  -1  -1   2  400.45    8.34
   1   1  -2  410.80    8.54
   1   1  -2  399.89    7.82
  -1  -1   2  401.24    7.93
   1   1  -1    0.79    0.48
  -1  -1   1    0.43    0.48
   1   1  -1    0.71    0.41
  -1  -1   1    0.79    0.58
  -1  -1   0 1987.01   16.25
   1   1   0 1995.72   16.41
  -1  -1  -1  358.19    6.97
  -1  -1  -2   75.91    3.82
  -1  -1  -6  245.73    4.82
   1   1   7  325.93   10.27
  -1  -1  -7  258.43    4.60
   1   1   8    9.84    2.06
   1   1   9    7.99    1.92
   1   1  10   34.82    3.81
   1   1  11  198.23   10.05
   1   1  12   12.53    3.14
   1   1  13    0.35    1.71
   1   1  14    1.04    2.14
   1   1  15   -0.71    2.52
   1   1  16    8.47    4.33
   1   1  16    5.23    3.90
   1   1  17    0.69    1.29
   1   1  17   -0.93    3.79
   1   1  18   -0.25    1.11
   1   1  19    0.45    1.58
   1   1  20    3.77    2.41
  -1  -2  19   22.15    5.62
  -1  -2  18    0.94    1.86
  -1  -2  17    1.86    1.87
  -1  -2  16   58.48    7.96
  -1  -2  15   26.80    5.07
  -1  -2  14  270.81   14.79
  -1  -2  13    2.73    1.67
  -1  -2  12    0.88    0.99
  -1  -2  11    0.56    0.87
  -1  -2  10    1.46    1.18
   1   2  -9  322.08    9.92
  -1  -2   9  356.89   13.46
   1   2  -8   30.15    2.95
  -1  -2   8   26.88    3.57
  -1  -2   7  107.59    6.76
   1   2  -7   91.30    5.04
   1   2  -6   62.30    4.24
  -1  -2   6   71.07    5.25
   1   2  -6   20.68    1.10
  -1  -2   6   58.98    4.36
   1   2  -5    4.68    0.96
  -1  -2   5   29.09    3.03
  -1  -2   5   28.40    3.36
   1   2  -5    9.91    2.28
   1   2  -5   27.06    2.76
   1   2  -4  480.63   11.78
   1   2  -4  428.71   10.85
  -1  -2   4  462.54   12.49
  -1  -2   4  440.51   11.69
  -1  -2   3   90.62    5.21
   1   2  -3  101.38    5.27
  -1  -2   3   85.89    4.92
   1   2  -3   91.50    4.84
  -1  -2   2   15.75    2.30
   1   2  -2   16.94    2.16
   1   2  -2   15.86    2.05
   1   2  -1  238.82    7.47
   1   2  -1  217.87    7.27
  -1  -2   1  200.52    7.34
   1   2   0  142.02    5.58
  -1  -2   0  144.34    6.20
  -1  -2  -1  394.24   10.03
   1   2   1  395.26    9.17
   1   2   2   23.02    2.19
  -1  -2  -2   20.87    2.27
   1   2   3   58.04    3.35
  -1  -2  -3   60.47    3.61
   1   2   4  149.79    5.30
  -1  -2  -4  161.53    5.74
  -1  -2  -5  441.71    9.24
  -1  -2  -6  324.92    7.29
   1   2   7  882.33   18.01
  -1  -2  -7  860.21   11.68
   1   2   8    3.73    1.61
  -1  -2  -8    4.87    0.86
   1   2   9    0.73    1.28
   1   2  10   36.05    4.23
   1   2  11   14.46    3.05
   1   2  12  461.49   17.46
   1   2  13    2.81    2.35
   1   2  14    5.19    2.86
   1   2  15    4.28    2.71
   1   2  16    2.92    3.47
   1   2  17    2.35    3.40
   1   2  18   -1.30    4.13
   1   2  18    1.46    1.62
   1   2  19   -0.74    1.74
   1   2  20    0.54    1.89
  -1  -3  19    3.97    2.54
  -1  -3  18    5.50    2.67
  -1  -3  17    1.21    1.75
  -1  -3  16    2.37    1.97
  -1  -3  15   95.88    9.66
  -1  -3  14   43.65    6.48
  -1  -3  13   12.69    3.57
  -1  -3  12   49.76    6.79
   1   3 -11    4.86    1.45
  -1  -3  11    7.58    2.57
   1   3 -10   45.76    4.30
  -1  -3  10   68.37    7.35
  -1  -3   9  186.71   11.17
   1   3  -9  170.86    8.13
  -1  -3   8   43.18    4.96
   1   3  -8   41.31    4.10
   1   3  -7   99.77    6.31
  -1  -3   7   89.38    6.87
   1   3  -7   50.68    7.68
  -1  -3   6    5.88    1.88
   1   3  -6    6.59    1.67
   1   3  -6    3.79    1.95
   1   3  -5   32.27    3.50
  -1  -3   5   31.50    3.68
   1   3  -5   34.36    3.65
  -1  -3   5   29.81    3.69
   1   3  -4   78.85    5.59
   1   3  -4   89.35    5.57
  -1  -3   4   83.91    5.92
   1   3  -3   14.55    2.31
  -1  -3   3   18.15    2.79
   1   3  -3   17.65    2.71
   1   3  -2  213.15    9.17
   1   3  -2  216.57    8.23
  -1  -3   2  228.92    9.67
   1   3  -1   27.99    3.36
  -1  -3   1   26.22    3.17
   1   3   0  102.15    6.20
  -1  -3   0  113.60    6.52
   1   3   1   33.13    3.41
  -1  -3  -1   42.87    3.96
   1   3   2    1.50    0.92
  -1  -3  -2    2.28    1.21
   1   3   3    5.51    1.38
  -1  -3  -3    5.51    1.52
  -1  -3  -4    0.28    0.66
   1   3   4    1.02    0.82
   1   3   5   21.61    2.17
  -1  -3  -5   25.59    2.71
   1   3   6   76.14    5.49
   1   3   6   61.32    3.89
  -1  -3  -6   68.08    4.47
   1   3   7  134.70    7.84
  -1  -3  -7  121.04    5.50
  -1  -3  -8    1.12    0.75
   1   3   8    0.75    1.34
   1   3   9   86.41    6.48
   1   3  10   27.48    4.05
   1   3  11  420.16   16.39
   1   3  12    6.56    2.71
   1   3  13    3.80    2.50
   1   3  14   12.45    3.94
   1   3  15    0.14    2.39
   1   3  16   31.63    6.27
   1   3  17    3.58    4.08
   1   3  18    0.72    4.89
   1   3  19   -1.55    4.83
  -1  -4  16   10.12    3.58
  -1  -4  15   21.73    4.90
  -1  -4  14   45.09    6.69
  -1  -4  13   58.58    7.32
  -1  -4  12    1.71    1.49
   1   4 -12    1.58    1.19
  -1  -4  11    0.10    0.84
   1   4 -11    0.41    0.94
   1   4 -10   27.03    3.54
  -1  -4  10   33.09    5.10
  -1  -4   9   10.80    2.88
   1   4  -9   10.92    2.45
   1   4  -8  213.75   10.68
   1   4  -8  185.71   13.10
   1   4  -7    0.30    0.70
   1   4  -7    0.10    0.57
   1   4  -6   59.91    5.63
   1   4  -6   80.16    6.10
   1   4  -5  140.60    7.95
   1   4  -5  120.05    7.86
  -1  -4   4    0.29    0.89
   1   4  -4    0.11    0.84
   1   4  -4    0.05    0.50
   1   4  -4    0.12    0.60
   1   4  -3  502.65   16.14
   1   4  -3  536.19   15.11
   1   4  -3  438.34    8.63
  -1  -4   3  500.48   15.92
   1   4  -2  183.06    9.57
  -1  -4   2  175.58    9.31
   1   4  -1   16.58    2.96
  -1  -4   1   15.30    2.73
  -1  -4   0  149.14    8.29
   1   4   0  148.99    8.51
  -1  -4  -1   30.45    3.79
   1   4   1   30.46    3.81
  -1  -4  -2  254.39   10.72
   1   4   2  232.73   10.31
   1   4   3   72.61    5.27
   1   4   3   70.63    5.46
  -1  -4  -3   77.00    5.86
   1   4   4    6.73    1.71
  -1  -4  -4    5.54    1.78
   1   4   4    4.14    1.87
   1   4   5  141.66    7.06
   1   4   5  154.75    8.51
  -1  -4  -5  130.74    7.26
  -1  -4  -6   24.39    3.23
   1   4   6   31.16    3.23
   1   4   6   27.29    3.79
   1   4   7  486.25   12.38
   1   4   7  553.91   16.44
  -1  -4  -7  490.91   13.15
   1   4   8  120.96    7.87
   1   4   8  148.52    6.84
   1   4   9    0.26    1.42
   1   4  10  138.27    9.37
   1   4  11   54.19    6.39
   1   4  12   68.14    7.73
   1   4  13   90.10    9.33
   1   4  14    0.42    2.42
   1   4  15    9.73    4.25
   1   4  16   10.14    4.64
   1   4  17    8.75    4.73
   1   4  18    1.92    4.53
   1   4  19    2.61    5.56
   1   5 -12   -0.13    1.14
   1   5 -11    0.43    1.00
   1   5 -10    1.33    1.27
   1   5  -9  239.58   12.50
   1   5  -9  267.31   16.34
   1   5  -8   26.74    4.10
   1   5  -8   12.19    3.03
   1   5  -7    0.71    1.14
   1   5  -7    0.58    0.78
   1   5  -6   89.07    7.72
   1   5  -6  107.86    7.81
   1   5  -5    1.28    1.02
   1   5  -5   11.75    2.99
   1   5  -5   10.95    2.60
   1   5  -4  316.42   14.62
   1   5  -4  275.15    7.78
   1   5  -4  329.74   13.34
   1   5  -3  270.01    7.81
   1   5  -3  348.10   13.62
  -1  -5   3  303.62   14.00
   1   5  -3  322.86   14.39
   1   5  -2   80.59    4.61
  -1  -5   2   78.15    7.00
   1   5  -2   85.90    7.42
   1   5  -1  222.02   11.64
   1   5  -1  222.13    8.18
  -1  -5   1  216.85   11.26
   1   5   0    4.53    1.90
  -1  -5   0    4.46    1.85
   1   5   0    4.47    1.67
   1   5   1  964.38   23.86
   1   5   1 1072.19   20.77
  -1  -5  -1  989.11   24.32
   1   5   2 1458.20   28.74
   1   5   2 1500.39   25.66
  -1  -5  -2 1452.11   29.03
   1   5   3   15.41    3.02
   1   5   3   22.31    3.47
  -1  -5  -3   19.25    3.43
   1   5   4    7.75    2.24
   1   5   4    5.71    2.22
  -1  -5  -4    6.88    2.12
  -1  -5  -5    0.99    1.13
   1   5   5    0.79    1.54
   1   5   5    1.68    1.17
   1   5   6   89.89    6.32
   1   5   6  103.57    7.54
  -1  -5  -6   94.29    6.97
   1   5   7  555.66   17.48
   1   5   7  573.42   15.41
   1   5   8    0.16    1.48
   1   5   8    1.74    0.91
   1   5   9   17.76    3.75
   1   5   9   20.73    2.82
   1   5  10    8.97    3.05
   1   5  11   20.05    4.35
   1   5  12  219.15   14.81
   1   5  13    4.35    3.68
   1   5  14   89.78   10.73
   1   5  15    1.47    2.61
   1   5  16    1.60    3.19
   1   5  17   12.44    5.33
   1   5  18    1.89    5.14
   1   5  19    4.84    5.58
   1   5  20    4.24    7.94
   1   6 -11   -0.02    1.06
   1   6 -10    0.42    1.05
   1   6  -9   69.17    7.47
   1   6  -8   13.24    3.29
   1   6  -7   86.50    7.91
   1   6  -7   87.10    8.44
   1   6  -6    4.10    1.93
   1   6  -6    0.50    1.75
   1   6  -6    4.18    1.73
   1   6  -5   68.99    6.10
   1   6  -5  151.68   11.20
   1   6  -5  154.98   10.20
   1   6  -4  171.37    7.65
   1   6  -4  189.96   11.03
   1   6  -4  181.44   12.27
   1   6  -3   43.88    5.94
   1   6  -3   45.92    4.03
   1   6  -2  232.04   13.39
   1   6  -2  223.13    8.78
   1   6  -1   39.09    5.50
   1   6  -1   39.15    3.80
   1   6   0    2.09    1.55
  -1  -6   0    0.54    1.04
   1   6   0    0.16    1.06
  -1  -6  -1  248.36   13.12
   1   6   1  249.77   10.24
   1   6   1  271.88   14.15
   1   6   2   14.19    3.28
  -1  -6  -2   14.73    3.28
   1   6   2   19.78    3.24
   1   6   3  130.42    9.35
   1   6   3  138.22    8.35
  -1  -6  -3  129.72    9.32
   1   6   4    2.11    1.44
   1   6   4    1.92    1.57
   1   6   5   24.99    3.95
   1   6   5   21.43    3.66
   1   6   6  173.72    9.93
   1   6   6  172.30   10.31
   1   6   7    2.04    1.74
   1   6   7    9.59    2.36
   1   6   8  429.39   17.54
   1   6   8  391.49   13.98
   1   6   9   35.93    5.46
   1   6   9   43.61    4.31
   1   6  10    2.03    2.25
   1   6  10    2.64    1.24
   1   6  11   49.63    7.17
   1   6  11   38.01    4.85
   1   6  12   -0.11    2.02
   1   6  13  118.62   12.11
   1   6  14   24.06    6.34
   1   6  15    0.58    3.07
   1   6  16    5.85    4.09
   1   6  17    0.31    3.18
   1   6  18   -0.39    4.76
   1   6  19    7.13    6.01
   1   6  20    1.48    6.44
   1   7  -6    1.23    2.43
   1   7  -6   18.26    4.33
   1   7  -5   67.65    8.23
   1   7  -5   15.13    3.76
   1   7  -5   90.16    8.69
   1   7  -4    3.81    1.84
   1   7  -4    2.68    1.51
   1   7  -4    2.08    1.55
   1   7  -3  416.57   19.68
   1   7  -3  425.28   14.66
   1   7  -2  125.94   10.80
   1   7  -2  107.37    7.37
   1   7  -1    4.27    2.33
   1   7  -1    3.38    1.46
   1   7   0    8.48    3.06
   1   7   0   13.02    2.83
   1   7   1    0.74    1.10
   1   7   1    0.04    1.28
   1   7   2  558.28   17.72
   1   7   2  540.67   21.13
   1   7   3   58.73    6.00
   1   7   3   66.75    7.44
   1   7   4    4.14    2.10
   1   7   4    3.47    2.05
   1   7   5    1.19    1.66
   1   7   5    0.24    1.05
   1   7   6   20.69    4.06
   1   7   6   33.98    4.88
   1   7   7  424.36   16.89
   1   7   7  489.10   19.54
   1   7   8  356.42   15.08
   1   7   8  311.35   16.21
   1   7   9   12.97    3.98
   1   7   9    7.79    2.35
   1   7  10   -0.13    1.18
   1   7  10    0.26    2.09
   1   7  11   12.44    2.80
   1   7  11    8.82    3.71
   1   7  12   16.77    4.13
   1   7  12   28.24    6.28
   1   7  13  155.17   14.66
   1   7  14   -0.96    2.70
   1   7  15    2.33    3.60
   1   7  16    0.64    3.15
   1   7  17    8.41    5.26
   1   7  18    5.81    5.69
   1   7  19   -4.07    5.60
   1   8  -5   -0.80    2.23
   1   8  -4    1.28    1.96
   1   8  -3    2.40    1.88
   1   8  -2   21.66    3.90
   1   8  -1   14.59    3.32
   1   8   0    0.21    1.52
   1   8   1   83.75    9.10
   1   8   1  109.45    8.67
   1   8   2   61.92    6.68
   1   8   2   74.03    8.57
   1   8   3    2.26    1.75
   1   8   3    1.63    1.61
   1   8   4    2.18    1.78
   1   8   4    3.31    2.11
   1   8   5    9.62    2.91
   1   8   5    9.63    3.11
   1   8   6   38.98    5.70
   1   8   6   47.44    6.51
   1   8   7   10.79    3.61
   1   8   7   13.23    3.35
   1   8   8   -0.58    1.91
   1   8   8    0.60    1.09
   1   8   9   10.36    3.88
   1   8   9   15.12    3.37
   1   8  10   23.84    5.68
   1   8  10   29.10    4.28
   1   8  11   99.70   11.50
   1   8  11   64.01    6.75
   1   8  12   40.58    7.95
   1   8  12   41.66    5.57
   1   8  13    2.20    3.52
   1   8  14   37.52    8.64
   1   8  15    0.44    3.05
   1   8  16    1.43    3.50
   1   8  17    5.24    5.17
   1   8  18    1.15    4.56
   1   9  -5    1.49    2.83
   1   9  -4   14.57    4.71
   1   9  -3   20.43    4.98
   1   9  -2  166.13   12.99
   1   9  -1    0.70    2.09
   1   9   0    3.47    2.33
   1   9   1   25.71    4.95
   1   9   2    9.88    3.39
   1   9   3  133.21   11.38
   1   9   4   16.05    4.44
   1   9   5   32.06    5.97
   1   9   6   59.76    8.00
   1   9   7   -0.95    2.28
   1   9   8  194.25   15.41
   1   9   9   18.41    5.27
   1   9  10    5.11    3.83
   1   9  11   17.52    3.93
   1   9  11   15.51    5.50
   1   9  12    0.78    3.37
   1   9  13  120.15   15.04
   1   9  14   21.28    7.45
   1   9  15    1.90    3.31
   1   9  16    4.61    4.63
   1  10  -4    1.92    4.28
   1  10  -3   43.00    8.30
   1  10  -2    3.75    3.48
   1  10  -1   21.57    4.71
   1  10   0   20.99    5.14
   1  10   1    3.14    2.61
   1  10   2  191.79   14.55
   1  10   3    6.00    3.28
   1  10   4   21.08    5.12
   1  10   5   15.91    4.87
   1  10   6    4.43    3.78
   1  10   7  101.42   12.17
   1  10   8   18.72    5.84
   1  10   9   17.47    5.82
   1  10  10    3.42    3.73
   1  10  11    3.24    4.01
   1  10  12   25.40    7.98
   1  10  13   24.19    8.14
   1  10  14    2.30    4.04
   1  10  15    1.89    3.93
   1  11  -3   -0.53    3.84
   1  11  -2   34.70    8.30
   1  11  -1   79.51   11.38
   1  11   0    1.93    3.07
   1  11   1   51.57    8.54
   1  11   2   35.72    7.49
   1  11   3   43.04    8.18
   1  11   4  133.39   13.65
   1  11   5   -1.88    3.14
   1  11   6    4.77    3.62
   1  11   7   23.41    6.54
   1  11   8   16.74    5.93
   1  11   9  140.03   16.04
   1  11  10    3.70    3.96
   1  11  11   -0.57    2.91
   1  11  12    6.77    4.34
   1  11  13    6.52    4.91
   1  12  -2   -0.78    4.91
   1  12  -1    0.81    4.58
   1  12   0    7.82    5.08
   1  12   1   -1.03    3.54
   1  12   2   16.14    6.26
   1  12   3   32.02    7.81
   1  12   4    3.23    3.65
   1  12   5   16.41    6.86
   1  12   6    1.55    3.28
   1  12   7    1.72    4.06
   1  12   8   51.74   10.46
   1  12   9    3.84    4.11
   1  12  10   16.15    6.89
   1  12  11   -1.13    3.74
   1  13  -1    1.09    5.91
   1  13   0   -0.25    5.21
   1  13   1    1.43    5.44
   1  13   2    9.56    7.18
   1  13   3    1.85    5.06
   1  13   4    5.94    6.73
   1  13   5    2.96    4.31
   1  13   6    0.67    3.67
   1  13   7    5.49    5.15
   1  13   8    0.10    3.80
   1  14   1   -3.13    6.84
   1  14   2   -2.36    6.78
   1  14   3    6.40    6.04
   1  14   4    2.66    7.19
   1  14   5   -0.97    4.78
   1  14   6   -0.45    5.42
  -2  14   4    6.40   11.37
  -2  14   3   -1.39   12.08
  -2  14   2   -2.88   11.06
  -2  13   7   -2.18    8.67
  -2  13   3    5.74    8.13
  -2  13   0   -0.79    9.17
  -2  13  -1   -5.02    8.69
  -2  13  -2    3.92    7.96
  -2  12   9   -3.29    8.04
  -2  12   8    4.57    7.18
  -2  12   7    0.61    6.07
  -2  12   6    3.51    6.51
  -2  12   5   -2.64    6.83
  -2  12   4    5.59    9.42
  -2  12  -1   -0.40    7.58
  -2  12  -3    0.75    7.39
  -2  11  11    1.76    7.43
  -2  11  10    2.62    7.94
  -2  11   9   -1.95    7.62
  -2  11   8    9.24    8.51
  -2  11   7    9.92   10.19
  -2  11   6   16.97   10.55
  -2  11   5   -3.59    7.41
  -2  11   4    0.40    6.25
  -2  11   3    2.38    5.61
  -2  11   2   15.73   15.88
  -2  11  -1   -1.17    7.31
  -2  11  -2   -0.65    6.37
  -2  11  -4    1.84    5.97
  -2  11  -5    0.00    5.52
  -2  10  13   -3.02    7.76
  -2  10  12    6.33    9.74
  -2  10  11    5.28    7.79
  -2  10  10    5.27    8.42
  -2  10   9    0.51    6.33
  -2  10   8   -3.81    5.71
  -2  10   7   39.42   13.48
  -2  10   6    3.84    6.02
  -2  10   5   12.31    8.43
  -2  10   4   -2.23    5.94
  -2  10   3   -2.75    7.42
  -2  10   2   19.08    7.61
  -2  10   1    0.06    5.44
  -2  10   0   -2.22    5.85
  -2  10  -3    3.45    6.72
  -2  10  -5    3.26    5.78
  -2   9  15    4.50    6.62
  -2   9  14    1.89    6.90
  -2   9  13    5.48    8.92
  -2   9  12    2.43    7.05
  -2   9  11    4.07    7.81
  -2   9  10    2.48    6.18
  -2   9   9    2.61   18.62
  -2   9   8   18.87    9.41
  -2   9   7    5.28    6.40
  -2   9   6  100.99   16.86
  -2   9   5    3.13    5.71
  -2   9   4    1.26    5.22
  -2   9   3   19.61    9.37
  -2   9   2   10.82    6.35
  -2   9   1    8.46    5.99
  -2   9   0   -0.07    5.36
  -2   9  -2   -1.20    6.18
  -2   9  -3    2.15    5.34
  -2   9  -4   -0.05    4.92
  -2   9  -5    2.99    5.70
  -2   9  -6    3.29    4.89
  -2   9  -7   -1.64    4.49
  -2   8  16   -5.08    7.98
  -2   8  15    1.72    6.85
  -2   8  14   -1.35    6.63
  -2   8  13    0.57    7.03
  -2   8  12   -0.11    6.34
  -2   8  11   81.01    8.00
  -2   8  11    9.97    7.26
  -2   8  10   31.91    5.20
  -2   8  10    5.38    6.07
  -2   8   9    2.64    5.30
  -2   8   9   21.94    4.48
  -2   8   8    0.99    1.36
  -2   8   8   -2.32    4.81
  -2   8   7    7.43    2.73
  -2   8   7    2.75    4.98
  -2   8   6   33.57   10.14
  -2   8   6   34.87    5.69
  -2   8   5    4.46    4.88
  -2   8   5    3.79    2.35
  -2   8   4   11.10    6.24
  -2   8   4    6.27    2.87
  -2   8   3    1.36    1.57
  -2   8   3    0.24    4.15
   2  -8  -3    0.38    1.48
  -2   8   2   13.19    3.98
   2  -8  -2   12.59    3.38
  -2   8   2   14.90    7.39
  -2   8   1   50.13   12.27
   2  -8  -1   81.08    7.77
  -2   8   0    3.04    4.55
   2  -8   0    0.54    1.55
   2  -8   1    2.39    1.91
  -2   8  -1   -0.09    5.08
  -2   8  -2   -1.38    5.14
   2  -8   2   28.11    3.92
   2  -8   3    5.47    1.95
  -2   8  -4    0.34    4.27
  -2   8  -5   -2.88    4.50
  -2   8  -6   -0.97    4.39
  -2   8  -6    8.80    2.81
  -2   7  16    1.90    8.40
  -2   7  15    6.77    7.57
  -2   7  14    4.06    6.91
  -2   7  13    3.46    8.41
  -2   7  12    5.17    6.90
  -2   7  12   46.43    5.39
  -2   7  11   -2.89    6.07
  -2   7  11    6.90    2.29
  -2   7  10   39.95    5.31
  -2   7  10    1.28    4.67
  -2   7   9    0.75    1.21
  -2   7   9    0.91    4.29
  -2   7   8   15.13    7.20
  -2   7   8   70.98    7.25
  -2   7   7  292.34   24.75
  -2   7   7  319.31   15.05
  -2   7   6    5.27    5.21
  -2   7   6    8.96    2.89
   2  -7  -6   10.92    3.30
  -2   7   5  128.09   15.41
  -2   7   5   98.09    8.78
   2  -7  -5  109.50    8.85
   2  -7  -4   13.35    3.19
  -2   7   4    8.01    2.84
  -2   7   4   17.92    7.31
  -2   7   3    2.03    1.71
   2  -7  -3    3.06    1.71
  -2   7   3    2.02    5.09
   2  -7  -2  219.99   11.66
  -2   7   2  192.41   13.15
  -2   7   1   34.49   10.08
   2  -7  -1   20.89    3.58
  -2   7   1   19.42    4.50
   2  -7   0   57.07    5.56
  -2   7   0   53.58    7.46
   2  -7   1   -0.35    1.09
  -2   7  -1    3.51    5.31
  -2   7  -1    0.43    1.15
  -2   7  -2   10.36    3.31
   2  -7   2    9.28    2.46
  -2   7  -2    2.80    5.40
   2  -7   3  340.20   11.92
  -2   7  -3  340.98   17.39
   2  -7   4   49.70    4.69
  -2   7  -4   46.27    6.51
  -2   7  -4    0.24    3.78
   2  -7   5  121.50    6.54
  -2   7  -5  147.12   12.24
  -2   7  -6  180.18   10.87
  -2   7  -6    1.65    4.26
  -2   7  -7    0.36    0.89
  -2   7  -8    7.53    2.38
  -2   7  -9   91.15    7.97
  -2   7 -10   36.54    5.00
  -2   6  19   -3.20   10.11
  -2   6  17   -0.95    9.05
  -2   6  16   29.47   13.65
  -2   6  15    1.19    7.09
  -2   6  14    0.49    5.56
  -2   6  13    1.90    5.96
  -2   6  12    1.55    6.57
  -2   6  12    0.63    1.22
  -2   6  11   90.46    6.89
  -2   6  11    0.19    5.53
  -2   6  10   -2.83    5.50
  -2   6  10   15.58    2.95
  -2   6   9    2.88    1.64
  -2   6   9   -0.88    4.02
  -2   6   8   29.31    7.96
   2  -6  -8   94.58    8.71
  -2   6   8   66.81    6.43
  -2   6   7    0.23    3.93
   2  -6  -7    6.43    2.33
  -2   6   7    2.06    1.48
  -2   6   6  216.15   19.25
   2  -6  -6  257.99   13.24
  -2   6   6  217.12   12.00
   2  -6  -5  105.40    8.17
  -2   6   5  127.42   14.99
  -2   6   4   32.34    7.24
   2  -6  -4   25.38    4.10
  -2   6   3   26.11    8.85
   2  -6  -3   22.08    3.75
   2  -6  -2   14.57    3.08
  -2   6   2   31.49    9.48
  -2   6   1  379.63   25.57
   2  -6  -1  285.34   12.34
   2  -6   0   21.48    3.59
  -2   6   0    8.41    6.97
  -2   6  -1   -1.11    4.04
   2  -6   1    0.64    1.28
  -2   6  -2    1.25    4.30
   2  -6   2   45.91    4.54
   2  -6   3  113.66    6.68
  -2   6  -4    0.92    4.04
   2  -6   4   65.93    4.63
   2  -6   5  325.56    9.60
  -2   6  -5  307.65   16.32
   2  -6   6    5.67    1.21
  -2   6  -6   -0.86    3.43
  -2   6  -6    9.04    2.87
  -2   6  -6   16.58    3.16
  -2   6  -7    0.04    1.02
  -2   6  -7    0.65    0.89
  -2   6  -8   12.79    2.73
  -2   6  -8    9.30    3.07
  -2   6  -9   61.89    5.71
  -2   6  -9   55.94    7.17
  -2   6 -10   64.78    6.67
  -2   6 -10   66.68    8.02
  -2   6 -11    0.57    1.29
  -2   6 -11    1.05    1.18
  -2   6 -12    1.03    1.52
  -2   5  18    2.05   10.12
  -2   5  17   22.43   11.61
  -2   5  16   23.21   12.02
  -2   5  13    0.49    0.44
  -2   5  12   -1.85    6.29
  -2   5  12  121.08    5.95
  -2   5  11   38.65    3.95
  -2   5  11    7.46    6.77
  -2   5  10    1.29    4.64
  -2   5  10   54.67    4.84
   2  -5  -9   95.06    8.52
  -2   5   9   56.55    5.12
  -2   5   8    0.44    0.74
  -2   5   8    0.44    3.62
   2  -5  -8    0.20    1.39
   2  -5  -7  227.28   11.67
  -2   5   7  109.55   13.67
  -2   5   6  167.98   16.39
   2  -5  -6  233.24   12.03
  -2   5   5    0.57    3.55
   2  -5  -5    4.00    1.91
   2  -5  -4  161.28    9.81
  -2   5   4  199.07   17.46
  -2   5   3   23.34    8.09
   2  -5  -3   23.88    3.93
  -2   5   2  515.56   30.28
   2  -5  -2  319.63   13.34
  -2   5   1 1452.32   44.03
   2  -5  -1  929.24   22.18
   2  -5   0    5.84    2.26
  -2   5  -1   -4.37    5.68
   2  -5   1  991.48   22.27
  -2   5  -2    1.84    3.83
   2  -5   2    2.97    1.69
   2  -5   3   92.51    6.17
  -2   5  -3    0.65    3.56
  -2   5  -4    1.35    3.39
   2  -5   4  496.52   13.86
   2  -5   5   13.33    2.23
   2  -5   6  326.70    8.99
  -2   5  -6  355.98   12.64
  -2   5  -7   75.17    5.84
  -2   5  -7   61.01    7.09
   2  -5   7   65.08    3.25
  -2   5  -8    1.00    0.91
  -2   5  -8    1.48    1.39
  -2   5  -9  210.74   10.65
  -2   5  -9  190.45   12.14
  -2   5 -10   40.06    5.20
  -2   5 -10   21.55    4.27
  -2   5 -11   29.59    4.98
  -2   5 -12   56.99    6.89
  -2   5 -13    0.09    1.28
  -2   4  18    6.57    9.69
  -2   4  17   14.51   11.07
  -2   4  16   11.86    9.60
  -2   4  15    7.41   11.49
  -2   4  13    4.25    5.98
  -2   4  12   13.09    1.01
  -2   4  11   20.87    2.25
  -2   4  11   -2.42    5.30
   2  -4 -11   15.94    3.59
  -2   4  10  232.82    8.75
   2  -4 -10  294.09   15.04
  -2   4   9    7.03    5.05
   2  -4  -9   17.17    3.46
  -2   4   9    7.36    1.71
  -2   4   8    0.90    3.74
   2  -4  -8   18.87    3.56
   2  -4  -7  186.42   10.33
  -2   4   7   70.41   10.44
   2  -4  -6    2.41    1.73
  -2   4   6    0.60    3.47
  -2   4   5  257.01   18.74
   2  -4  -5  349.12   14.33
  -2   4   4    6.08    4.68
   2  -4  -4    6.12    2.27
   2  -4  -3   24.73    3.93
  -2   4   3   21.90    8.04
  -2   4   2   36.57   10.15
   2  -4  -2   59.11    5.69
   2  -4  -1    1.04    1.64
   2  -4   0   66.73    5.67
   2  -4   1   38.33    5.20
  -2   4  -2   -0.04    3.75
   2  -4   2    1.85    2.02
  -2   4  -3   -1.94    3.26
   2  -4   3  400.13   15.18
   2  -4   4    9.35    2.92
   2  -4   5   93.25    6.88
  -2   4  -5  196.54    7.91
  -2   4  -6  362.55   11.35
   2  -4   6  143.40    8.69
  -2   4  -7   15.10    2.42
   2  -4   7   -1.84    1.34
   2  -4   8    1.01    1.01
  -2   4  -8   21.22    3.14
  -2   4  -9   49.00    4.72
  -2   4  -9   33.24    4.63
  -2   4 -10   54.74    6.12
  -2   4 -11   69.02    6.92
  -2   4 -12    5.35    2.07
  -2   4 -13    2.81    1.76
  -2   3  19   -0.25    1.41
  -2   3  18   -0.90    8.03
  -2   3  17    8.01    8.85
  -2   3  16   15.18   12.27
  -2   3  15    0.91    6.99
  -2   3  14   -0.84    7.00
  -2   3  13    0.25    5.86
  -2   3  11    2.34    4.28
   2  -3 -11  143.19    9.48
  -2   3  10   64.01    3.49
   2  -3 -10   95.60    7.87
  -2   3   9   -1.27    4.22
   2  -3  -9  199.17   10.45
  -2   3   8   -8.37    6.38
   2  -3  -8   90.25    6.98
   2  -3  -7   59.61    5.72
  -2   3   7  -10.64    8.35
  -2   3   6   -6.20    5.71
   2  -3  -6   18.75    3.39
  -2   3   5   -5.64    5.34
   2  -3  -5   25.20    3.83
   2  -3  -4   68.46    6.13
   2  -3  -3  225.93   10.63
   2  -3  -2   22.58    4.33
  -2   3   2   -0.11    4.19
   2  -3  -1    2.53    2.34
   2  -3   0  524.21   19.21
   2  -3   1   44.76    7.11
  -2   3  -1   -0.36    3.85
  -2   3  -2    0.83    3.17
   2  -3   3    0.03    2.88
  -2   3  -5  234.77    8.34
   2  -3   6    1.03    2.59
  -2   3  -6   30.44    2.89
  -2   3  -7   37.97    3.77
   2  -3   8    0.63    2.11
   2  -3   9   -0.71    1.97
   2  -3  10  121.70    3.66
  -2   3 -10  247.97   11.23
   2  -3  11    0.48    0.73
  -2   3 -11    2.46    1.36
  -2   3 -12    7.56    2.18
  -2   3 -13    9.14    2.35
  -2   3 -14   14.06    2.81
  -2   2  19    1.06    1.83
  -2   2  18   -1.08    1.83
  -2   2  17   -0.53    7.05
  -2   2  17    0.34    1.59
  -2   2  16    2.27    7.01
  -2   2  15    1.63    6.97
  -2   2  13   -2.87    7.01
  -2   2  11    1.33    4.81
   2  -2 -11   34.18    4.48
   2  -2 -10   72.59    6.18
   2  -2  -9  111.19    7.35
   2  -2  -8    0.46    1.30
   2  -2  -7  116.18    7.67
   2  -2  -6  461.47   15.25
   2  -2  -5  214.71   10.45
  -2   2   4    6.16    4.94
   2  -2  -4  537.38   17.12
  -2   2   3    1.60    4.04
   2  -2  -3  198.02   11.13
   2  -2  -2  711.42   23.11
   2  -2  -1   65.29    8.29
  -2   2   1   -1.44    4.89
   2  -2   0  770.32   26.83
  -2   2   0  867.73   27.88
   2  -2   1    0.09    3.17
  -2   2  -1   -0.27    3.34
   2  -2   2    0.07    2.86
  -2   2  -2   -0.75    3.09
   2  -2   3    0.77    2.82
  -2   2  -4  530.47    8.86
   2  -2   4    1.29    2.90
   2  -2   5    0.40    2.67
  -2   2  -5    1.68    0.57
   2  -2   8    8.81    1.74
   2  -2   9  150.88    7.32
   2  -2  10    0.33    0.62
   2  -2  11   74.65    6.25
   2  -2  11   75.35    4.11
  -2   2 -11   67.41    5.29
   2  -2  12   71.62    6.39
   2  -2  12   28.28    2.52
  -2   2 -12   72.01    5.59
   2  -2  13    0.64    1.20
   2  -2  13    3.72    1.68
  -2   2 -13    3.17    1.37
   2  -2  14   44.19    5.40
   2  -2  14    0.48    1.81
  -2   2 -14   42.61    4.28
   2  -2  15   23.69    3.95
   2  -2  15    0.80    2.68
   2  -2  16   50.49    5.98
   2  -2  17   18.39    3.76
  -2   1  20    2.86    2.43
  -2   1  19    0.31    1.17
  -2   1  18    1.29    1.73
  -2   1  17    2.03    2.07
  -2   1  16    2.36    5.81
  -2   1  16   21.08    5.85
  -2   1  15    3.50    3.09
  -2   1  15    2.07    5.38
  -2   1  14    0.47    0.98
  -2   1  12    4.27    5.59
  -2   1  11    2.96    5.41
   2  -1 -11   62.58    5.61
   2  -1 -10  138.76    7.98
  -2   1   9    3.60    0.73
   2  -1  -9    9.25    2.35
  -2   1   9    0.22    4.61
   2  -1  -8  130.13    7.61
  -2   1   8   97.09    3.60
  -2   1   7    3.25    4.55
   2  -1  -7   16.24    3.02
  -2   1   6    1.63    4.48
   2  -1  -6   24.46    3.73
   2  -1  -5  461.79   15.96
  -2   1   4    1.06    4.92
   2  -1  -4   26.02    4.23
   2  -1  -3   -1.06    2.61
  -2   1   3    1.87    4.11
   2  -1  -2   -0.63    3.08
  -2   1   2    2.13    3.76
   2  -1  -1   -0.62    3.15
  -2   1   1    0.04    3.42
  -2   1   0 3973.57   59.08
   2  -1   0 4081.06   57.05
   2  -1   2    0.98    2.80
   2  -1   5  820.50   10.59
   2  -1   6  457.76    8.42
   2  -1   7  321.60    8.33
   2  -1   8    1.39    0.74
   2  -1   9    3.01    0.95
   2  -1  10   51.94    4.10
   2  -1  11  105.46    5.83
   2  -1  11   94.63    6.08
   2  -1  12    0.53    1.05
   2  -1  12    0.44    0.70
  -2   1 -12    0.06    0.59
   2  -1  13    1.21    1.32
  -2   1 -13    1.02    0.76
   2  -1  13    1.79    1.12
  -2   1 -14    1.70    0.69
   2  -1  14    1.36    1.56
   2  -1  14    4.44    1.73
   2  -1  15    6.52    2.76
   2  -1  15   64.04    6.23
   2  -1  16  140.72    9.68
   2  -1  16    0.74    2.74
   2  -1  17    1.75    1.40
   2  -1  18    9.35    2.84
  -2   0  19    9.21    3.67
  -2   0  18    2.40    1.93
  -2   0  17    6.24    2.96
  -2   0  16   22.21    5.08
  -2   0  15    4.51    2.46
  -2   0  15    2.43    5.36
  -2   0  14   -0.45    4.82
  -2   0  14    9.18    3.26
  -2   0  13   14.67    3.88
  -2   0  13    5.47    5.82
  -2   0  12    1.48    4.49
  -2   0  12   18.86    4.81
  -2   0  11   95.98   11.07
  -2   0  10   -2.57    4.18
  -2   0  10    0.64    1.23
   2   0  -9  325.18   10.86
  -2   0   9  306.95    7.49
  -2   0   8  119.24    4.98
   2   0  -8  154.05    7.93
   2   0  -7    1.60    1.38
  -2   0   7    1.05    3.49
  -2   0   7    3.84    0.91
   2   0  -6  325.54   11.75
  -2   0   6  473.62    9.15
  -2   0   5    0.76    3.34
   2   0  -5   81.87    6.90
  -2   0   4    2.54    3.78
   2   0  -4   -1.24    3.23
  -2   0   3    1.43    3.64
   2   0  -2   -0.98    2.91
  -2   0   2    0.55    3.30
   2   0  -1   -2.19    3.25
  -2   0   0  856.30   11.99
   2   0   1  353.49    5.24
  -2   0  -1  305.70    4.91
   2   0  11   28.84    3.71
   2   0  12  371.40   11.91
  -2   0 -12  262.62    6.10
   2   0  13    4.47    1.89
   2   0  13    4.00    1.76
   2   0  14    1.43    1.28
   2   0  14    5.89    2.58
   2   0  15    0.84    1.14
   2   0  15    2.11    2.00
   2   0  16    1.25    2.10
   2   0  16    4.97    2.08
   2   0  17   24.17    4.21
   2   0  17    0.54    2.99
   2   0  18    2.82    1.93
  -2  -1  19    6.78    3.07
  -2  -1  18    2.58    2.16
  -2  -1  17    2.86    2.07
  -2  -1  16    2.09    1.99
  -2  -1  15  181.04   12.91
  -2  -1  14    3.99    5.24
  -2  -1  14   55.24    6.78
  -2  -1  13   21.86    4.11
  -2  -1  12   -0.63    3.96
  -2  -1  12   10.97    3.00
  -2  -1  11   -0.14    4.08
  -2  -1  11    0.29    0.89
   2   1 -10   52.64    4.32
  -2  -1  10   86.63    7.33
   2   1  -9  168.49    6.88
  -2  -1   9  164.09    6.84
  -2  -1   9   97.24    7.77
  -2  -1   8    1.34    3.54
  -2  -1   8   35.16    3.07
   2   1  -8   27.53    3.18
   2   1  -7    9.19    2.29
  -2  -1   7   -0.78    3.45
   2   1  -6    1.47    1.69
  -2  -1   6   14.65    2.07
  -2  -1   6    0.33    3.22
  -2  -1   6    9.63    2.16
  -2  -1   5  293.21    8.66
  -2  -1   5  375.24   12.06
  -2  -1   4  298.87    7.99
  -2  -1   4  285.78    9.68
  -2  -1   3   32.46    2.83
  -2  -1   3   21.86    2.48
   2   1  -2  947.91   16.34
  -2  -1   2  878.46   15.19
  -2  -1   1   92.67    4.33
   2   1  -1  108.70    4.47
   2   1   0  523.08    9.29
  -2  -1   0  523.64    9.85
   2   1   1  673.28   10.32
   2   1  11  381.40   14.15
  -2  -1 -11  264.28    5.70
   2   1  12  156.86    8.75
   2   1  13    7.01    2.42
   2   1  14   25.67    4.55
   2   1  15    1.51    2.08
   2   1  16    4.90    3.23
   2   1  16   62.85    7.77
   2   1  17    2.18    2.41
   2   1  17    9.22    3.32
   2   1  18   -0.08    0.98
   2   1  19    1.17    1.42
  -2  -2  19    5.72    3.15
  -2  -2  18    4.65    2.82
  -2  -2  17    1.58    1.89
  -2  -2  16   55.29    7.95
  -2  -2  15   40.82    6.39
  -2  -2  14   20.78    4.35
  -2  -2  13   48.45    6.42
  -2  -2  12    0.72    1.10
  -2  -2  11    9.17    2.74
  -2  -2  10   92.49    7.79
  -2  -2   9    0.40    0.76
  -2  -2   9    7.93    2.22
   2   2  -9    0.36    0.83
   2   2  -8  223.49    6.81
  -2  -2   8  335.54   13.53
  -2  -2   8  344.23   11.09
   2   2  -7   -0.60    1.40
  -2  -2   7   13.03    2.57
  -2  -2   7   20.25    2.77
   2   2  -6    1.13    2.18
  -2  -2   6    0.65    0.91
  -2  -2   6    0.11    0.62
   2   2  -5  171.75   10.23
  -2  -2   5  274.65   10.51
  -2  -2   5  268.29    9.70
  -2  -2   4   10.21    2.11
   2   2  -4    0.26    0.66
   2   2  -4   13.99    2.99
  -2  -2   4    6.60    1.79
   2   2  -4    0.21    3.24
  -2  -2   3  317.79   10.09
  -2  -2   3  330.86   11.00
   2   2  -3  342.38   10.94
   2   2  -3  343.92   10.23
  -2  -2   2  645.26   14.35
   2   2  -2  721.61   15.11
   2   2  -2  648.89   13.60
  -2  -2   2  683.81   14.28
   2   2  -1  166.11    7.72
   2   2  -1  129.46    6.17
  -2  -2   1  132.91    6.26
  -2  -2   0  569.37   11.97
   2   2   0  568.34   11.30
  -2  -2  -1   14.31    2.03
  -2  -2  -2   88.51    4.85
  -2  -2  -3    0.87    0.73
  -2  -2  -4   15.88    2.06
  -2  -2  -5  689.46   13.06
  -2  -2  -6  191.24    6.44
  -2  -2  -7  336.85    8.79
  -2  -2  -8  291.28    7.39
  -2  -2  -9    2.75    0.81
   2   2  10   25.27    3.66
  -2  -2 -10   19.25    1.94
  -2  -2 -11   90.39    3.62
   2   2  11  110.62    7.95
   2   2  12   92.34    7.24
   2   2  13    2.57    1.89
   2   2  14   12.19    3.32
   2   2  15    6.94    2.90
   2   2  16   89.75    9.42
   2   2  17    3.54    2.87
   2   2  18    6.39    3.86
   2   2  19    0.34    1.47
  -2  -3  19   11.91    4.44
  -2  -3  18    1.15    1.77
  -2  -3  17    1.78    1.99
  -2  -3  16    3.65    2.14
  -2  -3  15    3.26    2.17
  -2  -3  14  182.02   14.40
  -2  -3  13   10.17    3.29
  -2  -3  12    4.44    2.34
  -2  -3  11    4.32    1.95
  -2  -3  10    1.88    1.38
  -2  -3   9  331.77   15.37
   2   3  -8  128.30    3.04
  -2  -3   8  171.99   10.92
  -2  -3   8  203.71   10.05
   2   3  -8  224.12   11.14
  -2  -3   7    5.20    1.69
   2   3  -7   -0.09    0.96
  -2  -3   7    8.74    2.48
   2   3  -7    8.37    1.99
  -2  -3   6    0.39    0.71
   2   3  -6    0.02    2.29
   2   3  -6    1.44    1.14
  -2  -3   6    1.54    1.09
   2   3  -6    0.01    0.68
   2   3  -5    1.38    2.86
   2   3  -5    4.50    1.81
  -2  -3   5    3.05    1.45
  -2  -3   5    2.87    1.45
   2   3  -5    3.85    1.31
   2   3  -4   61.44    4.96
   2   3  -4   72.45    5.45
  -2  -3   4   56.42    5.18
  -2  -3   4   56.47    5.07
  -2  -3   3  124.85    7.35
   2   3  -3  129.88    7.18
   2   3  -3  129.28    6.98
   2   3  -2   22.33    2.93
   2   3  -2   26.68    3.23
  -2  -3   2   20.39    3.15
   2   3  -1  108.69    6.38
  -2  -3   1  116.57    7.31
   2   3  -1  115.99    6.60
  -2  -3   0   10.22    2.13
   2   3   0   15.42    2.42
  -2  -3  -1   41.62    3.96
   2   3   1   41.48    3.77
  -2  -3  -2   20.87    2.86
   2   3   2   19.73    2.64
   2   3   3    2.36    1.08
  -2  -3  -3    2.22    1.15
  -2  -3  -4   34.36    3.49
   2   3   4   45.13    4.74
  -2  -3  -5  139.01    6.80
  -2  -3  -6   12.72    2.04
  -2  -3  -7  686.58   14.48
  -2  -3  -8    1.20    0.86
  -2  -3  -9   51.97    3.89
   2   3  10   13.45    2.98
  -2  -3 -10   14.51    2.07
   2   3  11   14.26    3.18
  -2  -3 -11    9.72    1.50
   2   3  12  211.25   11.49
   2   3  13   23.34    4.11
   2   3  14   52.76    6.62
   2   3  15    9.76    3.50
   2   3  16    3.00    2.87
   2   3  17   65.43    8.94
   2   3  18    1.71    2.83
   2   3  19    3.33    4.37
  -2  -4  17   -0.91    1.49
  -2  -4  16   -1.28    1.96
  -2  -4  15   36.30    6.38
  -2  -4  14   16.09    4.28
  -2  -4  13    9.34    3.42
  -2  -4  12    0.21    1.09
  -2  -4  11    0.24    1.27
  -2  -4  10   40.55    5.88
   2   4 -10   64.69    7.31
   2   4  -9  161.28    9.63
  -2  -4   9  142.74   10.28
  -2  -4   8   48.18    5.79
   2   4  -8   55.93    5.58
   2   4  -8   67.76    7.73
   2   4  -7   32.00    4.13
   2   4  -7   15.00    3.59
  -2  -4   7   33.94    4.58
  -2  -4   7   33.06    4.80
  -2  -4   6    3.58    1.65
   2   4  -6    0.89    2.23
   2   4  -6    2.29    1.31
   2   4  -6    3.30    1.41
   2   4  -5   55.73    5.00
   2   4  -5   78.92    6.29
  -2  -4   5   58.49    6.02
   2   4  -4  389.63   13.78
   2   4  -4  418.59   14.12
  -2  -4   4  432.14   15.72
   2   4  -3   39.57    4.49
   2   4  -3   31.43    3.89
  -2  -4   3   30.97    4.30
  -2  -4   2  305.04   12.92
   2   4  -2  286.47   11.62
   2   4  -2  293.48   11.52
  -2  -4   1    2.70    1.49
   2   4  -1    4.25    1.51
  -2  -4   0   27.89    3.88
   2   4   0   28.21    3.60
   2   4   1  245.20   10.45
  -2  -4  -1  245.88   11.04
  -2  -4  -2    0.10    0.87
   2   4   2    0.23    0.64
   2   4   3   81.77    5.53
  -2  -4  -3   92.89    6.52
   2   4   4   53.06    4.63
  -2  -4  -4   50.89    4.80
   2   4   5  128.98    7.21
  -2  -4  -5  134.19    7.63
   2   4   6  166.48    8.11
  -2  -4  -6  187.41    9.12
  -2  -4  -7   43.80    4.29
  -2  -4  -8  226.00    9.69
   2   4   9   11.26    2.95
  -2  -4  -9    9.30    2.00
  -2  -4 -10    3.87    1.39
   2   4  10    7.83    2.67
   2   4  11  111.09    8.51
  -2  -4 -11   93.56    5.58
   2   4  12   38.28    5.22
   2   4  13   48.23    6.24
   2   4  14   11.63    3.68
   2   4  15    2.30    2.45
   2   4  16  104.32   11.01
   2   4  17   17.57    5.51
   2   4  18    4.48    3.50
   2   4  19    2.65    4.57
   2   5 -11    0.04    1.16
   2   5 -10   44.06    5.55
   2   5  -9   11.88    2.83
   2   5  -8  227.14   13.49
   2   5  -8  240.47   12.81
   2   5  -7   18.34    3.52
   2   5  -7   22.15    3.55
   2   5  -6   13.72    2.98
   2   5  -6    0.01    2.50
  -2  -5   6    4.12    1.86
   2   5  -6    1.79    0.74
   2   5  -6    6.34    2.02
   2   5  -5  197.00   10.67
  -2  -5   5  182.09   11.57
   2   5  -5  188.71   10.74
  -2  -5   4    0.13    0.93
   2   5  -4    0.55    0.77
   2   5  -4    1.65    1.10
   2   5  -3  562.93   17.88
   2   5  -3  554.23   18.21
  -2  -5   3  572.95   19.55
   2   5  -2  195.21   10.08
   2   5  -2  197.79   10.93
  -2  -5   2  214.69   12.11
   2   5  -1   43.64    5.08
  -2  -5   1   45.12    5.44
   2   5   0   67.31    6.25
  -2  -5   0   58.83    5.86
   2   5   1   97.88    7.28
  -2  -5  -1  103.05    8.16
   2   5   2 1015.36   23.16
  -2  -5  -2 1051.33   24.96
   2   5   3  319.72   12.75
  -2  -5  -3  323.03   13.76
  -2  -5  -4    1.26    1.24
   2   5   4    0.35    0.73
  -2  -5  -5    2.75    1.55
   2   5   5    2.51    1.19
   2   5   6   82.64    6.16
  -2  -5  -6   69.49    5.96
   2   5   7  542.37   17.81
   2   5   7  503.99   15.59
  -2  -5  -7  526.18   16.66
   2   5   8  718.09   20.15
   2   5   8  592.62   19.10
  -2  -5  -8  618.27   17.98
  -2  -5  -9    0.42    0.79
   2   5   9    0.12    1.79
   2   5  10    0.08    1.52
  -2  -5 -10    0.54    1.00
   2   5  11   44.49    5.78
   2   5  12  103.92    9.22
   2   5  13  148.16   11.35
   2   5  14    0.28    2.19
   2   5  15    7.04    3.58
   2   5  16   13.49    4.89
   2   5  17    9.57    4.66
   2   5  18    2.18    3.17
   2   5  19    2.51    3.81
   2   5  20    0.38    4.75
   2   6 -11   12.60    3.41
   2   6 -10    1.37    1.33
   2   6  -9  200.82   12.74
   2   6  -8   10.56    2.77
   2   6  -7   43.72    5.67
   2   6  -6    6.42    1.25
   2   6  -6   22.30    4.02
   2   6  -6   13.80    3.31
  -2  -6   5   -0.13    1.12
   2   6  -5   -0.05    0.78
   2   6  -5    0.19    0.86
   2   6  -5    0.20    0.61
   2   6  -4  133.53    9.90
   2   6  -4  100.20    5.55
   2   6  -4  111.26    9.12
  -2  -6   4  100.62    8.94
   2   6  -3  258.41   13.62
   2   6  -3  280.69   13.62
   2   6  -3  234.08    8.69
  -2  -6   3  265.84   14.81
   2   6  -2  103.68    8.47
  -2  -6   2   92.61    8.27
   2   6  -2   90.66    7.86
   2   6  -1  105.16    8.40
  -2  -6   1   97.48    8.05
   2   6   0   28.09    4.40
  -2  -6   0   28.42    4.67
   2   6   1  214.22   11.78
  -2  -6  -1  220.68   12.73
   2   6   2  301.75   14.09
  -2  -6  -2  288.81   14.53
   2   6   3    1.80    1.35
  -2  -6  -3    0.51    0.97
   2   6   4   13.31    2.96
  -2  -6  -4   13.87    3.20
   2   6   5    3.33    1.83
  -2  -6  -5    4.03    1.90
   2   6   5    4.99    1.84
   2   6   6   77.52    6.86
  -2  -6  -6   69.89    6.60
   2   6   6   56.14    5.25
  -2  -6  -7  394.98   15.46
   2   6   7  433.17   15.81
   2   6   7  464.23   18.30
   2   6   8    3.10    1.45
  -2  -6  -8    0.75    1.08
   2   6   8   -0.48    1.80
   2   6   9  184.70    9.93
   2   6   9  187.49   11.61
  -2  -6  -9  181.20   10.25
   2   6  10    1.21    1.77
   2   6  11    3.47    2.36
   2   6  12   25.79    4.90
   2   6  13   13.91    4.15
   2   6  14   70.69    9.30
   2   6  15    2.42    3.06
   2   6  16   -1.75    3.34
   2   6  17   28.38    7.34
   2   6  18    4.37    4.50
   2   6  19    6.48    4.55
   2   6  20   -0.57    4.98
   2   7  -6    0.60    1.12
   2   7  -5   38.03    5.66
   2   7  -5   28.87    3.25
   2   7  -4   66.31    4.68
   2   7  -4   80.45    8.40
   2   7  -3   27.88    4.75
  -2  -7   3   22.15    4.86
   2   7  -3   25.26    3.13
   2   7  -3   33.07    5.38
   2   7  -2  450.22   18.98
   2   7  -2  398.48   12.65
  -2  -7   2  416.84   18.99
  -2  -7   1    8.07    2.88
   2   7  -1   11.41    3.17
   2   7  -1    7.33    2.05
  -2  -7   0    3.00    1.92
   2   7   0    1.54    1.34
   2   7   0    2.60    1.62
   2   7   1   17.80    3.38
   2   7   1   17.72    3.82
  -2  -7  -1   18.34    4.16
  -2  -7  -2    6.93    2.77
   2   7   2    4.62    2.06
   2   7   2    8.50    2.76
   2   7   3  129.58    9.85
   2   7   3  138.98    9.63
  -2  -7  -3  129.07   10.43
   2   7   4    1.67    1.85
  -2  -7  -4    1.18    1.50
   2   7   4    0.79    1.09
   2   7   5   19.46    3.87
  -2  -7  -5   14.45    3.60
   2   7   5   18.65    3.64
   2   7   6  158.77   10.59
   2   7   6  169.66   10.91
  -2  -7  -6  157.75   11.08
  -2  -7  -7    3.43    1.92
   2   7   7    1.74    1.94
   2   7   7    8.10    2.19
   2   7   8  581.69   19.86
   2   7   8  630.68   22.18
  -2  -7  -8  547.08   20.43
   2   7   9  135.43   10.38
   2   7   9  179.53   10.94
   2   7  10    2.17    2.30
   2   7  10    0.32    1.03
   2   7  11    1.17    1.82
   2   7  12    0.94    2.31
   2   7  13  108.99   11.03
   2   7  14   54.92    8.91
   2   7  15    1.59    2.55
   2   7  16    9.64    5.14
   2   7  17    4.01    3.68
   2   7  18   13.22    5.63
   2   7  19    5.35    4.57
   2   8  -6    8.33    2.07
   2   8  -5   10.31    2.64
   2   8  -4    2.14    1.55
   2   8  -3   24.62    3.56
   2   8  -2    5.06    1.85
   2   8  -1    3.75    1.81
  -2  -8   0    9.31    3.47
   2   8   0   10.09    2.74
  -2  -8  -1    0.43    1.28
   2   8   1    0.80    1.65
   2   8   2   94.23    7.85
  -2  -8  -2   89.92    9.49
   2   8   3   22.14    4.50
   2   8   3   19.98    3.86
  -2  -8  -3   20.98    4.67
  -2  -8  -4    0.20    1.26
   2   8   4    0.18    1.73
   2   8   4   -0.15    1.06
   2   8   5   42.38    5.87
   2   8   5   35.42    5.18
  -2  -8  -5   32.15    5.56
   2   8   6   18.56    3.84
   2   8   6    9.11    3.08
   2   8   7   33.92    5.28
   2   8   7   35.12    5.09
   2   8   8   75.81    7.30
   2   8   8   75.14    8.12
   2   8   9   -0.31    2.22
   2   8   9    1.58    1.48
   2   8  10   45.05    6.02
   2   8  10   45.50    7.09
   2   8  11    6.39    2.58
   2   8  11   -0.47    2.37
   2   8  12   13.44    4.56
   2   8  13  126.87   13.19
   2   8  14    0.35    2.53
   2   8  15   -0.54    3.06
   2   8  16    0.58    3.78
   2   8  17    8.98    5.44
   2   8  18    6.59    5.32
   2   9  -6    0.45    2.67
   2   9  -5    1.18    1.90
   2   9  -4   42.95    5.88
   2   9  -3   19.96    3.70
   2   9  -2   60.53    6.97
   2   9  -1   91.70    8.00
   2   9   0    0.74    3.19
   2   9   1   19.45    3.83
   2   9   2  102.16    8.82
   2   9   3   20.67    4.28
   2   9   4   30.15    5.31
   2   9   5   -0.14    1.74
   2   9   6   75.30    8.34
   2   9   7   60.00    7.57
   2   9   8   18.21    4.76
   2   9   9  163.02   13.79
   2   9  10    2.48    2.82
   2   9  11    2.57    2.84
   2   9  12   31.49    6.97
   2   9  13   -1.58    2.82
   2   9  14   72.38   11.70
   2   9  15    4.39    4.09
   2   9  16    1.01    3.28
   2  10  -5    0.40    3.20
   2  10  -4    7.11    3.35
   2  10  -3    3.85    2.66
   2  10  -2  150.48   11.98
   2  10  -1    6.58    2.93
   2  10   0   47.62    6.64
   2  10   1    7.47    2.98
   2  10   2   17.27    4.46
   2  10   3   32.93    5.69
   2  10   4   15.52    4.12
   2  10   5   15.90    4.03
   2  10   6    6.68    3.01
   2  10   7   -1.03    2.66
   2  10   8  114.98   12.07
   2  10   9   48.92    8.47
   2  10  10    4.83    3.53
   2  10  11    1.24    3.09
   2  10  12   -0.90    2.60
   2  10  13   34.83    8.53
   2  10  14   15.55    6.85
   2  10  15   -0.11    3.76
   2  11  -3   44.45    7.58
   2  11  -2    3.98    2.82
   2  11  -1   82.56   10.30
   2  11   0   12.31    4.16
   2  11   1    4.69    3.10
   2  11   2   93.19   10.83
   2  11   3   25.47    5.87
   2  11   4   55.74    8.35
   2  11   5   72.76    9.75
   2  11   6    0.53    2.49
   2  11   7   58.87    9.00
   2  11   8   41.14    7.91
   2  11   9   61.73   10.12
   2  11  10   87.08   12.09
   2  11  11    0.07    2.86
   2  11  12    0.66    3.11
   2  11  13   14.68    6.25
   2  12  -2   20.85    6.52
   2  12  -1   34.04    7.77
   2  12   0    0.97    2.90
   2  12   1    0.25    3.00
   2  12   2    6.61    4.28
   2  12   3   13.05    5.09
   2  12   4   52.95    9.28
   2  12   5    0.92    3.44
   2  12   6   -0.06    3.40
   2  12   7   11.92    4.72
   2  12   8   15.70    5.68
   2  12   9  105.43   13.88
   2  12  10    3.31    3.47
   2  12  11    3.51    3.99
   2  13   0    5.49    5.74
   2  13   1    1.37    3.56
   2  13   2    1.14    3.02
   2  13   3    6.82    5.15
   2  13   4    2.44    4.47
   2  13   5    6.42    4.88
   2  13   6    6.15    4.54
   2  13   7    0.47    3.04
   2  13   8   14.57    6.38
   2  14   1    1.71    6.03
   2  14   2    2.62    5.31
   2  14   3   -3.40    5.39
   2  14   4   10.15    6.76
   2  14   5    0.36    4.20
   2  14   6    0.63    4.02
  -3  14   3   -8.63    9.83
  -3  14   2   -5.27   10.14
  -3  14   1   -0.95    9.65
  -3  14   0   -2.63   11.58
  -3  13   6    0.44    8.98
  -3  13   5    0.05    8.28
  -3  13   4   -2.57    9.04
  -3  13   3   -2.41   11.05
  -3  13   2    0.33    9.38
  -3  13   0   -3.93    8.97
  -3  13  -2    8.94   10.25
  -3  12   8   -6.10    9.62
  -3  12   7   -2.83    7.18
  -3  12   6   -1.03    8.58
  -3  12   4   -4.05    8.61
  -3  12   2   12.23   11.76
  -3  12   1   -5.14    8.69
  -3  12  -1   -3.12    7.34
  -3  12  -2   -0.62    7.88
  -3  12  -3   -3.23    6.86
  -3  11  11    3.94    9.23
  -3  11   9   -7.04    9.20
  -3  11   8   -3.70    8.36
  -3  11   5   -2.56    7.66
  -3  11   4   -0.95    9.49
  -3  11   3   38.62   15.58
  -3  11   1   22.29   13.01
  -3  11   0    5.49    8.35
  -3  11  -1    3.11    7.61
  -3  11  -3   -1.32    6.80
  -3  11  -4   -4.25    7.19
  -3  11  -5   -0.56    7.09
  -3  10  12    5.09    7.61
  -3  10   9    5.93    9.32
  -3  10   8   -2.15    8.07
  -3  10   3   11.70    9.38
  -3  10   2  239.36   28.59
  -3  10   1   20.68   11.33
  -3  10   0    3.23    6.99
  -3  10  -1   -4.54    7.98
  -3  10  -2    2.58    6.62
   3 -10   2   46.95    6.17
  -3  10  -3   -3.44    5.43
  -3  10  -4   -0.59    6.69
  -3  10  -5   -3.64    6.34
  -3   9  14    3.19    8.55
  -3   9  12   -1.97    7.58
  -3   9  10   10.38    8.91
  -3   9   9    1.97    7.68
  -3   9   8    1.01    7.51
  -3   9   7   -1.95    5.79
  -3   9   6    3.78    7.49
  -3   9   3   50.61   18.71
   3  -9   0   38.87    5.42
   3  -9   1    3.05    1.85
   3  -9   2    7.59    2.56
  -3   9  -3    4.87    6.33
   3  -9   3   49.07    6.04
  -3   9  -4    0.49    4.95
   3  -9   4   28.28    4.31
  -3   9  -5    0.79    5.19
  -3   9  -7    2.93    5.42
  -3   8  16    4.01   10.63
  -3   8  14   -2.17    7.90
  -3   8  12    2.57    8.73
  -3   8  11    6.46    9.62
  -3   8  11   82.25    8.21
  -3   8  10   44.02    6.53
  -3   8   9   -0.96    5.83
  -3   8   9    0.57    1.01
  -3   8   8    5.96    2.70
  -3   8   7    8.10    3.03
  -3   8   7    2.65    6.48
  -3   8   6    4.37    6.34
  -3   8   6   48.78    7.28
  -3   8   5    6.59    2.88
  -3   8   5    6.21    7.48
   3  -8  -2   12.71    3.27
  -3   8   1   35.28   13.39
   3  -8  -1   62.22    6.76
  -3   8   0    0.52    5.80
   3  -8   0   26.31    4.43
   3  -8   1    0.07    1.58
   3  -8   2    5.02    2.11
  -3   8  -3   -0.97    4.91
   3  -8   3    6.09    2.29
   3  -8   4    1.44    1.43
  -3   8  -4    1.71    4.62
   3  -8   5    2.43    1.43
   3  -8   6    3.18    1.82
  -3   8  -6    2.25    4.75
  -3   8  -7   86.33    7.99
  -3   8  -8   55.63    6.57
  -3   8  -9    7.34    2.50
  -3   7  16   23.04   15.05
  -3   7  15    9.32   10.37
  -3   7  14   -2.08    9.21
  -3   7  13   -5.71    8.89
  -3   7  12   -6.19    8.94
  -3   7  11   22.98    4.36
  -3   7  10    6.15    2.29
  -3   7  10    0.52    6.60
  -3   7   9    5.53    2.53
  -3   7   9    1.27    5.95
  -3   7   8    9.23    3.21
  -3   7   8    3.23    5.16
  -3   7   7   -0.54    6.05
  -3   7   6    5.71    6.26
  -3   7   5    3.61    6.53
   3  -7  -4   48.50    6.19
   3  -7  -3    0.64    1.94
   3  -7  -2  103.22    8.68
   3  -7  -1  192.85   12.11
  -3   7   0    5.93    7.87
   3  -7   0    9.29    3.03
   3  -7   1   28.84    4.57
  -3   7  -1    2.68    5.77
  -3   7  -2    4.75    5.99
   3  -7   2   12.13    3.13
   3  -7   3   45.78    5.41
   3  -7   4  149.35    8.84
  -3   7  -4   -1.53    4.56
   3  -7   5   13.02    2.76
   3  -7   6   98.33    6.22
  -3   7  -6    2.82    4.95
  -3   7  -7   29.05    4.34
   3  -7   7   26.37    3.02
   3  -7   8    1.39    1.10
  -3   7  -8    2.39    1.42
  -3   7  -9  164.46   10.15
  -3   7 -10    9.22    2.45
  -3   7 -11    0.37    1.33
  -3   6  16   -3.12    9.43
  -3   6  15   -3.92    9.42
  -3   6  14    2.62    8.28
  -3   6  13  -19.32   11.61
  -3   6  12   -0.78    6.26
  -3   6  12   50.00    5.18
  -3   6  11    1.26    6.24
  -3   6  11    0.57    0.94
  -3   6  10  112.91    8.44
  -3   6   9    1.40    5.77
  -3   6   8    1.86    5.32
  -3   6   7    2.87    6.37
  -3   6   6    4.47    6.16
   3  -6  -6    1.66    2.23
   3  -6  -5  113.33    9.41
   3  -6  -4   31.48    5.24
  -3   6   4    2.74    5.17
   3  -6  -3    0.94    1.84
  -3   6   3   -0.89    5.64
   3  -6  -2  107.46    9.00
  -3   6   2    0.78    4.84
   3  -6  -1   32.52    5.16
  -3   6   1   -0.02    5.58
   3  -6   0   49.17    6.09
  -3   6   0    0.20    5.29
  -3   6  -1    2.16    4.87
   3  -6   1  160.12   10.39
  -3   6  -2    3.21    5.12
   3  -6   2    3.01    2.26
  -3   6  -3   -3.01    4.91
   3  -6   3  184.71   10.88
   3  -6   4   14.36    3.14
  -3   6  -4    2.13    4.49
   3  -6   5   74.06    6.22
  -3   6  -5    0.18    3.86
   3  -6   6   80.71    6.01
  -3   6  -6   69.95    6.43
  -3   6  -7   15.22    2.89
   3  -6   7   11.29    2.16
   3  -6   8    2.09    1.05
  -3   6  -8    6.33    1.94
   3  -6   9   27.91    2.37
  -3   6  -9   38.05    4.31
  -3   6  -9   28.17    5.96
  -3   6 -10   16.04    3.36
  -3   5  18   -3.81    9.62
  -3   5  17   -7.81   10.85
  -3   5  16   19.08   13.75
  -3   5  14    5.26    8.20
  -3   5  12    0.26    0.89
  -3   5  11   -4.81    6.58
  -3   5  11  112.76    7.06
  -3   5   9   -0.20    5.77
   3  -5  -8    2.76    2.03
   3  -5  -7   16.16    3.83
   3  -5  -6  145.15   10.70
  -3   5   6   -0.73    5.06
   3  -5  -5  107.90    9.23
   3  -5  -4   11.20    3.35
  -3   5   4    1.24    4.83
  -3   5   3   -0.29    4.60
   3  -5  -3    2.46    2.17
   3  -5  -2   43.08    5.93
  -3   5   2    0.77    5.47
   3  -5  -1  570.85   19.34
  -3   5   1   94.87   20.53
  -3   5   0   58.70   16.55
   3  -5   0  918.54   26.77
   3  -5   1   65.61    7.82
  -3   5  -2    1.19    4.22
   3  -5   2    7.81    3.50
   3  -5   3   18.93    4.38
  -3   5  -3    0.00    3.83
   3  -5   4   18.41    4.62
   3  -5   5   65.20    8.24
  -3   5  -6    3.70    1.26
   3  -5   6   -0.35    2.13
  -3   5  -7   29.84    3.53
   3  -5   7    1.78    2.63
   3  -5   8    4.60    2.15
  -3   5  -8   37.68    3.99
   3  -5   9    7.59    2.54
  -3   5  -9   68.19    5.63
   3  -5  10  137.63    4.79
  -3   5 -10  148.28    8.49
  -3   5 -11    1.72    1.63
  -3   5 -12   41.11    6.02
  -3   5 -13    0.99    1.61
  -3   4  18    0.63   10.55
  -3   4  17    4.50    9.85
  -3   4  16    1.85    9.47
  -3   4  15   -0.98    7.85
  -3   4  14    0.28    7.56
  -3   4  13    3.36    7.98
  -3   4  12  -11.23    9.86
  -3   4  12   11.17    1.74
  -3   4  11  -14.98    9.29
  -3   4  11   44.97    4.04
   3  -4 -10   57.29    6.36
  -3   4  10    1.13    5.71
   3  -4  -9  267.17   13.77
  -3   4   8   -0.49    4.79
   3  -4  -8    5.28    2.43
  -3   4   7    0.26    4.75
   3  -4  -7   80.64    8.03
   3  -4  -6   20.07    4.36
  -3   4   5   -0.07    5.05
   3  -4  -5    0.53    1.67
  -3   4   4    2.99    5.08
   3  -4  -4  129.51   10.44
   3  -4  -3   31.82    5.86
  -3   4   3   -2.61    5.72
   3  -4  -2    3.87    2.98
   3  -4  -1  124.87   11.62
  -3   4   1   39.24   14.86
   3  -4   0    1.33    2.81
  -3   4  -1   -1.71    4.13
   3  -4   1  306.45   22.94
  -3   4  -2   -0.72    3.99
   3  -4   2    1.74    2.73
  -3   4  -3   -1.72    4.27
   3  -4   4    0.39    3.08
   3  -4   5    0.03    3.01
   3  -4   6   -0.79    3.13
  -3   4  -6  158.31    6.99
   3  -4   7    0.23    2.88
  -3   4  -7   13.10    2.01
   3  -4   8   -0.82    2.89
  -3   4  -8    5.20    1.47
   3  -4   9    1.43    2.65
   3  -4  10    0.07    2.44
  -3   4 -12   11.19    3.07
   3  -4  12    4.32    0.78
  -3   4 -13    0.92    1.35
  -3   3  17    0.55    7.37
  -3   3  16    4.49    8.02
  -3   3  15    4.92    7.92
  -3   3  14   -3.68    7.19
  -3   3  13    5.24    7.42
  -3   3  12   -3.20    6.88
   3  -3 -12   18.23    4.01
  -3   3  11   -1.25    6.36
   3  -3 -11   20.60    3.87
  -3   3  10   -3.08    6.47
   3  -3 -10  222.86   12.09
  -3   3   9   -2.70    5.45
   3  -3  -9   50.01    5.97
  -3   3   8   -1.85    5.44
   3  -3  -8  184.14   11.41
  -3   3   7    2.67    5.76
   3  -3  -7   57.09    6.52
   3  -3  -6   25.98    5.03
  -3   3   6    0.69    5.50
   3  -3  -5   34.79    5.63
   3  -3  -4   33.37    5.97
   3  -3  -3   20.16    4.89
   3  -3  -2    6.23    4.08
  -3   3   1   -0.99    4.24
  -3   3   0   27.89   10.86
   3  -3   0   41.65    9.04
  -3   3  -1    0.35    4.19
   3  -3   1   -0.98    4.06
   3  -3   2    0.44    3.79
  -3   3  -3    0.39    3.94
   3  -3   3    1.84    3.85
  -3   3  -5   12.39    1.64
   3  -3   5    1.42    3.21
   3  -3   6    0.31    3.15
  -3   3  -6    6.16    1.19
  -3   3  -7   13.95    2.00
   3  -3   7    0.39    2.81
   3  -3   8   -0.50    2.82
   3  -3  11    3.06    3.17
   3  -3  12   -0.25    2.60
   3  -3  13   -0.34    2.50
   3  -3  13    8.55    1.42
   3  -3  14   11.32    1.99
  -3   3 -14   59.64    6.20
  -3   2  18    0.90    1.66
  -3   2  17    0.43    1.64
  -3   2  16    1.73    6.54
  -3   2  15    2.70    6.20
  -3   2  14   -1.56    6.69
   3  -2 -13    2.41    2.05
  -3   2  13   -0.61    5.78
  -3   2  12    2.88    6.57
   3  -2 -12    6.26    2.51
  -3   2  11  106.14    3.74
   3  -2 -11   93.96    7.59
  -3   2  10   -5.15    7.20
   3  -2 -10   65.31    6.49
  -3   2   9   -2.93    5.36
   3  -2  -9   94.06    7.88
  -3   2   8    0.82    4.95
   3  -2  -8  154.54   10.12
   3  -2  -7    0.75    1.79
  -3   2   7    0.16    4.82
  -3   2   6   -0.86    4.88
   3  -2  -6  104.28    8.81
   3  -2  -5   58.54    7.06
  -3   2   5   -0.04    5.51
   3  -2  -4   50.56    7.62
   3  -2  -3   -0.47    3.38
  -3   2   2    0.05    4.29
  -3   2   1    0.83    4.30
  -3   2   0 1116.95   36.85
   3  -2   0 1039.80   35.02
  -3   2  -1    1.73    4.43
   3  -2   1    0.09    3.50
   3  -2   2    0.25    3.32
  -3   2  -5  155.84    4.23
   3  -2   5    1.36    3.41
   3  -2   6    0.29    3.28
   3  -2   7    0.97    3.23
   3  -2  11    3.55    1.46
   3  -2  12   40.64    4.22
   3  -2  13   -0.09    0.69
   3  -2  13    1.13    1.26
  -3   2 -13    0.00    0.77
   3  -2  14   11.54    2.29
   3  -2  14   13.33    2.66
  -3   2 -14   21.53    3.28
   3  -2  15   71.33    6.36
   3  -2  15   27.11    3.98
   3  -2  16    6.34    1.98
  -3   1  19    0.79    1.68
  -3   1  18    2.75    2.65
  -3   1  17    0.55    1.62
  -3   1  16    1.67    1.79
  -3   1  15    3.10    6.67
  -3   1  15    9.15    4.32
  -3   1  14    1.46    2.08
  -3   1  14   -0.07    5.66
  -3   1  13   -0.90    5.70
  -3   1  13    1.16    1.62
  -3   1  12   -1.99    5.37
   3  -1 -12    0.37    1.50
  -3   1  11   14.72    1.58
   3  -1 -11   24.61    3.76
   3  -1 -10   34.21    4.59
  -3   1  10   50.14    3.17
   3  -1  -9  332.20   13.80
  -3   1   9  277.35    8.25
  -3   1   8   -0.84    4.39
   3  -1  -8    3.11    2.11
   3  -1  -7    1.29    1.88
   3  -1  -6   13.96    3.88
  -3   1   6    1.66    4.69
  -3   1   5    2.15    4.69
   3  -1  -5   -1.68    3.02
  -3   1   4   -2.76    4.84
   3  -1  -4   -3.47    4.24
  -3   1   3   -1.99    4.67
  -3   1   2   -0.68    4.79
   3  -1  -2    0.25    4.13
   3  -1  -1   10.91    5.36
  -3   1   1   10.53    5.52
  -3   1  -1   17.40    8.55
   3  -1   2   -2.32    3.77
   3  -1   3    0.36    3.33
   3  -1   7    0.37    0.35
   3  -1   8   63.51    3.45
   3  -1   9  109.82    4.90
   3  -1  10   28.52    2.75
   3  -1  11  191.73    7.67
   3  -1  12   13.63    2.23
   3  -1  13    0.77    0.88
   3  -1  13    0.70    1.31
   3  -1  14   27.51    3.70
   3  -1  14   26.09    3.49
  -3   1 -14   20.18    2.81
   3  -1  15   36.70    4.70
   3  -1  15   18.00    3.43
   3  -1  16   98.54    7.75
   3  -1  16   29.70    4.59
   3  -1  17   39.24    5.08
  -3   0  18    2.49    2.15
  -3   0  17   -0.42    1.05
  -3   0  16   27.03    5.84
  -3   0  15   -0.05    5.76
  -3   0  15   15.51    4.33
  -3   0  14    8.54    7.40
  -3   0  14    0.69    1.37
  -3   0  13    2.51    1.85
  -3   0  13   -1.60    5.62
  -3   0  12    0.42    5.61
   3   0 -12    6.43    2.33
  -3   0  12    0.45    1.35
  -3   0  11   58.19    7.89
  -3   0  11   -2.59    5.74
   3   0 -11   48.80    4.78
  -3   0  11   48.03    3.49
  -3   0  10  361.18    9.82
   3   0 -10  440.18   14.63
  -3   0   9    0.51    0.67
   3   0  -9    2.01    1.88
  -3   0   8  221.50    7.23
   3   0  -8  145.17    9.65
  -3   0   7    1.47    0.84
  -3   0   7   -0.37    4.21
   3   0  -7    0.15    2.04
   3   0  -6    0.70    3.04
  -3   0   6    0.80    4.35
   3   0  -5    1.27    3.58
  -3   0   4   -0.45    4.21
   3   0  -4    0.52    3.67
  -3   0   3   -1.26    4.21
   3   0  -3   -0.82    3.48
  -3   0   2    1.89    0.91
   3   0  -2    2.24    3.69
  -3   0   1  702.13   16.37
   3   0  -1   -2.91    4.33
  -3   0   0 9999.00   45.32
  -3   0  -1  244.12    5.74
  -3   0  -2  244.87    5.26
   3   0  11   60.45    5.60
   3   0  12    0.33    0.88
   3   0  13   24.74    3.48
   3   0  13  112.08    7.56
   3   0  14    2.96    1.43
   3   0  14    4.88    1.99
  -3   0 -15    0.37    0.39
   3   0  15    1.09    1.66
   3   0  15   -0.04    0.65
  -3   0 -15    0.32    0.32
   3   0  16   51.33    6.18
   3   0  16   78.80    6.67
   3   0  17    2.84    1.63
   3   0  17    1.63    2.23
  -3  -1  18    1.06    1.44
  -3  -1  17    0.91    1.65
  -3  -1  16   21.95    5.24
  -3  -1  15   12.48    3.75
  -3  -1  14  110.26   10.12
  -3  -1  13   16.61    3.75
  -3  -1  12   -8.24    6.10
  -3  -1  12   10.71    3.05
   3   1 -12    4.58    1.71
  -3  -1  11    5.66    1.55
   3   1 -11    5.69    1.79
  -3  -1  11   12.05    3.15
   3   1 -10    2.28    1.56
  -3  -1  10    2.82    1.61
  -3  -1  10    0.00    0.66
  -3  -1   9  105.26    6.28
   3   1  -9   86.92    6.71
  -3  -1   9  143.04    9.40
   3   1  -8  167.54   10.22
  -3  -1   8  177.90   10.34
   3   1  -7   -0.11    2.13
  -3  -1   7    7.82    2.15
  -3  -1   7    5.30    1.44
  -3  -1   6    0.59    0.81
   3   1  -6   -0.91    3.02
  -3  -1   6    2.29    0.96
  -3  -1   5    0.08    0.58
  -3  -1   5   -0.97    3.87
  -3  -1   5    1.70    1.01
  -3  -1   4   63.68    5.16
   3   1  -4   -1.24    3.87
  -3  -1   4   54.59    4.66
   3   1  -3    1.07    3.84
  -3  -1   3   65.14    4.64
   3   1  -2   25.04    3.20
  -3  -1   2   22.41    2.59
   3   1  -1  132.92    6.23
  -3  -1   1  152.18    6.36
  -3  -1   0  139.48    5.94
   3   1   0  151.46    5.71
   3   1   1  100.60    4.30
  -3  -1  -1   93.20    4.52
   3   1   2  254.91    6.80
   3   1  13    4.75    2.11
  -3  -1 -13    4.70    1.06
  -3  -1 -14    0.70    0.43
   3   1  14    1.85    1.71
   3   1  15   24.89    4.15
   3   1  16    0.27    1.49
   3   1  16    1.57    2.08
   3   1  17   48.14    6.75
   3   1  17    7.73    2.87
   3   1  18    2.20    1.83
   3   1  18    2.89    2.73
  -3  -2  18    4.69    2.54
  -3  -2  17   -0.91    1.81
  -3  -2  16    1.79    2.04
  -3  -2  15   41.64    6.76
  -3  -2  14   76.04    8.67
  -3  -2  13   28.10    5.13
  -3  -2  12    1.96    1.56
  -3  -2  11    0.51    0.97
  -3  -2  11    0.28    0.93
   3   2 -11    0.38    1.06
  -3  -2  10   45.90    5.86
   3   2 -10   17.25    2.69
  -3  -2  10   22.16    3.12
   3   2  -9  159.84    8.37
  -3  -2   9  211.18   11.98
  -3  -2   9  233.65   10.03
  -3  -2   8   58.43    5.30
  -3  -2   8  101.00    7.91
  -3  -2   7   74.32    5.89
  -3  -2   7   57.80    5.72
  -3  -2   6    1.89    1.16
   3   2  -6    4.13    3.56
  -3  -2   6    5.02    1.67
   3   2  -5    0.28    3.00
  -3  -2   5   13.42    2.35
  -3  -2   5   22.04    3.30
  -3  -2   4  131.15    7.11
   3   2  -4  141.92    9.90
  -3  -2   4  124.23    7.45
   3   2  -3    0.71    3.61
   3   2  -3    1.52    1.03
  -3  -2   3    0.06    0.95
  -3  -2   3    0.66    0.90
  -3  -2   2  162.56    7.47
  -3  -2   2  193.92    9.13
   3   2  -2  190.77    7.86
  -3  -2   1   43.94    4.09
  -3  -2   1   45.88    4.16
   3   2  -1   36.94    3.41
  -3  -2   0   88.52    5.85
   3   2   0   86.15    5.23
   3   2   1  267.71    8.47
  -3  -2  -9   41.95    3.80
  -3  -2 -10    1.85    0.95
  -3  -2 -11  176.49    7.05
  -3  -2 -12  160.36    6.24
  -3  -2 -13    1.05    0.67
   3   2  13    2.42    1.69
   3   2  14   61.93    6.50
  -3  -2 -14   38.85    2.07
   3   2  15    3.23    2.20
   3   2  16  147.99   10.88
   3   2  17   46.11    6.83
   3   2  18    2.30    2.76
   3   2  18    0.00    0.86
  -3  -3  17   -0.76    1.96
  -3  -3  16   -1.40    1.39
  -3  -3  15   18.42    5.13
  -3  -3  14   31.18    6.09
  -3  -3  13   29.70    6.01
  -3  -3  12    4.10    2.44
  -3  -3  11    1.29    1.35
   3   3 -10   14.97    1.89
  -3  -3  10   27.29    4.81
  -3  -3  10   18.49    3.44
  -3  -3   9   13.28    3.34
  -3  -3   9    2.09    1.40
   3   3  -9    0.82    1.14
  -3  -3   8  379.32   16.61
  -3  -3   8  373.20   14.33
  -3  -3   7  155.96    9.26
  -3  -3   7  129.37    9.46
   3   3  -6   23.24    5.95
   3   3  -6    1.09    3.03
  -3  -3   6   52.17    6.04
  -3  -3   6   37.59    4.61
  -3  -3   5   28.96    4.09
  -3  -3   5   33.74    4.53
   3   3  -5   25.42    4.30
   3   3  -4    2.94    1.28
  -3  -3   4    3.41    1.55
  -3  -3   4    2.66    1.46
   3   3  -4   -0.48    3.31
  -3  -3   3   19.17    3.08
   3   3  -3   20.30    2.96
  -3  -3   3   15.58    2.75
  -3  -3   2   54.17    4.95
   3   3  -2   48.55    4.42
  -3  -3   1   34.35    3.88
   3   3  -1   37.89    4.01
   3   3   0   17.32    2.57
  -3  -3   0   15.88    2.68
  -3  -3  -1   23.20    2.95
  -3  -3  -2    3.62    1.40
  -3  -3  -3   10.18    2.14
  -3  -3  -4    1.61    1.19
  -3  -3  -5  251.10   10.00
  -3  -3  -6    0.94    0.97
  -3  -3  -7   56.94    4.28
  -3  -3  -8    8.72    1.72
  -3  -3  -9    0.31    0.59
  -3  -3 -10   85.15    5.44
  -3  -3 -11  305.60   10.33
  -3  -3 -12  112.23    6.05
   3   3  13   24.98    4.57
  -3  -3 -13   21.50    2.50
  -3  -3 -14    1.45    0.61
   3   3  14    1.56    1.67
   3   3  15   20.19    4.22
   3   3  16  116.64   10.14
   3   3  17    3.41    2.62
   3   3  18   36.02    6.94
   3   3  19    5.22    3.84
  -3  -4  17    2.01    1.99
  -3  -4  16    0.49    1.24
  -3  -4  15    0.97    1.42
  -3  -4  14   47.79    8.13
  -3  -4  13   14.74    4.25
  -3  -4  12   -0.06    1.13
  -3  -4  11    0.34    1.07
  -3  -4  10    0.80    1.12
  -3  -4   9  219.95   14.17
  -3  -4   9  195.40   11.62
  -3  -4   8  111.47    9.73
  -3  -4   8  118.49    8.67
   3   4  -7    9.22    4.77
  -3  -4   7   12.91    3.10
   3   4  -7    2.02    3.08
  -3  -4   7   14.18    3.23
  -3  -4   6    0.63    1.00
   3   4  -6    0.66    1.06
  -3  -4   6    0.13    0.89
   3   4  -5    3.49    1.57
  -3  -4   5    2.12    1.55
   3   4  -5    1.83    1.24
  -3  -4   4   39.12    5.22
   3   4  -4   46.26    4.94
   3   4  -4   55.58    5.58
  -3  -4   3  112.21    8.22
   3   4  -3  113.11    7.87
   3   4  -3  110.96    7.47
   3   4  -2    1.58    1.09
   3   4  -2    1.37    0.88
  -3  -4   2    0.58    1.16
   3   4  -1    6.60    1.94
   3   4  -1    5.46    1.72
  -3  -4   1    6.28    2.19
  -3  -4   0    0.61    1.02
   3   4   0    0.72    1.02
   3   4   0    1.25    0.97
  -3  -4  -1   63.60    5.78
   3   4   1   67.57    5.79
   3   4   2  128.89    8.20
  -3  -4  -2  125.62    7.99
  -3  -4  -3    3.86    1.64
  -3  -4  -4   23.92    3.50
  -3  -4  -5    2.71    1.39
  -3  -4  -6    2.84    1.33
  -3  -4  -7  381.62   13.27
  -3  -4  -8   10.27    2.36
  -3  -4  -9    1.95    1.13
  -3  -4 -10   66.13    5.53
  -3  -4 -11   11.30    2.38
   3   4  12  220.49   12.72
  -3  -4 -12  215.41    9.34
  -3  -4 -13    3.39    1.29
   3   4  13    7.04    2.80
   3   4  14    9.11    3.18
   3   4  15    2.52    2.32
   3   4  16   -0.35    1.92
   3   4  17  121.06   12.03
   3   4  18    5.58    3.52
   3   4  19   -0.08    3.06
   3   4  20    1.46    3.91
  -3  -5   9  139.47   11.03
   3   5  -8    1.49    1.60
  -3  -5   8   50.42    6.40
  -3  -5   7  142.03   10.34
   3   5  -7  141.73    9.82
   3   5  -6    1.16    1.20
  -3  -5   6    0.64    1.26
   3   5  -6   -0.32    3.08
   3   5  -6    1.03    1.10
   3   5  -5   23.78    4.01
   3   5  -5   32.06    4.58
  -3  -5   5   21.73    4.20
   3   5  -4   72.90    6.84
   3   5  -4   83.13    7.17
  -3  -5   4   72.19    7.50
   3   5  -3    0.68    0.88
  -3  -5   3    0.43    1.33
   3   5  -3    0.75    0.99
  -3  -5   2  342.07   15.66
   3   5  -2  318.51   13.74
   3   5  -2  335.38   14.28
   3   5  -1    0.58    0.84
  -3  -5   1   -0.07    1.01
   3   5  -1    0.86    1.14
   3   5   0    5.85    1.90
  -3  -5   0    4.06    1.93
  -3  -5  -1  579.57   19.05
   3   5   1  558.35   17.43
   3   5   2    1.58    1.14
  -3  -5  -2    1.35    1.44
  -3  -5  -3  337.50   14.85
   3   5   3  344.06   14.18
  -3  -5  -4   67.40    6.75
   3   5   4   62.11    5.94
   3   5   5    1.70    1.32
  -3  -5  -5    1.12    1.16
  -3  -5  -6   71.98    6.56
  -3  -5  -7    3.89    1.67
  -3  -5  -8  256.72   12.36
  -3  -5  -9   21.23    3.53
  -3  -5 -10    0.64    1.00
   3   5  11  141.68   10.50
  -3  -5 -11  129.67    8.43
  -3  -5 -12    9.17    2.34
   3   5  12   12.48    3.82
   3   5  13   63.08    7.34
  -3  -5 -13   43.94    4.64
   3   5  14  154.29   11.43
   3   5  15    4.22    2.67
   3   5  16   16.16    4.58
   3   5  17   15.74    5.11
   3   5  18    3.70    3.45
   3   5  19   22.51    6.84
   3   5  20    3.12    3.87
   3   6  -9   30.88    5.45
   3   6  -8   60.08    7.03
   3   6  -7   31.11    5.16
  -3  -6   7   28.35    5.14
   3   6  -6    4.09    1.88
  -3  -6   6    3.26    1.93
   3   6  -5    6.55    2.22
  -3  -6   5    6.75    2.52
  -3  -6   4    1.53    1.74
   3   6  -4    1.40    1.23
   3   6  -4    1.03    1.32
  -3  -6   3  238.03   14.37
   3   6  -3  242.17   13.63
   3   6  -3  279.80   14.51
   3   6  -2   65.86    6.94
   3   6  -2   65.48    6.74
  -3  -6   2   65.47    7.20
   3   6  -1    0.38    0.75
  -3  -6   1    1.45    1.62
   3   6  -1    1.22    1.31
  -3  -6   0    1.28    1.29
   3   6   0    0.89    0.95
  -3  -6  -1    0.47    1.47
   3   6   1    0.60    0.87
  -3  -6  -2  182.23   11.87
   3   6   2  190.46   11.51
  -3  -6  -3  134.89   10.06
   3   6   3  131.85    9.17
  -3  -6  -4   16.85    3.65
   3   6   4   16.65    3.28
   3   6   5    5.65    2.05
  -3  -6  -5    3.45    1.84
   3   6   6    9.71    2.61
  -3  -6  -6   10.39    2.96
   3   6   7  152.89   12.06
  -3  -6  -7  126.11    9.53
  -3  -6  -8  378.36   16.36
  -3  -6  -9   12.19    3.06
  -3  -6 -10   11.73    3.04
   3   6  10   10.41    3.26
  -3  -6 -11    7.66    2.41
   3   6  11    9.39    3.54
  -3  -6 -12    3.59    1.78
   3   6  12    5.39    2.55
   3   6  13  189.56   13.23
   3   6  14    3.34    2.53
   3   6  15    0.90    2.69
   3   6  16   18.88    5.52
   3   6  17    7.82    4.21
   3   6  18   40.21    8.50
   3   6  19    0.24    3.25
   3   6  20    0.06    3.38
   3   7  -7    2.31    3.38
   3   7  -7   29.95    3.02
   3   7  -6   15.16    2.04
  -3  -7   6   16.80    4.63
  -3  -7   5    0.80    1.52
   3   7  -5    1.24    1.20
  -3  -7   4   12.95    3.76
  -3  -7   3   82.67    8.83
   3   7  -2   53.22    6.21
  -3  -7   2   56.63    7.29
   3   7  -1   57.88    6.98
   3   7  -1   51.05    5.94
  -3  -7   1   60.01    7.62
  -3  -7   0    4.68    2.55
   3   7   0    1.81    1.30
  -3  -7  -1    1.07    1.32
   3   7   1    1.96    1.41
   3   7   2  209.72   12.06
  -3  -7  -2  232.46   14.42
  -3  -7  -3    5.61    2.54
   3   7   3    3.90    1.95
  -3  -7  -4    1.48    1.49
   3   7   4    1.32    1.43
   3   7   5   11.33    2.91
  -3  -7  -5   13.28    3.51
   3   7   6    3.95    1.92
  -3  -7  -6    6.62    2.51
   3   7   7  287.46   14.69
  -3  -7  -7  286.06   15.74
  -3  -7  -8    2.79    1.83
   3   7   8    5.89    2.69
   3   7   8    0.56    1.19
  -3  -7  -9  133.51    9.65
   3   7   9  161.82   11.92
  -3  -7 -10    4.93    2.15
   3   7  10    7.39    2.99
  -3  -7 -11    0.72    1.21
   3   7  11    0.27    1.84
   3   7  12   13.83    4.03
   3   7  13    1.19    2.32
   3   7  14   63.82    8.49
   3   7  15    6.28    3.58
   3   7  16    0.70    2.77
   3   7  17   22.64    6.78
   3   7  18    9.00    4.86
   3   7  19   19.76    6.89
   3   8  -7   11.99    2.50
   3   8  -6    7.09    1.95
   3   8  -5   17.75    2.63
  -3  -8   4    7.90    3.51
   3   8  -4    5.93    1.75
  -3  -8   3    3.76    2.37
   3   8  -3    2.78    1.68
  -3  -8   2    6.70    2.98
   3   8  -2    6.26    2.28
  -3  -8   1    4.79    2.69
   3   8  -1    4.80    2.05
  -3  -8   0   13.50    3.84
   3   8   0   13.17    3.00
   3   8   1   18.25    3.62
  -3  -8  -1   21.33    4.70
  -3  -8  -2    6.19    2.76
   3   8   2    5.61    2.43
   3   8   3   32.12    4.98
  -3  -8  -3   30.22    5.32
  -3  -8  -4    1.52    1.51
   3   8   4    1.34    1.70
   3   8   5   19.84    4.20
  -3  -8  -5   15.79    4.12
   3   8   6   50.20    6.50
   3   8   6   51.25    6.48
  -3  -8  -6   48.71    6.76
   3   8   7   -0.31    1.27
  -3  -8  -7    1.50    1.48
   3   8   7    1.46    1.88
   3   8   8   22.42    4.55
   3   8   8   26.89    5.32
  -3  -8  -8   22.53    4.87
   3   8   9   17.98    4.25
  -3  -8  -9   13.63    3.83
   3   8   9   15.32    4.04
  -3  -8 -10    1.61    1.63
   3   8  10    5.57    2.83
   3   8  11  100.17    9.87
   3   8  12    8.11    3.42
   3   8  13  122.48   11.91
   3   8  14   62.10    9.21
   3   8  15    1.33    2.66
   3   8  16    3.63    3.31
   3   8  17    1.92    2.89
   3   8  18    6.54    4.85
   3   9  -5    1.77    1.53
   3   9  -4    1.12    1.26
   3   9  -3   18.92    3.28
   3   9  -2   43.18    4.96
  -3  -9   2   38.24    7.38
   3   9  -1   37.05    4.92
  -3  -9   1   38.09    7.23
  -3  -9   0    8.16    3.41
   3   9   0    9.03    2.67
   3   9   1    0.78    1.76
  -3  -9  -1    1.08    1.58
   3   9   2  116.05    9.39
  -3  -9  -2  109.12   11.17
   3   9   3   21.00    4.36
  -3  -9  -3   23.26    5.27
  -3  -9  -4    1.55    1.77
   3   9   4    2.27    2.12
   3   9   5   37.59    5.79
  -3  -9  -5   36.14    6.43
   3   9   6    6.31    2.90
  -3  -9  -6    4.22    2.52
  -3  -9  -7   14.02    4.12
   3   9   7   13.64    3.82
   3   9   8   84.17    9.00
  -3  -9  -8   77.96    9.35
   3   9   9   24.31    5.22
   3   9  10    1.42    1.93
   3   9  11    1.45    2.36
   3   9  12   15.41    4.77
   3   9  13   83.60   10.91
   3   9  14    0.57    2.67
   3   9  15   18.53    6.38
   3   9  16   -0.16    2.85
   3  10  -4    4.26    2.41
   3  10  -3   13.88    3.69
   3  10  -2   48.32    6.12
   3  10  -1   75.26    7.67
   3  10   0    0.37    1.70
   3  10   1    3.52    2.20
   3  10   2   31.63    5.23
   3  10   3    1.41    1.91
   3  10   4   59.22    7.35
   3  10   5   -0.26    2.03
   3  10   6    1.81    1.87
   3  10   7   51.35    7.42
   3  10   8    4.86    3.05
   3  10   9  115.70   11.66
   3  10  10    3.39    2.67
   3  10  11    0.27    2.42
   3  10  12    4.99    3.73
   3  10  13    1.05    3.51
   3  10  14   30.31    7.86
   3  11  -3    4.55    2.91
   3  11  -2   48.44    7.84
   3  11  -1    4.16    2.68
   3  11   0   32.05    5.87
   3  11   1    0.85    1.96
   3  11   2    4.24    2.90
   3  11   3   79.17    9.20
   3  11   4   15.37    4.50
   3  11   5   56.93    8.35
   3  11   6    2.31    2.63
   3  11   7    1.71    2.54
   3  11   8   69.04    9.74
   3  11   9   26.79    6.43
   3  11  10   24.00    6.29
   3  11  11    3.11    3.23
   3  11  12    1.11    2.68
   3  11  13   21.95    6.98
   3  12  -1   39.20    7.04
   3  12   0   16.00    5.27
   3  12   1    2.11    2.81
   3  12   2   16.36    5.13
   3  12   3    5.85    3.53
   3  12   4   21.46    5.73
   3  12   5   30.38    7.11
   3  12   6    1.21    3.04
   3  12   7   12.56    5.52
   3  12   8   16.77    5.61
   3  12   9   14.03    5.43
   3  12  10   79.35   11.68
   3  13   0   -0.34    3.29
   3  13   1    1.22    3.67
   3  13   2    2.18    3.68
   3  13   3    4.54    4.34
   3  13   4   22.22    7.31
   3  13   5    1.16    2.94
   3  13   6    5.49    3.94
   3  13   7    2.18    3.51
   3  13   8    2.99    4.20
   3  14   2    1.87    3.79
   3  14   3    1.89    4.62
   3  14   4    5.38    4.27
   3  14   5    8.98    5.68
  -4  14   1   -3.72    9.15
  -4  14   0   -1.97    9.33
  -4  13   5   -3.67    9.24
  -4  13   3   14.08   13.15
  -4  13   0   -3.99    8.79
  -4  13  -1   -0.73    9.01
  -4  13  -2   -1.70    8.50
  -4  12   7   -0.32   11.54
  -4  12   6    8.29    9.31
  -4  12   5   -1.34   11.41
  -4  12   4   10.35   10.31
  -4  12   2   51.32   17.71
  -4  12   1    3.45    8.53
  -4  12  -1   -0.29    8.53
  -4  12  -2    1.52    7.98
  -4  12  -3   -4.48    9.00
  -4  11  10    1.90    9.32
  -4  11   9    4.40   10.21
  -4  11   8   -1.38    9.14
  -4  11   7   -7.32   10.78
  -4  11   6    2.83    8.78
  -4  11   2  167.14   28.20
  -4  11   1   16.35   10.94
  -4  11  -1    3.47    7.76
  -4  11  -2   -1.61    6.92
  -4  11  -3    3.83    6.59
  -4  11  -4   -6.90    6.90
  -4  11  -5    5.69    8.08
  -4  10  12    2.55   11.24
  -4  10  11    9.33    9.20
  -4  10  10    2.69   10.77
  -4  10   7   -4.83    9.44
  -4  10   6    0.20    7.88
  -4  10   5    5.15    8.71
  -4  10   4   -0.36    7.67
  -4  10   1  108.79   24.46
  -4  10   0   -2.80    6.96
  -4  10  -1    2.69    7.56
  -4  10  -2   -2.22    6.02
  -4  10  -3    3.54    6.42
  -4  10  -4   -1.51    6.38
  -4  10  -5    8.15    9.00
  -4  10  -6    3.35    6.82
  -4   9  13   -9.14    9.62
  -4   9  12   10.04   11.01
  -4   9  11    2.78    9.36
  -4   9   6   -4.17    8.30
  -4   9   5   -0.49    7.19
  -4   9   4    0.58    8.19
  -4   9   3    3.29    7.53
  -4   9   2  419.28   38.92
  -4   9   1   53.53   15.37
  -4   9   0    0.66    7.87
  -4   9  -1    5.97    7.40
  -4   9  -2    1.67    6.02
   4  -9   2    6.61    2.62
  -4   9  -3    0.75    6.64
   4  -9   3   -0.22    1.48
   4  -9   4   71.82    6.93
  -4   9  -4   -4.48    6.57
  -4   9  -5    1.03    5.81
   4  -9   5   20.24    3.73
   4  -9   6    6.07    2.30
  -4   9  -7    2.69    6.02
  -4   8  15   -6.41    9.39
  -4   8  12    7.60   10.89
  -4   8  11    4.03    8.97
  -4   8  10    2.48    8.28
  -4   8  10   53.88    7.27
  -4   8   9   23.29    5.00
  -4   8   6    0.02    6.98
  -4   8   5   -0.08    6.63
  -4   8   4   -3.29    7.32
  -4   8   3   -6.32    8.84
  -4   8   2    8.34    8.07
  -4   8   1   14.04   10.97
   4  -8   0   31.22    5.44
  -4   8   0   14.43   11.39
   4  -8   1   41.33    6.26
  -4   8  -2    2.38    5.59
   4  -8   2    1.42    1.78
   4  -8   3   28.02    4.80
  -4   8  -3    2.03    6.26
  -4   8  -4   -0.88    5.87
   4  -8   4    5.68    2.63
  -4   8  -5   -1.01    5.74
   4  -8   5   10.65    2.70
  -4   8  -6   -2.86    5.09
   4  -8   6    6.02    2.44
  -4   8  -7    1.12    1.03
   4  -8   7    3.37    1.80
  -4   8  -8  109.01    9.46
  -4   8  -9   47.29    5.76
  -4   7  16    6.87   10.71
  -4   7  15    4.31   11.01
  -4   7  14    1.23    9.91
  -4   7  13   -9.55   11.33
  -4   7  12    1.85    8.20
  -4   7  11   -0.41    8.35
  -4   7  11   19.15    4.03
  -4   7  10   -3.29    9.59
  -4   7  10    7.89    2.96
  -4   7   9    2.84    7.88
  -4   7   8    1.81    7.48
  -4   7   7    0.23    6.29
  -4   7   6  -11.39    9.58
  -4   7   5    1.60    6.88
  -4   7   3   -1.13    5.98
   4  -7  -3    4.18    2.71
  -4   7   2    3.17    6.87
   4  -7  -2    3.20    2.52
   4  -7  -1   86.71    9.01
   4  -7   0  262.24   15.20
  -4   7  -1    0.00    5.22
   4  -7   1    0.15    2.02
  -4   7  -2    0.09    5.21
   4  -7   2   10.91    3.50
   4  -7   3   42.69    5.95
  -4   7  -3    1.72    4.92
   4  -7   4   26.12    4.62
  -4   7  -4   -2.57    5.50
   4  -7   5  186.30   11.89
  -4   7  -5   -0.06    4.83
   4  -7   6    1.55    1.91
  -4   7  -7   10.84    2.71
   4  -7   7    5.43    2.18
  -4   7  -8    0.79    0.84
   4  -7   8   -0.17    1.44
  -4   7  -9    7.89    2.09
   4  -7   9    1.33    1.32
  -4   7 -10   94.37    7.24
  -4   6  18    1.72    8.97
  -4   6  15    0.61    9.52
  -4   6  12   -0.96    8.34
  -4   6   9    0.70    7.16
  -4   6   8    2.79    6.57
  -4   6   7   -0.68    6.56
  -4   6   5   -2.81    6.08
   4  -6  -5    1.49    2.52
   4  -6  -4  120.99   10.76
  -4   6   4    1.45    5.92
  -4   6   3    0.14    5.62
   4  -6  -3   21.18    4.94
   4  -6  -2   34.40    5.89
  -4   6   2   -5.12    8.25
  -4   6   1  113.72   19.33
   4  -6  -1  558.71   21.46
   4  -6   0   26.06    5.65
  -4   6   0    5.82    7.26
   4  -6   1  365.92   20.28
  -4   6  -1   -1.69    6.03
  -4   6  -2    2.63    4.83
   4  -6   2    4.81    3.47
   4  -6   3   61.11    8.31
   4  -6   4  100.52   10.18
  -4   6  -4   -0.80    4.79
   4  -6   5   23.72    4.87
  -4   6  -5   -2.51    4.40
   4  -6   6  103.40    9.58
  -4   6  -7   36.47    4.44
   4  -6   7   10.79    2.84
   4  -6   8    3.89    2.16
  -4   6  -8    8.16    2.22
  -4   6  -9  132.60    7.65
   4  -6   9   50.18    6.23
  -4   6 -10   20.67    3.34
   4  -6  10   10.89    2.27
  -4   5  17    5.94    9.03
  -4   5  15    9.64   11.49
  -4   5  13    0.89    7.87
  -4   5  12   51.91    5.25
  -4   5  11   -1.56    7.63
  -4   5  10  -13.50   10.07
   4  -5  -7  336.73   18.01
  -4   5   6   -2.31    5.78
   4  -5  -6    1.51    2.28
   4  -5  -5  270.35   16.22
  -4   5   5    1.43    5.91
   4  -5  -4  118.86   10.74
  -4   5   4   -2.85    5.75
  -4   5   3    0.47    5.29
   4  -5  -3   13.52    4.66
  -4   5   2   11.39    7.32
   4  -5  -2  383.47   21.39
   4  -5  -1   45.14    8.00
  -4   5   1   33.50   11.91
   4  -5   0  664.10   29.05
  -4   5   0   85.82   18.92
   4  -5   1  856.16   39.06
  -4   5  -1   31.85   13.10
   4  -5   2    1.43    4.47
  -4   5  -2   -1.69    4.69
  -4   5  -3   -3.99    6.11
  -4   5  -4   -0.99    4.38
   4  -5   4   -3.71    4.46
   4  -5   5   -3.35    5.24
  -4   5  -5    1.82    4.82
  -4   5  -7    0.06    0.52
   4  -5   8   -0.01    3.23
  -4   5  -8    7.66    1.63
  -4   5  -9   48.69    4.34
   4  -5  10   -0.01    2.74
   4  -5  11  -10.58    3.86
  -4   5 -13    6.69    3.26
  -4   4  17    3.22    8.97
  -4   4  15   -3.72    9.26
  -4   4  13   -4.94    9.00
  -4   4  11   -2.10    7.10
  -4   4  10    5.63    6.82
  -4   4   9   -1.10    6.94
   4  -4  -8   26.36    5.15
  -4   4   8    1.15    6.03
  -4   4   7    1.43    5.60
   4  -4  -7    0.66    1.78
  -4   4   6   -3.94    6.64
   4  -4  -6   97.70   10.17
   4  -4  -5  335.47   18.80
   4  -4  -4   38.79    7.59
  -4   4   4    3.27    5.56
   4  -4  -3  271.66   19.49
   4  -4  -2    2.89    3.94
  -4   4   2    3.35    5.54
   4  -4  -1  337.27   22.91
  -4   4   1  288.38   24.58
   4  -4   0 1080.20   41.10
  -4   4   0  632.91   40.66
   4  -4   1    1.98    4.72
  -4   4  -1    4.58    5.76
  -4   4  -2   -4.48    6.06
   4  -4   2   -0.92    5.43
   4  -4   3    1.17    4.01
   4  -4   4   -0.23    4.07
   4  -4   5    0.23    3.68
  -4   4  -6    3.42    1.04
   4  -4   7    0.87    3.75
  -4   4  -7  138.18    5.96
  -4   4  -8    5.68    1.38
   4  -4  11    6.37    3.94
   4  -4  12    0.36    3.41
  -4   3  17   -1.84    9.84
  -4   3  16   -4.30    8.40
  -4   3  15    0.73    8.38
  -4   3  14    2.71    6.29
  -4   3  13    2.83    7.28
  -4   3  13   -0.09    0.38
  -4   3  12    2.84    6.55
  -4   3  11    1.73    6.01
  -4   3  10   -0.03    5.71
   4  -3 -10   16.75    4.28
   4  -3  -9  291.39   15.92
   4  -3  -8    1.78    2.32
  -4   3   7   -0.09    5.12
   4  -3  -7   14.46    4.29
   4  -3  -6   90.96   10.77
  -4   3   6    4.33    5.93
   4  -3  -5   16.00    5.60
  -4   3   4   -3.47    5.81
   4  -3  -4  192.05   17.12
  -4   3   3   -1.74    5.59
  -4   3   2    2.44    4.63
   4  -3  -1    2.58    5.21
  -4   3   1   28.73    9.73
  -4   3   0    1.59    4.96
  -4   3  -1   32.09   17.26
   4  -3   1   39.31   13.50
  -4   3  -2   -0.13    4.30
   4  -3   2   -2.21    4.53
   4  -3   4   -2.13    3.74
   4  -3   5    0.01    3.83
   4  -3   6    2.27    3.88
  -4   3  -6   50.55    3.01
  -4   3  -7   39.05    3.00
   4  -3   8   -1.93    4.46
   4  -3  11    1.01    3.91
   4  -3  12    1.65    4.21
  -4   2  17    1.12    1.99
  -4   2  16    3.97    3.79
  -4   2  16   -0.26    7.24
  -4   2  15    0.40    7.61
  -4   2  14   -3.15    6.76
  -4   2  13    0.84    6.72
  -4   2  12   -5.76    5.61
   4  -2 -12    2.71    2.23
  -4   2  12    1.12    0.68
  -4   2  11   -2.86    5.87
   4  -2 -11    6.62    3.01
   4  -2 -10  194.62   12.18
  -4   2  10   -4.44    5.99
   4  -2  -9   13.47    3.88
  -4   2   9   -0.59    5.13
  -4   2   8    1.98    5.04
   4  -2  -8   12.51    3.97
  -4   2   7    2.14    5.13
   4  -2  -7   10.71    4.48
   4  -2  -6   -0.89    3.07
  -4   2   6    1.39    4.92
   4  -2  -5  205.47   17.90
  -4   2   5   -4.92    6.24
  -4   2   4   -1.49    5.28
   4  -2  -4    1.93    4.52
  -4   2   3   -0.59    4.64
  -4   2   2   -1.33    6.04
   4  -2  -2   -1.74    4.55
  -4   2   1    4.94    5.98
   4  -2  -1   -3.70    5.66
  -4   2   0  412.31   26.74
   4  -2   0  539.71   28.04
  -4   2  -1  150.75   23.03
   4  -2   1  185.97   21.98
   4  -2   2    0.44    4.08
   4  -2   3   -0.92    4.43
   4  -2   4   -1.45    3.84
   4  -2   5   -0.23    3.73
   4  -2   6    0.79    3.83
   4  -2   7    0.39    3.69
   4  -2   8    0.21    3.88
   4  -2  15   34.77    4.02
  -4   1  17   -0.14    1.34
  -4   1  16   12.38    4.56
  -4   1  15    9.66    8.59
  -4   1  15    1.26    1.94
  -4   1  14   -2.14    7.07
  -4   1  14    6.06    3.48
  -4   1  13    4.75    7.16
  -4   1  13    0.60    0.47
  -4   1  13    0.11    1.59
   4  -1 -13    1.07    1.89
  -4   1  12   -4.47    6.55
  -4   1  12    2.66    1.02
   4  -1 -12    1.80    1.79
  -4   1  12    1.13    1.42
   4  -1 -11  117.02    9.30
  -4   1  11  141.39    6.39
   4  -1 -10   72.07    7.59
  -4   1  10   39.09    3.59
  -4   1   9   -5.61    6.44
   4  -1  -9   64.94    7.43
   4  -1  -8   47.47    7.06
  -4   1   8   -1.11    5.63
  -4   1   7    1.08    4.93
   4  -1  -7    0.83    2.95
  -4   1   6    2.39    5.41
  -4   1   5   -3.06    5.63
   4  -1  -5   -1.09    3.94
  -4   1   4   -4.03    6.89
   4  -1  -4   -2.58    5.08
   4  -1  -3   -3.83    5.44
  -4   1   3   -4.53    5.90
   4  -1  -2   -1.93    4.34
   4  -1  -1   -2.40    4.60
  -4   1   1    2.64    4.67
  -4   1   0   72.54   11.23
   4  -1   0   92.85   14.09
   4  -1   1  290.25   22.72
   4  -1   2    4.99    4.85
  -4   1  -3    4.36    0.68
   4  -1  10   89.10    3.85
   4  -1  11    0.93    0.60
   4  -1  12   12.46    1.91
   4  -1  13    2.83    1.09
   4  -1  14   -0.08    0.55
   4  -1  15  105.07    6.72
   4  -1  15  205.25   10.33
   4  -1  16    4.62    1.46
   4  -1  16    5.14    2.10
  -4   0  17    2.32    2.10
  -4   0  16    1.37    1.81
  -4   0  15   33.88    6.80
  -4   0  14    7.32    3.04
  -4   0  13    1.18    1.64
   4   0 -13    2.05    1.90
  -4   0  13    8.98    7.96
  -4   0  12   19.85    4.85
   4   0 -12    7.83    2.58
  -4   0  12   -7.21    7.44
  -4   0  12    9.34    1.97
  -4   0  11   32.64    3.79
   4   0 -11   44.80    5.53
  -4   0  11    3.22    5.74
  -4   0  11    2.05    1.97
   4   0 -10   91.82    8.25
  -4   0  10  113.21   10.45
  -4   0  10  145.79    7.29
   4   0  -9  123.07    9.41
  -4   0   9   65.57    8.38
  -4   0   8    0.13    0.70
  -4   0   8   -0.41    4.48
   4   0  -8   -0.89    2.72
  -4   0   8    6.83    2.71
  -4   0   7    1.63    4.92
   4   0  -7   -1.47    3.63
  -4   0   6   42.90    5.87
  -4   0   6   -2.15    4.76
  -4   0   5  400.76   16.17
  -4   0   4  405.87   15.47
   4   0  -3   -3.88    5.04
  -4   0   3   -0.81    4.48
  -4   0   3   12.02    2.91
  -4   0   2   21.38    3.31
  -4   0   1  170.79    7.60
  -4   0   0 1449.02   19.82
  -4   0  -1 1312.31   15.85
   4   0   1   42.12    9.60
  -4   0  -2  501.32    8.99
   4   0   9    9.93    1.49
   4   0  10    0.05    0.53
   4   0  11   77.34    4.74
   4   0  12  122.41    6.25
   4   0  13   17.89    2.44
   4   0  14   29.55    3.33
   4   0  15    4.01    1.54
   4   0  15    6.35    2.44
   4   0  16   54.96    5.83
   4   0  16   49.28    4.88
   4   0  17   57.04    6.18
  -4  -1  17   -0.02    1.21
  -4  -1  16   25.07    5.69
  -4  -1  15   38.93    6.97
  -4  -1  14    3.05    2.01
  -4  -1  13   52.80    7.01
  -4  -1  12    1.94    1.12
  -4  -1  12    0.11    1.05
   4   1 -12    3.27    1.94
  -4  -1  11   14.49    2.86
   4   1 -11    8.69    2.72
  -4  -1  11   25.33    4.53
   4   1 -10   48.24    5.73
  -4  -1  10   53.74    5.35
  -4  -1  10   -0.28    4.50
  -4  -1  10   47.22    6.09
  -4  -1   9   -0.75    4.69
   4   1  -9    0.05    2.14
  -4  -1   9    5.78    1.68
  -4  -1   9    1.16    1.28
  -4  -1   8  298.25   11.31
  -4  -1   8  262.45   13.15
   4   1  -7    0.62    3.92
  -4  -1   7    2.90    1.31
  -4  -1   7    0.24    0.67
  -4  -1   6    5.52    1.82
  -4  -1   6   21.53    3.46
   4   1  -5    0.22    4.08
  -4  -1   5  390.16   13.97
   4   1  -4    1.29    4.10
  -4  -1   4   13.61    2.56
  -4  -1   3  134.06    7.15
   4   1  -2   -0.79    3.94
  -4  -1   2  150.31    7.51
   4   1  -1   -0.80    4.05
  -4  -1   1   67.84    4.66
   4   1  -1   38.56    4.35
   4   1   0  482.84   12.57
  -4  -1   0  406.44   11.74
  -4  -1  -1  262.32    8.34
   4   1   1  217.49    7.42
   4   1   2  100.74    4.58
   4   1   3    3.70    0.87
   4   1   4    5.27    1.03
   4   1  15   -0.05    0.86
   4   1  15    3.89    2.31
  -4  -1 -15    2.85    1.00
   4   1  16   27.13    4.54
   4   1  16  182.22   11.53
   4   1  17   -0.56    0.88
   4   1  17    0.15    1.89
   4   1  18   16.66    4.32
  -4  -2  17    0.27    1.99
  -4  -2  16    9.61    3.79
  -4  -2  15    1.78    1.86
  -4  -2  14  116.18   11.25
  -4  -2  13    4.73    2.39
  -4  -2  12    1.82    1.62
  -4  -2  12    0.52    0.92
   4   2 -12    0.90    1.30
  -4  -2  11    4.31    2.20
  -4  -2  11    1.32    1.33
   4   2 -11    1.10    1.56
  -4  -2  10    1.81    1.58
  -4  -2  10    5.73    2.13
   4   2 -10    5.73    2.35
  -4  -2   9  170.11    9.46
  -4  -2   9  216.46   12.73
  -4  -2   8   93.49    7.00
  -4  -2   8   54.99    6.23
  -4  -2   7    5.36    1.96
   4   2  -7   -0.11    3.51
  -4  -2   7    6.83    1.95
   4   2  -6   -2.20    3.91
  -4  -2   6   36.07    4.58
  -4  -2   6   24.99    3.48
  -4  -2   5   31.55    3.65
  -4  -2   5   23.62    3.66
   4   2  -5   -0.16    3.97
  -4  -2   4  338.03   12.26
  -4  -2   4  351.45   13.35
   4   2  -3  241.47   12.59
  -4  -2   3  285.16   11.64
  -4  -2   3  271.33   11.85
   4   2  -2   17.77    2.88
  -4  -2   2    4.46    1.56
  -4  -2   2    2.84    1.50
  -4  -2   1  129.38    7.23
   4   2  -1   89.76    5.72
  -4  -2   0   36.45    3.83
   4   2   0   36.74    3.63
   4   2   1   92.86    5.29
   4   2   2   27.26    3.08
   4   2   3    1.29    0.82
  -4  -2 -12  399.36   12.30
  -4  -2 -13    5.62    1.43
  -4  -2 -14   26.26    2.86
  -4  -2 -15   13.30    1.84
   4   2  15   14.05    3.66
   4   2  16    1.45    1.93
   4   2  17  140.99   10.58
   4   2  18   49.34    7.02
   4   2  19    4.85    3.00
  -4  -3  16   -0.94    1.36
  -4  -3  15   20.69    5.48
  -4  -3  14   20.55    5.12
  -4  -3  13    1.86    2.07
  -4  -3  12   10.08    3.18
  -4  -3  12   13.60    4.13
  -4  -3  11    0.65    1.13
   4   3 -11    0.61    1.17
  -4  -3  11   -0.19    1.03
  -4  -3  10   27.60    5.00
   4   3 -10    4.16    2.19
  -4  -3  10   17.30    3.66
  -4  -3   9  139.32   11.02
  -4  -3   9  164.38   10.52
  -4  -3   8   13.46    3.07
  -4  -3   8   25.24    4.64
   4   3  -8    0.08    3.36
  -4  -3   7  155.66    9.98
  -4  -3   7  138.54   10.26
   4   3  -6   -2.11    3.47
  -4  -3   6    1.72    1.32
  -4  -3   6    0.34    0.99
   4   3  -5   -0.20    4.02
   4   3  -5   24.97    6.23
  -4  -3   5   21.79    3.97
  -4  -3   5   19.97    3.46
   4   3  -4   46.22    5.69
  -4  -3   4   58.23    5.66
  -4  -3   4   56.13    5.84
   4   3  -3    1.06    0.82
  -4  -3   3    5.67    2.02
  -4  -3   3    7.84    2.14
  -4  -3   2  216.52    9.83
  -4  -3   2  250.93   11.82
   4   3  -2  233.40   10.20
   4   3  -1    0.06    0.56
  -4  -3   1   -0.38    1.14
   4   3   0   64.02    5.43
  -4  -3   0   51.72    4.97
  -4  -3  -1  170.13    9.30
   4   3   1  157.36    8.06
  -4  -3  -2   18.28    3.16
   4   3   2   10.54    2.12
  -4  -3  -3    6.44    1.96
  -4  -3  -4    2.61    1.30
  -4  -3  -5    5.55    1.72
  -4  -3  -6   15.77    2.79
  -4  -3  -7   76.71    6.12
  -4  -3  -8   11.00    2.38
  -4  -3  -9   21.10    3.17
  -4  -3 -10    1.28    0.91
  -4  -3 -11  284.70   10.33
  -4  -3 -12   48.44    4.51
  -4  -3 -13    2.80    1.27
  -4  -3 -14   18.28    2.77
  -4  -3 -15    0.07    0.77
   4   3  15    1.23    1.96
   4   3  16  132.53   10.68
   4   3  17  121.51   10.34
   4   3  18    9.78    3.86
   4   3  19    6.50    3.65
  -4  -4  16    0.58    1.79
  -4  -4  15    6.56    3.31
  -4  -4  14   10.76    3.96
  -4  -4  13   33.60    6.55
  -4  -4  12    0.96    1.53
  -4  -4  11    1.33    1.43
  -4  -4  11    0.81    1.13
  -4  -4  10   25.49    4.93
   4   4 -10    6.91    1.60
  -4  -4  10   23.54    4.33
  -4  -4   9    3.29    1.94
   4   4  -9    0.68    2.06
  -4  -4   9    1.66    1.63
  -4  -4   8  265.23   15.61
  -4  -4   8  272.74   14.48
  -4  -4   7   38.10    5.26
  -4  -4   7   28.49    5.10
   4   4  -7   -0.71    3.65
   4   4  -6   17.85    4.46
   4   4  -6    0.76    3.91
  -4  -4   6    5.49    2.10
  -4  -4   6    4.02    1.94
   4   4  -5  102.92    8.98
  -4  -4   5   83.97    8.08
  -4  -4   5  102.24    8.99
  -4  -4   4    3.93    1.96
   4   4  -4    0.41    0.72
   4   4  -3  323.08   13.46
  -4  -4   3  292.33   13.75
  -4  -4   2  293.27   13.48
   4   4  -2  244.04   11.40
  -4  -4   1   15.91    3.14
   4   4  -1   12.14    2.72
   4   4   0   28.30    3.89
  -4  -4   0   20.51    3.60
   4   4   1   20.51    3.30
  -4  -4  -1   20.16    3.45
  -4  -4  -2  205.24   10.74
  -4  -4  -3  198.02   10.37
  -4  -4  -4    2.10    1.18
  -4  -4  -5   19.64    3.14
  -4  -4  -6   62.19    5.59
  -4  -4  -7  223.77   10.89
  -4  -4  -8  189.61    9.81
  -4  -4  -9    0.19    0.74
  -4  -4 -10   19.02    3.11
  -4  -4 -11   83.44    6.56
  -4  -4 -12   37.76    4.55
  -4  -4 -13   93.43    6.79
  -4  -4 -14    2.28    1.16
   4   4  14    2.50    2.13
  -4  -4 -15    1.03    1.12
   4   4  15   -1.96    2.47
   4   4  16   99.15    9.75
   4   4  17    7.29    3.39
   4   4  18   83.08    9.81
   4   4  19    6.46    4.08
   4   4  20    0.29    3.28
  -4  -5  10   -0.14    1.24
   4   5  -9    2.42    2.43
  -4  -5   9  165.42   11.65
   4   5  -8    0.72    4.10
  -4  -5   8   73.68    8.15
   4   5  -7    2.19    4.15
  -4  -5   7   11.31    3.19
   4   5  -6    0.31    4.00
  -4  -5   6    1.21    1.46
  -4  -5   5    9.50    3.02
  -4  -5   4  133.35   10.52
   4   5  -4  175.57   10.85
  -4  -5   3  338.95   15.89
   4   5  -3  321.26   14.24
  -4  -5   2   69.40    7.47
   4   5  -2   92.42    8.08
   4   5  -1    3.95    1.92
  -4  -5   1    7.24    2.70
   4   5   0   18.74    3.47
  -4  -5   0   17.08    3.66
   4   5   1  187.64   10.62
  -4  -5  -1  178.14   11.28
  -4  -5  -2  860.89   24.11
  -4  -5  -3    0.05    0.98
  -4  -5  -4  142.35    9.63
  -4  -5  -5   13.16    3.00
  -4  -5  -6    0.61    1.09
  -4  -5  -7  275.72   13.33
  -4  -5  -8   17.11    3.48
  -4  -5  -9   56.18    6.31
  -4  -5 -10   -0.43    1.09
  -4  -5 -11    0.00    0.85
  -4  -5 -12  117.94    8.67
  -4  -5 -13   36.05    4.81
   4   5  13   27.70    5.23
   4   5  14  110.78   10.25
  -4  -5 -14   95.66    7.27
  -4  -5 -15    3.24    1.47
   4   5  15    3.69    2.61
   4   5  16   -0.62    2.12
   4   5  17   60.35    8.29
   4   5  18   16.42    5.07
   4   5  19   11.11    4.70
   4   5  20    1.80    3.56
  -4  -6   9   24.34    5.06
   4   6  -8   -0.23    3.37
  -4  -6   8    1.90    1.76
  -4  -6   7  161.26   12.34
  -4  -6   6   -0.28    1.27
  -4  -6   5   11.45    3.49
  -4  -6   4   96.55    9.53
   4   6  -4  127.75   11.36
   4   6  -3   15.10    3.58
  -4  -6   3   11.19    3.40
  -4  -6   2  331.31   17.21
   4   6  -2  334.51   16.44
   4   6  -2  343.29   16.29
  -4  -6   1   79.97    8.60
   4   6  -1   73.33    7.32
   4   6  -1   76.78    7.76
  -4  -6   0   24.64    4.61
   4   6   0   21.12    3.95
   4   6   0   24.92    4.48
  -4  -6  -1   31.40    5.14
   4   6   1   40.68    5.66
  -4  -6  -2    3.42    2.00
   4   6   2    2.99    1.80
  -4  -6  -3  182.08   12.40
  -4  -6  -4    9.21    3.17
  -4  -6  -5   -0.38    1.29
  -4  -6  -6    9.63    3.06
  -4  -6  -7   26.24    4.51
  -4  -6  -8  266.37   13.92
  -4  -6  -9  106.89    9.13
  -4  -6 -10    1.22    1.35
  -4  -6 -11   14.95    3.59
  -4  -6 -12    9.59    2.77
   4   6  12   10.47    3.56
   4   6  13   62.23    7.83
  -4  -6 -13   52.18    6.26
   4   6  14   61.99    8.25
  -4  -6 -14   47.25    5.41
  -4  -6 -15    0.74    1.25
   4   6  15    2.52    2.57
   4   6  16   16.13    4.77
   4   6  17   17.90    5.24
   4   6  18    4.00    3.63
   4   6  19   28.48    7.46
   4   6  20   -0.27    2.98
  -4  -7   8   78.62    9.71
   4   7  -7    0.66    4.23
  -4  -7   7    3.75    2.37
  -4  -7   6    4.55    2.38
  -4  -7   5    7.63    3.09
  -4  -7   4    2.61    2.34
  -4  -7   3  200.10   14.44
  -4  -7   2  104.30    9.92
  -4  -7   1   25.46    5.12
  -4  -7   0   24.87    5.16
  -4  -7  -1   11.65    3.62
   4   7   2  226.27   14.04
  -4  -7  -2  212.17   14.20
   4   7   3  132.99   10.46
  -4  -7  -3  132.82   11.16
   4   7   4    2.72    1.84
  -4  -7  -4    2.62    1.84
  -4  -7  -5   24.80    4.89
   4   7   5   42.96    8.14
  -4  -7  -6   37.14    5.89
  -4  -7  -7  112.79   10.13
  -4  -7  -8  331.53   17.39
  -4  -7  -9    0.82    1.62
  -4  -7 -10   28.11    4.90
  -4  -7 -11    5.82    2.60
   4   7  11    7.91    3.30
  -4  -7 -12    0.49    1.31
   4   7  12   -0.26    2.05
   4   7  13  115.26   11.43
  -4  -7 -13   90.88    8.69
  -4  -7 -14    3.40    1.84
   4   7  14    2.04    2.28
   4   7  15   15.45    4.65
   4   7  16    4.96    3.09
   4   7  17    3.33    3.24
   4   7  18   55.51    9.49
   4   7  19    2.21    3.61
  -4  -8   7   40.68    7.59
   4   8  -6  116.13    6.67
  -4  -8   6  135.50   12.77
  -4  -8   5    0.44    1.47
   4   8  -5    2.42    1.36
  -4  -8   4    5.69    2.84
  -4  -8   3    1.76    1.84
  -4  -8   2    9.35    3.53
  -4  -8   1   41.95    7.10
  -4  -8   0    2.33    2.20
  -4  -8  -1    8.48    3.30
  -4  -8  -2   49.73    7.41
  -4  -8  -3    1.16    1.59
  -4  -8  -4    9.06    3.33
  -4  -8  -5    5.12    2.46
  -4  -8  -6    9.90    3.35
  -4  -8  -7    7.58    3.13
  -4  -8  -8    4.14    2.43
   4   8   9   49.76    7.11
  -4  -8  -9   49.17    7.18
  -4  -8 -10   10.58    3.40
   4   8  10   10.61    3.63
   4   8  11   43.25    7.42
  -4  -8 -11   28.38    5.20
   4   8  12   42.04    6.99
  -4  -8 -12   32.00    5.85
  -4  -8 -13    2.11    1.88
   4   8  13    4.85    3.21
   4   8  14   74.98    9.39
   4   8  15    1.92    2.94
   4   8  16   -0.71    2.59
   4   8  17   34.97    7.90
  -4  -9   5   -0.42    1.63
   4   9  -5    0.29    1.15
  -4  -9   4   12.67    4.33
   4   9  -4    8.88    2.30
  -4  -9   3    0.20    1.42
   4   9  -3    0.08    1.77
   4   9  -2  142.25    9.40
  -4  -9   2  177.90   15.67
  -4  -9   1    8.31    3.42
   4   9  -1    6.19    2.50
  -4  -9   0   16.05    4.69
  -4  -9  -1    1.86    1.75
  -4  -9  -2    0.63    1.55
  -4  -9  -3   86.59   10.08
  -4  -9  -4   44.05    7.18
   4   9   5   45.63    6.62
  -4  -9  -5   44.58    7.34
  -4  -9  -6    0.08    1.27
   4   9   6    0.03    2.12
  -4  -9  -7   12.60    3.75
   4   9   7   11.94    3.61
   4   9   8  117.66   11.24
  -4  -9  -8   99.79   10.45
   4   9   9   56.43    8.31
  -4  -9  -9   47.57    7.39
  -4  -9 -10    0.23    1.42
   4   9  10    1.87    2.54
  -4  -9 -11    1.18    1.38
   4   9  11   -0.01    2.32
  -4  -9 -12    3.50    2.38
   4   9  12    7.02    3.53
   4   9  13   56.18    8.46
   4   9  14   66.26    9.97
   4   9  15    0.68    2.40
   4   9  16    2.52    2.61
   4  10  -4    1.42    1.61
   4  10  -3   23.28    3.95
  -4 -10   2   11.24    4.53
   4  10  -2    8.42    2.64
   4  10  -1   22.65    4.20
  -4 -10   1   26.40    6.29
   4  10   0   65.91    7.25
  -4 -10   0   67.01    9.62
  -4 -10  -1    1.49    2.08
   4  10   1    1.03    2.10
   4  10   2   52.14    7.07
  -4 -10  -2   50.09    8.47
  -4 -10  -3   18.96    5.25
   4  10   3   19.95    4.72
  -4 -10  -4    8.58    3.69
   4  10   4   10.75    3.83
   4  10   5   41.46    6.75
  -4 -10  -5   38.45    7.32
  -4 -10  -6    1.09    2.07
   4  10   6   -0.08    2.45
   4  10   7   25.35    5.39
  -4 -10  -7   20.90    5.41
   4  10   8   30.72    6.03
  -4 -10  -8   29.51    6.24
  -4 -10  -9    8.09    3.61
   4  10   9   13.21    4.33
   4  10  10   31.84    6.33
  -4 -10 -10   23.69    6.27
   4  10  11    1.33    2.45
   4  10  12   -0.87    2.66
   4  10  13   28.40    6.74
   4  10  14    1.56    2.92
   4  11  -2   19.75    4.63
   4  11  -1  102.64    9.45
   4  11   0    0.06    2.03
   4  11   1    0.57    2.00
   4  11   2   26.88    5.29
  -4 -11  -3    5.11    3.26
   4  11   3    3.44    2.83
   4  11   4   98.72    9.96
  -4 -11  -4   88.47   11.78
  -4 -11  -5    6.42    3.63
   4  11   5    4.17    2.98
   4  11   6    6.02    3.26
   4  11   7    5.64    2.81
   4  11   8   -0.24    2.27
   4  11   9  100.80   11.52
   4  11  10   19.96    5.22
   4  11  11    3.75    3.68
   4  11  12    1.10    2.91
   4  12  -1    1.88    3.12
   4  12   0   31.54    6.48
   4  12   1    0.86    2.70
   4  12   2    4.02    3.56
   4  12   3   18.06    5.02
   4  12   4    9.36    3.63
   4  12   5   27.38    6.12
   4  12   6    8.41    3.86
   4  12   7    2.95    3.19
   4  12   8   28.84    6.52
   4  12   9   28.71    6.76
   4  12  10   33.57    7.95
   4  13   1    2.45    3.86
   4  13   2    4.01    3.79
   4  13   3    3.94    3.59
   4  13   4   10.36    5.07
   4  13   5   10.81    5.09
   4  13   6    1.51    2.90
   4  13   7   -1.18    3.19
   4  14   2    2.03    4.54
   4  14   3   -0.63    4.45
   4  14   4   14.02    6.50
   4  14   5    0.43    3.85
  -5  13   3   12.28    9.95
  -5  13   2   16.86   12.70
  -5  13   1    1.15   14.51
  -5  13   0   -1.74    9.25
  -5  13  -1    2.67   11.13
  -5  13  -2   -0.95   10.00
  -5  12   4    3.87   10.62
  -5  12   3   30.30   14.44
  -5  12   1   16.49   12.45
  -5  12   0    2.59    8.07
  -5  12  -1   -4.59    8.68
  -5  12  -2    1.16    8.95
  -5  12  -3   -5.38   10.41
  -5  12  -4   10.97   11.23
  -5  11   8    0.53    9.48
  -5  11   7  -10.42   11.87
  -5  11   6   -9.70    9.59
  -5  11   4   -0.51   10.54
  -5  11   2  314.54   38.55
  -5  11   1   24.32   14.92
  -5  11   0   -1.40    7.88
  -5  11  -1    3.52    7.95
  -5  11  -2    1.34    8.67
  -5  11  -4   -2.99    7.37
  -5  11  -5   -1.96    7.62
  -5  10  10   -1.61    9.88
  -5  10   9    3.40    9.06
  -5  10   8    1.88   10.72
  -5  10   7   15.31   12.17
  -5  10   6    2.73    9.82
  -5  10   3   10.22   13.01
  -5  10   2   62.28   17.74
  -5  10   1   17.26   12.07
  -5  10   0    1.85    9.91
  -5  10  -1   -3.16    6.93
  -5  10  -2    6.70    6.41
  -5  10  -4   -0.45    6.87
  -5  10  -5   -2.34    6.23
  -5   9  12    1.46    8.86
  -5   9  11    0.49   10.02
  -5   9  10    5.47    9.34
  -5   9   9    9.50   11.35
  -5   9   8    1.56    8.21
  -5   9   7   -5.45    9.52
  -5   9   6   -7.82    9.66
  -5   9   3   -9.46    9.06
  -5   9   2   13.51   11.65
  -5   9   1  205.22   29.44
  -5   9   0   -1.56    6.54
  -5   9  -1    4.92    7.96
  -5   9  -2   -1.08    6.11
  -5   9  -4    2.11    6.41
   5  -9   4    1.00    2.30
   5  -9   5  134.83   10.80
  -5   9  -5   -0.57    5.97
  -5   9  -6   -0.33    5.95
  -5   8  14    0.06    9.28
  -5   8  13   -4.32   18.24
  -5   8  11    6.61    9.37
  -5   8  10   -0.80   10.18
  -5   8   9   -3.18    7.95
  -5   8   8    3.88    9.29
  -5   8   7   -2.56    8.79
  -5   8   6   -4.68    8.91
  -5   8   4   -2.15    7.07
  -5   8   2   11.88    9.88
  -5   8   1   21.61   11.47
  -5   8   0    8.82    9.83
  -5   8  -1    2.22    6.75
  -5   8  -2    2.82    6.00
   5  -8   2    4.94    2.55
  -5   8  -3   -0.64    6.60
   5  -8   3    2.34    2.71
  -5   8  -4   -2.00    6.59
   5  -8   4    4.75    2.86
   5  -8   5    2.33    2.38
  -5   8  -6    1.35    5.45
   5  -8   6    1.92    2.59
   5  -8   7   13.84    3.83
  -5   8  -8    4.01    1.94
  -5   7  15    7.23   12.37
  -5   7  13    0.97    9.16
  -5   7  11    0.49    8.64
  -5   7  10   -3.04   10.13
  -5   7   7  -10.99    9.87
  -5   7   6   -1.70    7.58
  -5   7   5   -3.45    8.13
  -5   7   4   -0.78    6.66
  -5   7   3    1.18    6.74
  -5   7   2    6.87    6.80
  -5   7   1   15.69    9.77
   5  -7   0  224.59   15.14
  -5   7   0   22.53   12.06
   5  -7   1  252.20   17.44
  -5   7  -1    0.43    6.61
   5  -7   2    3.02    3.25
   5  -7   3   64.85    8.88
  -5   7  -3   -5.72    7.04
   5  -7   4   52.98    8.27
  -5   7  -4   -0.89    6.12
   5  -7   5   46.23    6.98
   5  -7   6  182.83   14.30
  -5   7  -7    4.32    2.07
   5  -7   7    4.75    3.00
   5  -7   8   -1.28    2.63
  -5   7  -8    1.97    1.45
  -5   7  -9   61.54    5.58
   5  -7   9   13.07    3.36
  -5   6  17    4.08   10.74
  -5   6  15    2.93    9.88
  -5   6  13   -6.51    9.51
  -5   6  11   -4.61    9.04
  -5   6  10   -3.28    8.08
  -5   6   9    2.31    7.20
  -5   6   8    4.83    7.61
  -5   6   7   -0.06    6.59
  -5   6   6   -1.14    6.24
  -5   6   4   -0.42    6.70
   5  -6  -3   59.62    9.15
  -5   6   3   -0.60    5.66
  -5   6   2    4.66    6.29
   5  -6  -2   12.48    4.72
   5  -6  -1  321.52   21.01
  -5   6   1  137.62   18.96
   5  -6   0  600.79   29.59
  -5   6   0  103.74   22.73
  -5   6  -1    5.23    7.48
   5  -6   1    3.36    4.48
   5  -6   2  102.03   13.29
  -5   6  -2   -5.09    7.57
   5  -6   3    2.01    4.38
   5  -6   4    1.80    3.79
   5  -6   5   41.73   11.23
  -5   6  -5    4.39    5.99
   5  -6   6    0.29    3.89
  -5   6  -7   33.24    3.92
   5  -6   7   -6.25    4.79
   5  -6   8   -0.78    3.85
  -5   6  -8    1.63    1.02
   5  -6   9   -1.65    3.97
  -5   6  -9   26.96    3.13
  -5   6 -10   73.55    5.91
   5  -6  10    1.36    4.43
  -5   5  17   -0.68    9.32
  -5   5  16    3.66   11.46
  -5   5  15    2.50    8.95
  -5   5  13   -0.01    7.90
  -5   5  12   -8.12    8.35
  -5   5  11    3.53    7.20
  -5   5  10    4.68    7.57
  -5   5   9   -4.86    8.32
  -5   5   8    6.50    7.72
  -5   5   7   -0.09    6.32
  -5   5   6   -6.73    7.62
  -5   5   5   -4.09    7.09
   5  -5  -5    4.31    3.83
   5  -5  -4  385.62   23.39
  -5   5   3    0.04    5.30
   5  -5  -3   15.03    5.59
   5  -5  -2   94.73   12.77
  -5   5   2    4.36    5.91
   5  -5  -1 1720.14   55.34
  -5   5   1 1299.71   54.09
   5  -5   0  411.40   26.61
  -5   5   0  291.22   29.35
   5  -5   1 1804.97   54.37
  -5   5  -1  211.11   32.23
  -5   5  -2   12.88    9.37
  -5   5  -3   -1.91    5.54
   5  -5   3    1.56    4.28
  -5   5  -4   -3.92    6.35
   5  -5   4    2.62    4.41
   5  -5   6   -4.11    4.35
  -5   5  -7  199.87    8.01
   5  -5   7   -2.58    4.92
  -5   5  -8    4.22    1.15
   5  -5   8    2.09    5.21
  -5   5  -9   78.64    5.03
   5  -5   9   -0.58    4.36
   5  -5  10    1.98    4.58
  -5   4  17    2.94    9.91
  -5   4  16    3.56    8.66
  -5   4  15    2.38    8.37
  -5   4  14    1.97    7.83
  -5   4  13    3.24    8.68
  -5   4  12    2.76    7.36
  -5   4  11    3.94    7.22
  -5   4  10   -2.76    6.57
  -5   4   9    0.01    6.95
  -5   4   8    2.88    6.20
   5  -4  -7   26.96    6.37
  -5   4   6    3.61    6.38
   5  -4  -6    2.34    3.03
   5  -4  -5  347.97   22.11
  -5   4   5    2.58    5.83
   5  -4  -4  140.38   14.96
  -5   4   4   -3.73    7.22
  -5   4   3   -6.54    7.30
   5  -4  -3  104.71   14.52
  -5   4   2    2.19    5.92
   5  -4  -2    2.58    4.84
  -5   4   1   26.06    8.81
   5  -4  -1    3.66    6.33
   5  -4   0  864.92   40.95
  -5   4   0  848.77   43.42
   5  -4   1  373.11   30.32
  -5   4  -1  717.69   37.48
   5  -4   2    3.93    5.15
  -5   4  -2    2.43    6.42
   5  -4   3   -3.96    5.20
  -5   4  -3   -5.59    6.51
   5  -4   6   -1.93    5.29
   5  -4   7    0.07    3.96
  -5   4  -7    8.19    1.38
  -5   4  -8    3.62    0.96
   5  -4   9    0.24    4.40
   5  -4  10   -2.14    4.14
   5  -4  11    1.36    4.16
  -5   3  16   -1.24    9.47
  -5   3  15   -1.39   10.21
  -5   3  14    7.27    9.76
  -5   3  13    0.84    7.88
  -5   3  12   -0.22    6.64
  -5   3  11    4.44    7.22
  -5   3  10    0.97    7.39
  -5   3   9    0.17    6.34
   5  -3  -8   63.89    8.69
  -5   3   8    5.04    6.77
  -5   3   7    1.50    5.41
   5  -3  -7   10.72    5.06
  -5   3   6    3.54    6.36
   5  -3  -6   35.13    8.19
   5  -3  -5   58.11   10.83
  -5   3   5    0.76    5.29
  -5   3   4    1.62    5.75
  -5   3   3   -7.76    7.88
  -5   3   2   -4.27    7.21
   5  -3  -2   -1.63    4.57
  -5   3   1    1.94    6.05
   5  -3   0 1862.98   61.76
  -5   3   0 1777.01   59.30
  -5   3  -1   19.75    9.84
   5  -3   2   23.69    8.55
   5  -3   3   -3.43    5.81
   5  -3   4   -1.32    4.72
   5  -3   5   -0.40    4.01
  -5   3  -6    5.33    0.83
   5  -3   7    0.88    4.81
   5  -3   8    0.92    5.15
   5  -3   9    0.28    4.35
   5  -3  11   -0.94    4.31
   5  -3  13    0.21    5.81
  -5   2  16    0.47    1.69
  -5   2  16   -3.11    8.12
  -5   2  15    5.14    4.21
  -5   2  15    0.76    7.37
  -5   2  14   -1.43    7.45
  -5   2  14    0.64    1.35
  -5   2  13    0.40    8.25
  -5   2  12    6.52    1.65
   5  -2 -10   13.52    4.20
   5  -2  -9   75.82    9.07
   5  -2  -8   -1.86    3.24
   5  -2  -7    0.52    3.51
  -5   2   7   -0.21    5.58
   5  -2  -6   42.99   11.07
  -5   2   6    3.34    6.26
  -5   2   5   -1.57    5.98
  -5   2   3   -8.05    8.24
   5  -2  -2   -3.56    6.35
   5  -2  -1    0.97    4.28
  -5   2   0    8.88    6.77
   5  -2   0    4.35    4.66
  -5   2  -1 1195.47   50.02
   5  -2   1 2217.41   63.83
   5  -2   2   52.05   12.29
   5  -2   3   -3.73    5.34
   5  -2   4   -1.81    4.15
   5  -2   5   -0.57    4.15
   5  -2   6    3.34    5.03
   5  -2  10   -0.50    4.75
   5  -2  14   -3.49    6.21
  -5   1  16   15.34    5.08
  -5   1  15    6.34    7.78
  -5   1  15    9.53    3.91
  -5   1  14   20.14   13.14
  -5   1  14    0.60    1.44
  -5   1  13    0.77    2.14
  -5   1  13  -13.92    9.65
  -5   1  12   -7.01    7.51
  -5   1  12    0.68    1.87
   5  -1 -12    1.80    2.40
  -5   1  12    1.01    0.89
  -5   1  11    5.94    7.58
  -5   1  11   35.10    3.84
   5  -1 -11   12.39    3.77
  -5   1  11    8.57    3.93
  -5   1  10    2.32    5.74
  -5   1  10    6.70    2.73
   5  -1  -9    9.07    4.60
   5  -1  -8   19.97    6.26
  -5   1   8    1.14    5.29
  -5   1   7    0.01    5.32
   5  -1  -7    1.09    3.86
   5  -1  -5    2.05    5.00
  -5   1   5   -1.65    5.35
   5  -1  -4   -1.89    5.21
  -5   1   4   -6.42    7.24
   5  -1  -2   -1.49    4.27
   5  -1  -1    0.51    4.15
  -5   1   1   -1.42    5.15
   5  -1   1  383.65   26.04
   5  -1   2   31.30    8.18
  -5   1  -2  192.93    6.85
   5  -1   3    2.27    5.46
  -5   1  -3  275.25    6.13
  -5   1  -4    3.05    0.58
  -5   0  16    6.00    2.76
  -5   0  15    2.49    1.98
  -5   0  14   15.31    4.47
  -5   0  13    0.98    6.65
  -5   0  13    5.16    2.55
  -5   0  12   -0.41    0.96
   5   0 -12   -0.79    2.06
  -5   0  12    6.00    2.68
  -5   0  11   99.42   10.48
   5   0 -11   71.40    8.07
  -5   0  11  119.75    7.34
   5   0 -10   24.12    5.00
  -5   0  10    4.70    2.53
  -5   0   9  157.37   11.76
  -5   0   9  167.46    9.09
  -5   0   8   -0.35    5.31
   5   0  -8   12.02    5.82
  -5   0   7    0.91    1.16
  -5   0   7    2.12    5.02
   5   0  -7    0.74    4.08
  -5   0   6  176.85   11.72
  -5   0   5   65.68    7.00
   5   0  -5   -2.56    5.24
  -5   0   4  481.89   17.14
  -5   0   3  149.24    8.89
   5   0  -3   -7.00    6.42
  -5   0   2    8.17    2.01
  -5   0   1  121.22    6.92
   5   0   0   -7.42    6.20
  -5   0   0  587.68   13.53
  -5   0  -1  413.54   10.32
  -5   0  -2 2486.66   23.40
  -5   0  -3   29.76    2.38
   5   0  11    1.40    0.53
   5   0  12  307.82    7.28
   5   0  13   66.67    3.91
   5   0  14   24.81    2.72
   5   0  15   11.25    1.90
   5   0  17   28.91    4.63
  -5  -1  16    0.05    1.31
  -5  -1  15   52.89    8.22
  -5  -1  14   56.95    8.47
  -5  -1  13   10.41    3.41
  -5  -1  12   13.28    2.96
   5   1 -12   11.83    3.60
  -5  -1  12   12.25    3.61
  -5  -1  11    2.57    1.73
   5   1 -11    1.37    2.30
  -5  -1  11    1.66    1.59
  -5  -1  10   30.42    4.20
   5   1 -10    3.74    2.80
  -5  -1  10   51.31    6.42
  -5  -1   9  135.97    8.38
  -5  -1   9   89.64    8.25
  -5  -1   8   20.68    3.41
  -5  -1   8   42.14    5.41
   5   1  -7   -1.96    4.20
  -5  -1   7    1.38    1.17
  -5  -1   6   18.72    4.29
  -5  -1   6   12.87    2.83
   5   1  -5    0.02    4.18
  -5  -1   5  170.60    9.57
   5   1  -4   -0.50    4.02
  -5  -1   4  360.34   13.25
   5   1  -3    2.14    5.34
  -5  -1   3   13.56    2.65
  -5  -1   2  353.45   12.73
  -5  -1   1    9.83    1.97
   5   1  -1    3.56    5.72
  -5  -1   0  183.87    8.45
  -5  -1  -1 1923.82   27.56
   5   1   1 2213.31   30.97
   5   1   2   68.16    4.47
  -5  -1  -2  160.59    6.68
   5   1   3  310.58    8.34
   5   1   4  101.25    4.41
   5   1   5    2.03    0.62
   5   1   6  214.60    5.73
   5   1   7  116.99    4.06
   5   1  14    4.50    2.06
   5   1  15    0.19    0.79
   5   1  16   11.69    2.43
   5   1  17   52.35    6.63
   5   1  18   -0.24    1.88
  -5  -2  16    3.90    2.69
  -5  -2  15   15.37    4.57
  -5  -2  14    5.15    2.63
  -5  -2  13   29.18    5.73
  -5  -2  12    4.91    2.39
  -5  -2  12    5.01    2.52
  -5  -2  11    3.24    1.95
  -5  -2  11    0.29    1.08
   5   2 -11   -0.34    1.94
  -5  -2  10   25.93    4.77
   5   2 -10   -9.64    4.33
  -5  -2  10   43.79    6.23
  -5  -2   9    2.67    1.73
   5   2  -9    1.68    4.00
  -5  -2   9    2.61    1.58
  -5  -2   8  220.24   11.40
  -5  -2   8  201.55   12.28
  -5  -2   7   46.87    5.79
  -5  -2   7   71.91    6.62
  -5  -2   6    0.62    0.98
   5   2  -6    0.61    4.54
  -5  -2   6    0.77    1.13
  -5  -2   5  202.54   10.70
  -5  -2   5  192.56   10.91
   5   2  -4    3.90    5.52
  -5  -2   4   26.45    3.92
  -5  -2   4   10.37    2.61
  -5  -2   3  347.08   18.05
  -5  -2   3  232.90   11.82
   5   2  -2  296.21   15.24
  -5  -2   2  361.87   13.79
   5   2  -1   71.36    5.91
  -5  -2   1   74.46    5.94
  -5  -2   0  338.74   12.77
   5   2   0  391.72   12.31
   5   2   1   96.63    5.71
   5   2   2  182.22    7.79
   5   2   3  431.42   11.68
   5   2   4    2.82    1.18
   5   2   5   19.14    2.47
  -5  -2 -14   38.04    4.34
  -5  -2 -15    3.20    1.43
   5   2  17    1.65    2.35
   5   2  18   66.37    7.72
   5   2  19    3.08    2.69
  -5  -3  15    0.07    1.58
  -5  -3  14   47.68    8.22
  -5  -3  13   14.38    4.35
  -5  -3  12    0.11    1.07
  -5  -3  12    0.99    1.56
  -5  -3  11   -0.48    1.00
  -5  -3  11    0.60    1.25
   5   3 -10   -0.94    2.41
  -5  -3  10    0.69    1.32
  -5  -3  10   -0.81    1.32
  -5  -3   9   90.84    8.10
  -5  -3   9  128.84   11.15
  -5  -3   8  176.58   11.70
  -5  -3   8  134.85   11.18
   5   3  -7    0.64    5.01
  -5  -3   7    9.83    3.04
  -5  -3   7    5.12    1.99
   5   3  -6   -1.26    4.28
  -5  -3   6    1.24    1.26
  -5  -3   6    3.39    1.66
   5   3  -5   -2.17    4.93
  -5  -3   5    0.52    1.21
  -5  -3   5    0.58    1.03
  -5  -3   4   65.10    6.00
  -5  -3   4   76.56    7.21
   5   3  -4  118.21   11.68
   5   3  -3  170.68   10.56
  -5  -3   3  174.71   10.35
  -5  -3   3  206.36   11.34
  -5  -3   2    3.15    1.48
  -5  -3   2    2.76    1.41
   5   3  -2   15.56    2.94
  -5  -3   1   38.00    4.90
   5   3  -1   11.71    2.42
  -5  -3   0    6.95    2.16
   5   3   0    5.26    1.66
  -5  -3  -1  169.22   10.21
   5   3   1  174.01    8.58
  -5  -3  -2  957.18   30.69
   5   3   2  576.53   16.21
   5   3   3    9.60    2.14
   5   3   4  177.02    8.81
  -5  -3  -9    1.04    1.32
  -5  -3 -10    5.67    1.93
  -5  -3 -11    0.56    1.05
  -5  -3 -12  204.97   10.08
  -5  -3 -13  122.92    7.89
  -5  -3 -14   59.14    5.36
  -5  -3 -15   14.35    2.59
   5   3  17   95.64   10.22
   5   3  18   24.02    5.12
   5   3  19   -0.03    2.64
  -5  -4  15    3.30    2.74
  -5  -4  14    6.33    4.34
  -5  -4  13    3.37    2.44
  -5  -4  12    3.04    2.26
  -5  -4  12    3.00    2.26
  -5  -4  11   -0.51    1.12
  -5  -4  11   -1.06    1.48
  -5  -4  10   12.67    3.77
  -5  -4  10    5.52    2.42
  -5  -4   9   92.41    9.62
  -5  -4   9  106.41    9.73
  -5  -4   8   18.20    4.20
   5   4  -8    0.24    4.87
  -5  -4   8   10.84    3.10
  -5  -4   7  111.54    9.54
  -5  -4   7  106.28   10.22
  -5  -4   6   -0.31    0.93
  -5  -4   6    0.04    1.21
   5   4  -5   -1.18    4.61
  -5  -4   5   19.68    4.09
  -5  -4   5   17.40    3.79
   5   4  -4  215.96   13.16
  -5  -4   4  231.11   12.97
  -5  -4   3    0.97    1.30
   5   4  -3    9.14    2.49
  -5  -4   2  427.17   16.82
   5   4  -2  425.58   15.85
  -5  -4   1   13.58    3.08
   5   4  -1    4.40    1.68
   5   4   0   22.20    3.58
  -5  -4   0   13.62    2.80
  -5  -4  -1  437.31   16.65
   5   4   1  479.62   16.17
  -5  -4  -2   74.09    7.00
   5   4   2   55.01    5.39
   5   4   3  440.04   15.09
  -5  -4  -3  545.24   18.28
  -5  -4  -4  134.26    9.05
  -5  -4  -5    1.96    1.37
  -5  -4  -6    5.27    1.82
  -5  -4  -7   23.17    3.75
  -5  -4  -8  141.51    9.34
  -5  -4  -9   93.42    7.43
  -5  -4 -10    0.56    0.83
  -5  -4 -11   49.82    5.47
  -5  -4 -12   67.09    6.33
  -5  -4 -13   21.34    3.68
  -5  -4 -14   87.08    7.20
  -5  -4 -15    3.07    1.64
   5   4  16   23.33    5.26
   5   4  17   64.27    8.61
   5   4  18   10.81    4.04
   5   4  19   25.01    5.70
   5   4  20    0.48    3.01
  -5  -5  11    1.43    1.97
  -5  -5  10    7.98    2.98
  -5  -5   9    1.68    2.00
   5   5  -8    3.67    4.38
  -5  -5   8  186.92   13.50
  -5  -5   7   95.10    9.39
   5   5  -7    0.28    4.66
   5   5  -6    3.51    5.02
  -5  -5   6    2.35    2.12
  -5  -5   5   41.24    6.18
   5   5  -5    0.00    5.03
  -5  -5   4    3.68    2.22
  -5  -5   3  294.10   16.00
   5   5  -3  345.95   15.41
  -5  -5   2  243.65   14.07
   5   5  -2  194.59   11.39
  -5  -5   1    1.00    1.38
   5   5  -1    0.75    0.95
   5   5   0    5.02    1.92
  -5  -5   0    1.45    1.31
  -5  -5  -1   80.05    7.85
   5   5   1   78.36    6.98
   5   5   2  710.10   21.21
  -5  -5  -2  724.76   23.19
  -5  -5  -3  949.30   26.33
  -5  -5  -4    1.28    1.33
  -5  -5  -5  191.16   11.66
  -5  -5  -6    3.27    1.75
  -5  -5  -7   66.83    6.80
  -5  -5  -8  407.36   16.74
  -5  -5  -9    8.87    2.48
  -5  -5 -10   22.82    3.95
  -5  -5 -11   28.62    4.50
  -5  -5 -12   26.89    4.45
  -5  -5 -13  164.10   10.86
  -5  -5 -14   22.32    3.80
   5   5  15   51.81    7.45
  -5  -5 -15   47.82    5.46
   5   5  16    1.32    2.40
   5   5  17    3.54    2.92
   5   5  18   15.43    4.69
   5   5  19   10.50    4.37
   5   5  20    2.53    3.81
  -5  -6  11   11.01    4.21
  -5  -6  10    1.71    2.02
  -5  -6   9   60.02    8.12
  -5  -6   8   39.69    6.77
  -5  -6   7   41.15    6.65
  -5  -6   6   14.93    4.02
  -5  -6   5    0.31    1.31
  -5  -6   4   37.68    6.40
  -5  -6   3  185.10   13.11
  -5  -6   2   25.61    5.05
  -5  -6   1  204.08   14.16
   5   6  -1  188.42   12.20
   5   6   0    6.06    2.37
  -5  -6   0    2.11    1.72
  -5  -6  -1   25.88    5.21
   5   6   1   37.54    5.19
  -5  -6  -2  344.63   17.31
   5   6   2  365.98   16.65
  -5  -6  -3    1.56    1.70
  -5  -6  -4  244.22   14.48
  -5  -6  -5   49.65    6.61
  -5  -6  -6    4.71    2.22
  -5  -6  -7   82.54    8.40
  -5  -6  -8   18.01    4.02
  -5  -6  -9  181.11   12.77
  -5  -6 -10   18.43    4.10
  -5  -6 -11    1.42    1.61
  -5  -6 -12    9.22    2.81
  -5  -6 -13   32.32    5.10
  -5  -6 -14   58.54    6.69
   5   6  15   45.51    7.18
  -5  -6 -15   50.45    6.10
   5   6  16   -0.18    2.60
   5   6  17   13.10    4.40
   5   6  18   18.06    5.14
   5   6  19   18.87    5.67
   5   6  20    0.76    3.49
  -5  -7   9    2.95    2.29
  -5  -7   8    0.40    1.57
  -5  -7   7  113.64   11.51
   5   7  -6   -0.88    5.51
  -5  -7   6   14.39    4.40
  -5  -7   5    1.24    1.79
  -5  -7   4   34.28    6.43
  -5  -7   3    1.63    1.85
  -5  -7   2  304.10   18.08
  -5  -7   1   64.07    8.52
  -5  -7   0   13.99    4.07
  -5  -7  -1   12.18    3.74
  -5  -7  -2    0.44    1.48
  -5  -7  -3  279.72   16.33
  -5  -7  -4   71.16    8.32
  -5  -7  -5   10.08    3.20
  -5  -7  -6   -0.37    1.26
  -5  -7  -7   11.06    3.36
  -5  -7  -8  206.71   13.77
  -5  -7  -9  271.56   16.32
  -5  -7 -10    2.26    1.90
  -5  -7 -11    0.84    1.45
  -5  -7 -12    2.53    1.92
  -5  -7 -13   32.54    5.20
   5   7  14  144.12   12.84
  -5  -7 -14  143.48   11.46
  -5  -7 -15    0.05    1.16
   5   7  15    1.57    3.23
   5   7  16    0.14    2.26
   5   7  17    1.01    2.71
   5   7  18    5.65    3.66
  -5  -8   8   45.17    8.24
  -5  -8   7   12.41    4.52
  -5  -8   6   55.90    8.32
  -5  -8   5   36.60    6.99
  -5  -8   4    1.59    1.76
  -5  -8   3    1.74    2.15
  -5  -8   2    5.42    2.74
  -5  -8   1    8.93    3.62
  -5  -8   0   13.11    4.15
  -5  -8  -1    1.40    1.65
  -5  -8  -2   78.81    9.71
  -5  -8  -3  121.89   11.82
  -5  -8  -4    0.80    2.13
  -5  -8  -5  171.06   13.79
  -5  -8  -6    0.52    1.71
  -5  -8  -7    1.51    1.52
  -5  -8  -8   52.58    7.73
  -5  -8  -9    0.84    1.79
  -5  -8 -10    5.12    2.67
  -5  -8 -11    1.76    2.08
  -5  -8 -12    0.78    1.91
   5   8  12    1.72    2.39
   5   8  13  121.76   12.18
  -5  -8 -13  112.78   10.61
  -5  -8 -14    3.45    2.10
   5   8  14    5.76    4.01
  -5  -8 -15   14.34    3.77
   5   8  15   18.27    5.27
   5   8  16    0.28    2.44
   5   8  17    4.29    3.62
  -5  -9   7   19.91    6.30
  -5  -9   6   61.47    9.46
  -5  -9   5    1.55    2.17
   5   9  -5    1.09    1.52
  -5  -9   4    6.39    3.31
  -5  -9   3   17.46    4.97
  -5  -9   2   16.23    4.90
  -5  -9   1  118.25   12.99
  -5  -9   0    7.49    3.48
  -5  -9  -1   -1.03    1.72
  -5  -9  -2   98.78   11.55
  -5  -9  -3    8.53    3.55
  -5  -9  -4  135.37   13.12
  -5  -9  -5   12.34    4.07
  -5  -9  -6    0.40    1.84
  -5  -9  -7   11.15    3.98
  -5  -9  -8    1.01    1.57
  -5  -9  -9  117.17   12.35
   5   9  10   24.89    5.50
  -5  -9 -10   23.80    5.55
  -5  -9 -11    0.90    1.72
   5   9  11    1.52    2.31
  -5  -9 -12   10.18    3.74
   5   9  12   16.45    5.24
  -5  -9 -13    1.93    2.03
   5   9  13    5.06    3.43
   5   9  14   95.27   11.27
  -5  -9 -14   63.18    8.64
   5   9  15   39.94    7.70
  -5 -10   5    5.21    3.62
  -5 -10   4    0.53    2.04
  -5 -10   3    1.79    2.48
   5  10  -3    0.47    1.64
   5  10  -2   55.83    6.44
  -5 -10   2   72.76   10.95
   5  10  -1   24.80    4.81
  -5 -10   1   32.60    7.22
   5  10   0   47.58    6.54
  -5 -10   0   55.77    8.96
  -5 -10  -1    0.35    1.74
  -5 -10  -2    2.06    2.12
  -5 -10  -3   48.33    8.26
  -5 -10  -4   45.98    8.09
  -5 -10  -5   40.33    7.42
   5  10   6   26.92    5.53
  -5 -10  -6   26.35    6.16
  -5 -10  -7    2.01    2.06
   5  10   7    1.66    2.34
  -5 -10  -8   18.50    5.13
   5  10   8   19.64    5.03
   5  10   9   52.13    8.44
  -5 -10  -9   48.50    7.99
  -5 -10 -10    3.22    2.69
   5  10  10    5.31    3.67
  -5 -10 -11    4.28    2.94
   5  10  11    4.33    3.50
  -5 -10 -12    1.14    1.61
   5  10  12    1.19    3.26
   5  10  13   16.96    5.26
   5  10  14   35.06    7.37
  -5 -11   2   11.28    4.75
   5  11  -2   11.58    3.23
   5  11  -1   36.28    5.77
  -5 -11   1   45.00    8.94
   5  11   0   45.72    6.49
  -5 -11   0   53.46    9.38
  -5 -11  -1   -0.16    1.85
   5  11   1    1.84    2.55
   5  11   2   26.84    5.57
  -5 -11  -2   24.30    6.62
   5  11   3   34.61    6.48
  -5 -11  -3   39.89    8.20
  -5 -11  -4   17.63    5.61
   5  11   4   23.53    5.67
   5  11   5  154.44   13.80
  -5 -11  -5  153.72   15.50
  -5 -11  -6    3.39    2.81
   5  11   6    3.09    2.96
  -5 -11  -7    0.93    1.86
   5  11   7    0.60    2.67
  -5 -11  -8   12.09    4.32
   5  11   8   19.93    5.44
  -5 -11  -9    7.03    3.67
   5  11   9    5.69    3.47
   5  11  10   92.93   11.27
  -5 -11 -10   74.59   10.97
   5  11  11    2.24    2.68
   5  11  12   -1.03    2.42
   5  12   0    1.91    2.52
   5  12   1    6.15    3.23
   5  12   2   -0.19    2.40
  -5 -12  -3   -0.47    1.62
   5  12   3    1.97    2.55
   5  12   4   51.98    7.73
  -5 -12  -4   55.06    9.91
  -5 -12  -5    3.53    2.89
   5  12   5    3.47    2.92
  -5 -12  -6   15.46    5.50
   5  12   6   13.54    4.31
   5  12   7    0.07    2.38
   5  12   8   -0.86    2.32
   5  12   9   44.68    7.91
   5  13   1    0.95    2.93
   5  13   2    1.19    3.40
   5  13   3    6.33    4.05
   5  13   4    4.46    3.49
   5  13   5    9.97    4.48
   5  13   6   19.28    5.59
   5  13   7    2.23    2.97
   5  14   3    5.62    6.62
   5  14   4    6.66    5.45
  -6  13   1   -1.88    9.66
  -6  13   0    3.65    9.61
  -6  13  -1   -4.36    9.98
  -6  13  -2    7.15   12.82
  -6  12   4   -6.40    9.95
  -6  12   3   12.44   12.15
  -6  12   2   41.76   16.23
  -6  12   1   17.76   11.76
  -6  12   0    7.17   10.46
  -6  12  -2   -1.59   11.66
  -6  12  -4   -4.83   10.39
  -6  11   7   -2.97    9.48
  -6  11   6   -8.20   11.62
  -6  11   5   -0.52    9.04
  -6  11   4    1.43    8.91
  -6  11   3   17.43   14.31
  -6  11   2    5.35    9.82
  -6  11   1   70.23   20.40
  -6  11   0   15.52   12.30
  -6  11  -1    9.74   11.24
  -6  11  -2   -0.46    9.45
  -6  11  -3    1.67    9.16
  -6  11  -4   -4.64    9.29
  -6  11  -5   -4.99    9.81
  -6  10   9   -1.63    9.47
  -6  10   8    6.43    8.67
  -6  10   7   -3.66    9.17
  -6  10   5   -2.85    8.04
  -6  10   3    2.30    8.42
  -6  10   2   24.98   15.72
  -6  10   1   34.47   15.08
  -6  10   0    6.72    9.56
  -6  10  -1    5.97    8.42
  -6  10  -2    0.60    9.94
  -6  10  -3    0.62    7.55
  -6  10  -4   -4.60    7.03
  -6   9  11   -3.11    9.52
  -6   9  10    0.00    8.41
  -6   9   9   10.63   11.91
  -6   9   8   -5.73    8.62
  -6   9   7   -5.09    9.89
  -6   9   6    3.14    9.50
  -6   9   5   -2.50    8.26
  -6   9   4   -1.10    8.10
  -6   9   3   -2.87    7.97
  -6   9   2    3.86    9.34
  -6   9   1   19.34   11.57
  -6   9   0   11.56   10.30
  -6   9  -2   -1.68    8.24
  -6   9  -3    0.69    7.06
  -6   9  -4   -2.57    8.34
  -6   9  -5   -2.67    7.64
  -6   9  -6   -1.19    6.48
  -6   8  12    1.72    9.19
  -6   8  11   -3.87    9.36
  -6   8  10   -1.43    8.54
  -6   8   9    2.36    8.12
  -6   8   8    0.20    9.39
  -6   8   7   -3.90    7.76
  -6   8   6   -3.30    8.62
  -6   8   4    4.10    6.90
  -6   8   3   -0.32    7.71
  -6   8   2    4.84    7.15
  -6   8   1    9.06    7.80
  -6   8   0    5.64    9.34
  -6   8  -2   -3.62    6.45
  -6   8  -3    1.47    6.12
  -6   8  -4   -3.56    7.17
  -6   8  -5    2.82    6.14
   6  -8   5   18.90    5.08
   6  -8   6    4.71    3.36
   6  -8   7    1.90    2.39
  -6   7  14    3.62    8.68
  -6   7  13   -7.09   10.47
  -6   7   9    8.79   10.05
  -6   7   5    6.31    8.12
  -6   7   4    1.48    6.76
  -6   7   3   -0.67    6.31
  -6   7   2    1.62    6.60
  -6   7   1   34.54   14.07
  -6   7  -1   -3.19    7.91
  -6   7  -2    2.19    6.14
  -6   7  -3   -5.90    6.48
   6  -7   3    1.80    3.88
   6  -7   4   54.63    9.72
  -6   7  -4    1.84    6.06
   6  -7   5   28.20    7.04
   6  -7   6   45.15    8.32
   6  -7   7   11.13    4.56
   6  -7   8   -3.85    4.18
  -6   7  -8    0.45    0.82
  -6   6  15   -0.63    8.77
  -6   6  14    6.26   10.93
  -6   6  13    5.54   10.59
  -6   6  12   -1.26    9.02
  -6   6  11   -2.89    8.65
  -6   6  10  -11.20   10.20
  -6   6   9   -0.78    8.54
  -6   6   8    0.29    7.48
  -6   6   7   -3.00    8.81
  -6   6   6    0.50    7.61
  -6   6   5   -3.95    7.65
  -6   6   4   -8.49    9.68
  -6   6   3    2.97    6.18
  -6   6   2   -0.65    6.03
  -6   6   1   11.60    9.31
   6  -6   0   80.35   13.31
  -6   6   0   21.24   12.63
   6  -6   1  463.24   32.32
  -6   6  -1   37.59   17.07
   6  -6   2    1.97    4.82
  -6   6  -3   -1.90    5.82
   6  -6   3    0.97    3.65
   6  -6   4   -2.86    5.88
   6  -6   5   -4.56    7.52
  -6   6  -8   29.99    3.40
   6  -6   9    2.29    5.19
  -6   6  -9    2.82    0.94
  -6   5  16  -12.25   12.20
  -6   5  15    1.07    9.58
  -6   5  14   -1.36    9.72
  -6   5  13    1.66    9.92
  -6   5  12   -1.15    8.16
  -6   5  11   -0.43    7.74
  -6   5  10    1.21    7.58
  -6   5   9    0.17    6.66
  -6   5   8   -5.36    7.95
  -6   5   7   -0.94    6.60
  -6   5   6   -7.22    8.62
  -6   5   5   -4.62    8.11
  -6   5   4    0.93    6.20
  -6   5   3    3.25    7.32
   6  -5  -2    2.08    4.65
   6  -5  -1  107.04   15.75
  -6   5   1   95.45   16.96
  -6   5   0  944.70   50.60
   6  -5   0  997.89   47.93
  -6   5  -1   -1.30    6.26
  -6   5  -3   -5.93    6.94
   6  -5   4   -2.73    5.98
   6  -5   6    0.96    5.37
  -6   5  -7  186.64    7.51
  -6   5  -8    9.40    1.45
   6  -5   9    2.62    5.40
   6  -5  10   -1.62    5.34
  -6   4  16   11.24   12.70
  -6   4  15   -0.33   11.33
  -6   4  14    0.95   10.29
  -6   4  12    2.96    9.36
  -6   4  11   -3.59    8.57
  -6   4  10   -0.89    7.62
  -6   4   9   -2.62   11.21
  -6   4   8   -3.02    7.46
  -6   4   7    0.99    6.22
  -6   4   6   -0.30    6.21
  -6   4   5   -3.22    7.30
   6  -4  -4  281.03   25.48
  -6   4   4  -13.33   10.69
  -6   4   3   -3.14    7.81
   6  -4  -3   22.33    7.28
   6  -4  -2    3.27    5.24
  -6   4   1    6.16    6.72
   6  -4  -1   -1.67    5.05
   6  -4   0  123.23   20.00
  -6   4   0  178.78   21.42
  -6   4  -1  377.87   32.56
   6  -4   1  453.12   33.61
  -6   4  -2    3.81    7.16
   6  -4   2   -0.51    4.96
   6  -4   4   -1.00    6.24
   6  -4   5   -3.17    4.90
   6  -4   6   -0.41    4.52
   6  -4   7    1.69    5.25
  -6   4  -7  275.90    6.80
   6  -4   8    0.50    4.63
   6  -4   9    2.08    5.43
   6  -4  10   -1.21    4.83
   6  -4  11    2.96    4.93
   6  -4  12    0.17    5.05
  -6   3  16   -2.94    9.32
  -6   3  15    4.28   12.31
  -6   3  14   18.78   13.21
  -6   3  13   -7.97    9.94
  -6   3  12    0.61    8.05
  -6   3  11    1.29    8.18
  -6   3  10   -0.04    8.12
  -6   3   9    3.40    8.55
  -6   3   8   -2.89    7.57
  -6   3   7    3.74    8.30
  -6   3   6    0.94    7.02
   6  -3  -6    3.31    4.70
  -6   3   5    1.97    7.07
   6  -3  -5  -16.31    8.25
  -6   3   4  -13.16    8.99
   6  -3  -3    0.55    4.50
   6  -3  -2   -9.29    8.00
  -6   3   1   -2.03    5.32
   6  -3  -1   -0.64    4.97
  -6   3   0   74.45   14.30
   6  -3   0   52.50   15.97
  -6   3  -1  212.16   23.38
   6  -3   1  249.69   25.09
   6  -3   2   -4.88    5.54
   6  -3   3   -4.79    5.93
   6  -3   4    2.06    4.89
   6  -3   5    0.42    4.43
   6  -3   7   -0.32    5.51
   6  -3   8   -1.08    6.19
   6  -3  10    1.90    5.33
   6  -3  13    5.05    6.12
  -6   2  15   10.34    9.96
  -6   2  15    2.55    2.53
  -6   2  14   12.78   10.02
  -6   2  14    4.22    3.59
  -6   2  13   -1.04    1.84
  -6   2  13   -2.13    7.36
  -6   2  12    0.34    0.81
  -6   2  12  -11.23   10.46
  -6   2  11    5.32    7.45
  -6   2  10    0.82    6.83
  -6   2   8    1.74    6.45
   6  -2  -7    1.55    4.41
  -6   2   7    1.40    6.24
  -6   2   6   -1.74    5.70
   6  -2  -6   -2.37    4.78
  -6   2   5    1.85    5.96
   6  -2  -5   -3.87    6.21
  -6   2   4   -5.96    7.04
   6  -2  -4   -4.03    5.98
  -6   2   3   -5.52    7.97
   6  -2  -3    2.44    6.05
  -6   2   2    0.39    5.22
   6  -2  -2   -4.11    5.82
   6  -2  -1   -1.99    6.07
   6  -2   0   14.60    7.63
   6  -2   1    2.24    5.85
   6  -2   3   -4.10    6.09
  -6   2  -4   41.32    2.63
   6  -2   5    3.90    5.29
  -6   2  -5  100.44    2.63
   6  -2   6    3.38    4.73
   6  -2   7    0.67    5.64
   6  -2   8    2.76    5.11
   6  -2   9   -0.37    5.37
   6  -2  13   -1.66    6.06
   6  -2  14   -2.56    6.23
  -6   1  15   28.50    6.44
  -6   1  14   28.40    6.57
  -6   1  13    9.63    4.12
  -6   1  12    0.85    7.81
  -6   1  12    5.94    3.00
  -6   1  11    0.96    1.03
  -6   1  11   -0.70    1.76
  -6   1  11   -6.66    7.23
  -6   1  10    6.52    3.44
   6  -1  -9   24.22    6.84
  -6   1   9   11.97    4.29
  -6   1   8    1.89    1.67
   6  -1  -8    0.94    3.99
  -6   1   7   -0.04    0.86
   6  -1  -7   -0.55    3.85
   6  -1  -6   -0.09    5.15
  -6   1   6    5.91   11.31
  -6   1   5    1.37    6.29
   6  -1  -5    0.70    5.07
   6  -1  -4  -11.01    8.22
   6  -1  -3    2.67    5.66
  -6   1   3   -0.22    5.89
   6  -1  -2    1.89    4.80
   6  -1  -1   -3.03    6.01
  -6   1   1   26.03    3.66
  -6   1   0  170.32    9.83
  -6   1  -1  276.16    9.93
   6  -1   1   14.60    8.28
   6  -1   2    7.45    6.29
  -6   1  -2   33.15    3.01
   6  -1   3    0.16    5.07
  -6   1  -3   33.99    2.60
   6  -1   4   -2.32    4.50
  -6   1  -4    4.37    0.88
   6  -1   6    0.09    5.08
  -6   0  15   21.93    5.25
  -6   0  14    3.41    2.22
  -6   0  13   10.22    3.68
  -6   0  12    0.52    1.32
  -6   0  12    1.15    1.15
  -6   0  11   11.42    3.57
   6   0 -11    1.79    2.57
  -6   0  11    3.34    1.54
  -6   0  10  109.27    7.84
  -6   0  10   95.24    9.99
  -6   0   9    1.36    1.42
   6   0  -9  -12.04    6.61
  -6   0   9    8.27    2.28
  -6   0   8  117.33   10.19
   6   0  -8   -6.90    5.64
   6   0  -7    0.10    5.37
  -6   0   7    2.86    1.87
  -6   0   6   15.79    3.47
  -6   0   5  346.70   15.54
  -6   0   4   13.26    3.09
   6   0  -4    0.06    5.21
   6   0  -3   -4.48    5.92
  -6   0   3  134.46    8.77
   6   0  -2   -5.90    6.46
  -6   0   2  116.73    7.59
  -6   0   1  131.30    7.51
  -6   0   0 1244.98   20.90
  -6   0  -1  629.15   14.83
  -6   0  -2  300.70    9.39
  -6   0  -3  649.60   12.81
  -6  -1  15    1.70    1.56
  -6  -1  14   95.05   11.11
  -6  -1  13   33.52    6.56
  -6  -1  12    4.94    2.23
  -6  -1  12   27.61    5.67
  -6  -1  11   20.74    4.00
   6   1 -11   -1.06    2.49
  -6  -1  11   16.52    4.11
   6   1 -10    0.17    3.22
  -6  -1  10    0.15    0.97
  -6  -1  10    0.98    1.24
  -6  -1   9   15.64    2.96
   6   1  -9    2.09    4.74
  -6  -1   9   29.03    4.95
  -6  -1   8   84.97    7.28
  -6  -1   8   57.09    6.66
  -6  -1   7    0.21    0.91
   6   1  -7   -0.37    5.81
  -6  -1   7    1.16    1.02
  -6  -1   6    4.80    1.78
   6   1  -5   -2.57    4.93
  -6  -1   5    7.61    2.29
   6   1  -4    4.24    5.54
  -6  -1   4  131.97    8.78
   6   1  -3   -2.15    6.13
  -6  -1   3  278.92   12.86
  -6  -1   2    5.04    1.66
  -6  -1   1  135.55    7.87
  -6  -1   0   27.97    3.70
  -6  -1  -1   36.72    4.14
  -6  -1  -2  111.19    6.65
   6   1   3    0.50    0.66
   6   1   4   20.33    2.40
   6   1   5   14.37    1.82
   6   1   6    7.46    1.18
   6   1   7  379.96    6.98
   6   1   8   53.02    2.37
   6   1   9   18.33    1.22
   6   1  13    2.61    0.88
   6   1  14    5.48    1.16
   6   1  18   24.65    4.94
  -6  -2  14   42.35    7.72
  -6  -2  13   11.03    3.80
  -6  -2  12   33.27    5.56
  -6  -2  12   40.04    6.82
  -6  -2  11    1.54    1.61
  -6  -2  11    3.58    2.15
  -6  -2  10    0.44    1.23
   6   2 -10    2.00    4.19
  -6  -2  10    0.42    1.30
   6   2  -9   -2.21    4.41
  -6  -2   9   48.42    6.71
  -6  -2   9   49.58    5.81
   6   2  -8    3.40    6.31
  -6  -2   8   14.19    3.59
  -6  -2   8    6.81    2.26
  -6  -2   7   57.93    5.99
  -6  -2   7   47.60    6.20
  -6  -2   6    1.02    1.02
   6   2  -6    0.72    5.05
  -6  -2   6    4.91    2.07
  -6  -2   5   30.75    4.63
   6   2  -5    0.80    4.75
  -6  -2   5   37.76    5.22
  -6  -2   4  243.77   14.27
  -6  -2   4  185.61   11.40
   6   2  -3    2.67    5.46
  -6  -2   3   19.08    3.69
   6   2  -2    0.74    4.81
  -6  -2   2  275.06   12.87
  -6  -2   1   42.95    4.95
   6   2  -1    6.21    2.31
  -6  -2   0   15.67    2.92
   6   2   0   49.98    5.38
   6   2   1  341.91   12.49
   6   2   2   42.49    4.10
   6   2   3   95.14    5.54
   6   2   4   49.01    3.96
   6   2   5    1.45    0.72
   6   2   6  163.24    6.81
   6   2   7  133.53    5.88
   6   2   8   59.15    3.92
  -6  -2 -15    0.79    1.04
  -6  -2 -16   23.11    3.52
   6   2  18    1.45    2.12
   6   2  19   18.48    4.84
  -6  -3  14    6.86    3.61
  -6  -3  13   40.03    8.01
  -6  -3  12   12.21    3.78
  -6  -3  12    9.08    3.64
  -6  -3  11    3.86    2.21
  -6  -3  11    6.66    2.97
  -6  -3  10    2.75    1.91
  -6  -3  10    1.18    1.47
   6   3  -9   -3.74    5.18
  -6  -3   9    0.28    1.28
  -6  -3   9    1.28    1.65
  -6  -3   8  105.64   10.30
  -6  -3   8  102.03    8.89
  -6  -3   7   99.81    8.77
  -6  -3   7   78.80    8.67
   6   3  -6   -1.35    5.19
  -6  -3   6    1.23    1.32
  -6  -3   6    2.25    1.66
   6   3  -5    1.69    5.71
  -6  -3   5    1.55    1.56
  -6  -3   5    0.14    0.94
   6   3  -4    2.32    5.45
  -6  -3   4    0.40    0.95
  -6  -3   4    0.66    1.11
   6   3  -3  138.06   12.28
  -6  -3   3   83.40    7.67
  -6  -3   3   85.44    7.78
   6   3  -2  121.38    9.11
  -6  -3   2  171.53   10.87
  -6  -3   2  189.05   11.70
  -6  -3   1   25.92    4.20
   6   3  -1   46.15    5.31
  -6  -3   1   27.97    4.40
  -6  -3   0    0.56    2.00
   6   3   0    3.06    1.43
   6   3   1   20.09    3.11
   6   3   2   77.68    5.90
   6   3   3  115.11    6.92
   6   3   4    0.97    0.76
   6   3   5    6.49    1.65
   6   3   6   11.80    2.26
  -6  -3 -11  119.57   11.68
  -6  -3 -12   33.87    4.74
  -6  -3 -13  101.25    8.19
  -6  -3 -14    4.48    1.69
  -6  -3 -15    4.38    1.70
  -6  -3 -16   13.72    2.84
   6   3  18   67.07    8.74
   6   3  19   10.23    4.00
  -6  -4  13    9.71    4.04
  -6  -4  12    1.71    1.96
  -6  -4  12    3.26    2.51
  -6  -4  11    9.74    3.73
  -6  -4  11   11.47    3.86
  -6  -4  10   -0.15    1.53
  -6  -4  10    0.29    1.46
  -6  -4   9   25.88    5.34
  -6  -4   9   14.55    4.11
  -6  -4   8   56.46    7.50
  -6  -4   8   48.38    7.08
   6   4  -7    1.82    5.62
  -6  -4   7    3.79    2.51
  -6  -4   7    2.09    1.93
   6   4  -6    3.16    5.44
  -6  -4   6    4.01    2.33
  -6  -4   6    4.95    2.17
   6   4  -5   -0.97    5.53
  -6  -4   5    2.47    1.68
  -6  -4   5    3.39    1.86
  -6  -4   4   60.29    6.98
  -6  -4   4   62.62    7.57
   6   4  -3  202.81   12.63
  -6  -4   3  215.64   12.97
   6   4  -2   14.26    3.06
  -6  -4   2    1.05    1.27
  -6  -4   1   97.54    8.58
   6   4  -1   69.87    6.52
  -6  -4   0   16.69    3.58
   6   4   0    7.65    2.42
  -6  -4  -1   30.57    4.61
   6   4   1   38.99    4.69
  -6  -4  -2  283.49   14.58
   6   4   2  296.58   13.45
  -6  -4  -3    4.04    2.11
   6   4   3    3.12    1.53
   6   4   4   56.87    5.59
  -6  -4  -4   81.59    7.87
   6   4   5   18.41    3.14
  -6  -4  -5   40.42    5.58
  -6  -4  -6    6.25    2.23
  -6  -4  -7  249.68   13.62
  -6  -4  -8   55.37    6.37
  -6  -4  -9   78.72    7.51
  -6  -4 -10   19.49    3.60
  -6  -4 -11    0.24    0.88
  -6  -4 -12   83.47    7.35
  -6  -4 -13   28.04    4.28
  -6  -4 -14   20.65    3.75
  -6  -4 -15   47.85    5.67
   6   4  18   12.62    4.28
   6   4  19    2.17    2.82
   6   4  20    7.01    3.58
  -6  -5  11    0.23    1.83
  -6  -5  10    7.29    3.16
  -6  -5   9   34.11    6.17
  -6  -5   8    2.43    2.28
  -6  -5   7  110.59   10.45
   6   5  -7    0.29    5.57
   6   5  -6   -0.90    6.74
  -6  -5   6    5.82    2.78
   6   5  -5    1.95    5.89
  -6  -5   5    5.86    2.79
  -6  -5   4   55.79    7.31
  -6  -5   3    5.37    2.48
  -6  -5   2  366.91   17.61
  -6  -5   1  109.44    9.75
   6   5  -1   76.61    7.57
   6   5   0    3.54    1.72
  -6  -5   0    5.92    2.34
  -6  -5  -1  123.23   10.06
   6   5   1  156.73   10.80
  -6  -5  -2   14.38    3.53
   6   5   2   13.11    3.07
  -6  -5  -3  357.30   16.32
   6   5   3  331.89   14.70
   6   5   4  197.34   11.33
  -6  -5  -4  246.55   13.16
  -6  -5  -5    4.15    1.73
  -6  -5  -6    0.14    0.83
  -6  -5  -7    5.53    2.04
  -6  -5  -8  163.90   10.76
  -6  -5  -9  253.33   14.00
  -6  -5 -10    1.11    1.39
  -6  -5 -11    2.60    1.68
  -6  -5 -12    1.46    1.46
  -6  -5 -13   10.88    3.06
  -6  -5 -14  190.78   12.35
  -6  -5 -15    2.25    1.73
   6   5  17    7.60    3.98
   6   5  18    2.07    3.18
   6   5  19   40.29    7.30
   6   5  20    3.32    3.37
  -6  -6  11    9.94    4.55
  -6  -6  10    7.52    3.22
  -6  -6   9    4.19    2.85
  -6  -6   8   13.13    4.10
  -6  -6   7   29.62    6.09
   6   6  -6    1.70    6.01
  -6  -6   6    4.09    2.60
  -6  -6   5    0.71    1.50
  -6  -6   4    1.26    1.35
  -6  -6   3  121.19   11.56
  -6  -6   2  169.81   13.61
  -6  -6   1   13.41    3.83
  -6  -6   0   51.97    7.17
  -6  -6  -1    0.93    1.16
   6   6   2   83.03    7.80
  -6  -6  -2   86.97    9.06
  -6  -6  -3  232.55   14.59
   6   6   3  195.57   12.54
   6   6   4    4.73    2.10
  -6  -6  -4    4.82    2.25
  -6  -6  -5   49.72    6.74
  -6  -6  -6    0.54    1.41
  -6  -6  -7   16.14    3.88
  -6  -6  -8  303.46   16.34
  -6  -6  -9    2.20    1.84
  -6  -6 -10   45.62    6.31
  -6  -6 -11    1.21    1.51
  -6  -6 -12    0.34    1.16
  -6  -6 -13   82.32    8.91
  -6  -6 -14    6.24    2.37
  -6  -6 -15   25.78    4.81
   6   6  16    1.34    2.86
   6   6  17    2.23    2.79
   6   6  18   27.03    6.32
   6   6  19    2.45    3.24
  -6  -7  11   24.75    6.42
  -6  -7  10   -0.53    1.90
  -6  -7   9    0.17    1.59
  -6  -7   8   22.72    5.77
  -6  -7   7   21.94    5.50
  -6  -7   6   42.91    7.54
   6   7  -5    0.87    6.97
  -6  -7   5    2.42    2.28
  -6  -7   4    4.34    2.83
  -6  -7   3   73.90    9.61
  -6  -7   2   15.87    4.36
  -6  -7   1  163.26   13.31
  -6  -7   0   30.39    6.14
  -6  -7  -1    7.07    3.32
  -6  -7  -2   76.05    9.59
  -6  -7  -3    0.30    1.31
  -6  -7  -4   54.78    8.01
  -6  -7  -5   64.18    8.53
  -6  -7  -6    4.27    2.47
  -6  -7  -7   67.83    8.88
  -6  -7  -8    4.34    2.46
  -6  -7  -9  212.35   15.10
  -6  -7 -10   88.49    9.86
  -6  -7 -11   -0.64    1.64
  -6  -7 -12    3.74    2.36
  -6  -7 -13    4.60    2.75
  -6  -7 -14   50.81    7.28
   6   7  15   51.20    8.35
  -6  -7 -15   47.65    6.63
   6   7  16   -1.56    2.76
   6   7  17    3.33    3.18
   6   7  18    6.57    3.87
  -6  -8   9    2.17    2.51
  -6  -8   8    0.91    1.95
  -6  -8   7   32.05    6.50
  -6  -8   6   20.50    5.67
  -6  -8   5   13.74    4.81
  -6  -8   4    3.84    2.77
  -6  -8   3    1.86    2.34
  -6  -8   2   21.21    5.67
  -6  -8   1   21.93    5.41
  -6  -8   0   15.16    4.60
  -6  -8  -1    0.08    1.41
  -6  -8  -2    0.67    1.64
  -6  -8  -3   76.00    9.88
  -6  -8  -4   36.66    6.74
  -6  -8  -5   31.51    6.15
  -6  -8  -6    1.59    1.99
  -6  -8  -7    0.32    1.50
  -6  -8  -8   24.02    5.60
  -6  -8  -9   62.74    8.72
  -6  -8 -10    0.48    1.63
  -6  -8 -11    5.06    2.69
  -6  -8 -12   11.23    3.83
  -6  -8 -13   31.45    6.00
   6   8  14  121.06   12.55
  -6  -8 -14  104.14   10.81
  -6  -8 -15    0.55    1.47
   6   8  15    0.74    2.99
   6   8  16    8.74    4.29
  -6  -9   8    8.02    4.35
  -6  -9   7   11.31    4.52
  -6  -9   6   16.76    5.50
  -6  -9   5    9.19    4.02
  -6  -9   4   -0.27    1.87
  -6  -9   3   12.39    5.20
  -6  -9   2   49.33    8.88
  -6  -9   1   18.01    5.30
  -6  -9   0   94.93   11.70
  -6  -9  -1    1.89    2.20
  -6  -9  -2   35.43    8.29
  -6  -9  -3   35.66    7.24
  -6  -9  -4    2.58    2.59
  -6  -9  -5   99.01   11.85
  -6  -9  -6   25.73    6.05
  -6  -9  -7    0.51    1.61
  -6  -9  -8   56.67    8.75
  -6  -9  -9    6.15    3.13
  -6  -9 -10   45.55    7.60
  -6  -9 -11    4.65    3.07
  -6  -9 -12   -0.44    1.67
   6   9  13   36.87    7.34
  -6  -9 -13   25.02    5.91
  -6  -9 -14    0.28    1.50
   6   9  14   -1.02    2.73
   6   9  15   56.72    9.52
  -6  -9 -15   43.06    7.43
  -6 -10   6   26.73    7.17
  -6 -10   5    1.76    2.54
  -6 -10   4    0.79    1.81
  -6 -10   3    9.32    4.35
  -6 -10   2    8.96    4.07
  -6 -10   1  104.85   13.00
  -6 -10   0    7.60    3.92
  -6 -10  -1    9.21    4.16
  -6 -10  -2    0.58    1.86
  -6 -10  -3    0.44    2.13
  -6 -10  -4   67.56   10.20
  -6 -10  -5   12.86    4.52
  -6 -10  -6   10.65    4.17
  -6 -10  -7    3.24    2.79
  -6 -10  -8    0.37    1.71
  -6 -10  -9   88.14   11.60
   6  10  10   30.76    7.06
  -6 -10 -10   35.01    7.23
  -6 -10 -11    2.46    2.12
   6  10  11    1.82    2.62
  -6 -10 -12    1.26    1.89
   6  10  12    1.02    3.55
  -6 -10 -13    0.50    1.75
   6  10  13    0.94    3.46
  -6 -10 -14   14.29    4.90
  -6 -11   3   -0.04    2.01
  -6 -11   2   30.44    7.81
  -6 -11   1   19.61    6.24
   6  11  -1   17.61    4.78
   6  11   0   38.43    6.23
  -6 -11   0   48.44    9.30
  -6 -11  -1   21.04    6.06
   6  11   1   17.59    4.59
  -6 -11  -2   -0.06    1.75
   6  11   2    0.21    2.76
   6  11   3   20.35    5.11
  -6 -11  -3   22.35    6.30
   6  11   4   28.13    5.88
  -6 -11  -4   27.37    6.49
   6  11   5   42.16    8.28
  -6 -11  -5   39.22    7.67
   6  11   6   50.21    7.97
  -6 -11  -6   44.14    8.10
  -6 -11  -7    1.05    2.09
   6  11   7   -2.35    2.83
  -6 -11  -8    8.42    3.88
   6  11   8   12.23    4.60
   6  11   9   26.09    6.47
  -6 -11  -9   24.53    6.36
  -6 -11 -10   12.59    4.88
   6  11  10   16.20    5.70
  -6 -11 -11   24.06    6.22
   6  11  11   34.33    7.40
  -6 -11 -12   -0.24    1.75
  -6 -11 -13    0.63    2.40
   6  12   0   38.33    6.66
   6  12   1    0.44    2.69
   6  12   2    1.46    2.99
   6  12   3    4.63    3.20
  -6 -12  -4    5.44    3.71
   6  12   4    6.58    3.74
   6  12   5   42.48    7.62
  -6 -12  -5   40.26    8.79
  -6 -12  -6    5.14    3.29
   6  12   6    1.14    2.73
  -6 -12  -7    1.45    2.19
   6  12   7    2.99    3.31
  -6 -12  -8    5.51    3.79
   6  12   8    6.76    4.15
  -6 -12  -9    0.62    1.74
  -6 -12 -10   52.73    9.95
  -6 -12 -11    7.56    4.18
   6  13   2    2.12    3.64
   6  13   3    0.41    2.52
   6  13   4   14.80    4.36
   6  13   5    1.34    2.69
  -7  12   2   39.50   17.64
  -7  12   0   -0.09   10.73
  -7  12  -1   -3.70   10.79
  -7  12  -2   10.13   11.16
  -7  11   4   13.36   11.62
  -7  11   3    0.72    8.87
  -7  11   2   37.30   17.42
  -7  11   1    3.76   10.55
  -7  11   0   18.72   14.98
  -7  11  -2    3.62   11.14
  -7  11  -3   -6.05   10.59
  -7  11  -4    0.28   10.47
  -7  11  -5    7.51   11.58
  -7  10   7   -6.27   11.27
  -7  10   6  -13.44   11.20
  -7  10   5    2.68    8.67
  -7  10   4   -3.79    8.47
  -7  10   3    2.53    8.57
  -7  10   2    9.00   11.00
  -7  10   1    8.62   14.06
  -7  10   0   -5.07   10.52
  -7  10  -1    3.33   10.08
  -7  10  -2   -0.86    9.54
  -7   9   9   -5.63    9.47
  -7   9   8   -1.11   10.02
  -7   9   7   -2.49   10.48
  -7   9   6   -3.56   10.74
  -7   9   5    5.04    9.25
  -7   9   4    7.72    9.27
  -7   9   3    5.40    8.50
  -7   9   2    7.36   11.09
  -7   9   1    9.10    9.58
  -7   9   0   10.02   11.27
  -7   9  -1    1.99    8.02
  -7   9  -2    3.46    9.55
  -7   9  -3   -0.84    7.69
  -7   9  -4   -3.06    8.15
  -7   8  11    3.04    8.86
  -7   8  10   -1.96    8.62
  -7   8   9    2.37    8.35
  -7   8   8    1.84    9.47
  -7   8   7    1.93    8.59
  -7   8   6   -7.92   10.28
  -7   8   5    0.28    7.48
  -7   8   4    4.01    8.92
  -7   8   3    5.49    8.12
  -7   8   2    2.38    8.28
  -7   8   0    3.97    9.24
  -7   8  -1   -0.29    9.23
  -7   8  -2   -2.24    6.73
  -7   8  -3    1.87    6.48
  -7   8  -4    3.88    7.01
  -7   8  -5    3.50    7.30
  -7   7  12    0.90    9.36
  -7   7  11    0.74    8.98
  -7   7  10    0.49    8.10
  -7   7   9    0.10    8.67
  -7   7   8    6.54    9.31
  -7   7   7   -2.05    8.26
  -7   7   6   -5.96    8.21
  -7   7   5    6.61   23.04
  -7   7   4    0.95    7.72
  -7   7   3   -2.92    8.78
  -7   7   2    1.35    7.57
  -7   7   1    3.89    7.45
  -7   7   0   50.64   19.72
  -7   7  -1   -3.70    6.87
  -7   7  -2   -2.22    7.39
  -7   7  -3    3.10    7.57
  -7   7  -4    2.40    7.64
  -7   6  13   21.66   14.22
  -7   6  12   -7.52   10.28
  -7   6  11   -4.11    9.43
  -7   6  10    6.42    9.27
  -7   6   9    2.29    8.20
  -7   6   8   -3.29    8.94
  -7   6   7    7.81    9.68
  -7   6   6   -0.88    8.38
  -7   6   5    1.67    7.96
  -7   6   4  -11.64   11.17
  -7   6   3   -5.53   10.42
  -7   6   2    2.11    7.16
  -7   6   1   39.57   14.38
  -7   6   0   43.54   16.80
  -7   6  -3   -1.10    6.54
  -7   6  -4   -6.31    7.93
   7  -6   5    3.07    6.39
   7  -6   7   -1.71    5.44
  -7   6  -8   11.55    2.01
   7  -6   8    1.51    5.33
   7  -6   9    5.42    5.67
  -7   5  13    3.77   11.12
  -7   5  11    5.97    9.09
  -7   5  10   -2.82    8.42
  -7   5   8   -4.27    9.00
  -7   5   5    2.51    8.43
  -7   5   4    2.23    7.41
  -7   5   2   -1.65    7.12
  -7   5   0   83.07   17.10
  -7   5  -1  455.59   40.90
  -7   5  -2   -0.79    5.90
  -7   5  -3   -5.29    8.40
   7  -5   4    1.05    6.67
   7  -5   6  -10.99    8.55
   7  -5   7   -2.18    6.25
   7  -5   8    0.60    6.94
  -7   5  -8   15.10    1.41
   7  -5   9    3.00    6.10
   7  -5  10    0.32    7.01
  -7   4  16    9.14   13.68
  -7   4  15   -0.24   12.39
  -7   4  14    4.74   11.88
  -7   4  13   12.11   12.06
  -7   4  10   -6.20   10.56
  -7   4   9   -8.83   10.11
  -7   4   8   -3.70    9.18
  -7   4   5  -14.27   10.82
  -7   4   3   -1.93    8.26
  -7   4   2   -0.59    6.03
  -7   4   1   -2.71    6.49
  -7   4   0  166.52   23.55
   7  -4   0  182.63   26.53
  -7   4  -1    9.73    8.54
   7  -4   1    4.11    6.28
   7  -4   2   39.04   13.88
   7  -4   3   -2.44    6.28
   7  -4   4    2.62    5.16
   7  -4   5    5.65    5.90
   7  -4   6    1.73    5.17
   7  -4   7   -0.68    5.18
   7  -4   8   -0.47    5.09
   7  -4   9   -1.32    5.26
   7  -4  10   -2.71    5.28
   7  -4  11    1.25    5.76
   7  -4  12   -3.06    6.51
  -7   3  15    1.33   11.85
  -7   3  14   -0.47    9.73
  -7   3  14    0.00    1.77
  -7   3  13   -9.67   10.57
  -7   3  10   -6.78    8.65
  -7   3   9    3.48    8.46
  -7   3   8    2.48    7.05
  -7   3   5    1.66    7.41
  -7   3   4  -12.93   10.10
  -7   3   3   -5.71    8.41
  -7   3   2   -2.33    5.82
   7  -3  -2   -6.32    7.63
   7  -3  -1   -5.21    6.48
  -7   3   0    7.81    7.53
   7  -3   0   -1.66    5.33
   7  -3   1  108.37   18.17
   7  -3   2    4.61    7.73
   7  -3   3   -0.94    4.98
   7  -3   4   -0.42    4.73
  -7   3  -5    3.49    0.87
   7  -3   5   -2.08    5.88
   7  -3   6   -4.73    5.94
   7  -3   8   -1.45    6.13
   7  -3   9    3.25    6.54
   7  -3  11    0.68    6.42
   7  -3  12   -0.27    6.81
   7  -3  13   -0.14    6.78
  -7   2  14   20.74   16.38
  -7   2  14    1.11    1.88
  -7   2  13   -8.66   10.14
  -7   2  13    7.58    4.14
  -7   2  12    0.85    1.92
  -7   2  11    0.73    1.74
  -7   2  10   -0.05    8.07
  -7   2  10    2.80    2.14
  -7   2   8    1.76    6.53
  -7   2   4   -7.35    7.64
   7  -2  -4  -10.54    8.41
  -7   2   3   -9.16    7.64
   7  -2  -3   -3.09    5.52
  -7   2   2   -1.23    6.27
   7  -2  -2   -0.81    5.05
   7  -2  -1   -4.79    6.77
   7  -2   0    3.20    5.50
   7  -2   1   55.06   14.69
   7  -2   2    0.40    5.38
  -7   2  -2   31.62    3.92
  -7   2  -3    5.75    1.35
   7  -2   3    3.96    6.60
   7  -2   4   -4.99    7.05
  -7   2  -4    0.24    0.38
  -7   2  -5   87.05    3.38
   7  -2   7    3.11    5.48
   7  -2   8   -3.27    5.07
   7  -2   9    2.42    7.05
   7  -2  10    2.24    5.97
  -7   1  14   30.62    6.66
  -7   1  13    0.98    1.61
  -7   1  12  -10.41    9.60
  -7   1  12    1.70    2.16
  -7   1  11    1.05    1.23
  -7   1  11    3.17    2.57
  -7   1  10    1.32    1.78
  -7   1   9   34.95    6.74
  -7   1   8   15.44    4.42
  -7   1   7    0.30    1.59
  -7   1   7    4.20    7.48
  -7   1   6    4.12    6.92
  -7   1   6   14.43    4.14
  -7   1   5    5.59    6.52
  -7   1   5   11.60    3.50
  -7   1   4  120.00   10.51
   7  -1  -4    2.72    6.62
  -7   1   3  195.69   12.85
   7  -1  -3   -4.96    5.16
   7  -1  -2    1.89    4.71
  -7   1   2    2.21    1.44
  -7   1   1  122.24    8.27
   7  -1  -1   -1.53    5.72
  -7   1   0  114.49    7.37
   7  -1   1    6.20    7.05
  -7   1  -1   98.27    6.19
   7  -1   2    8.85    6.73
  -7   1  -2  195.66    7.68
  -7   1  -3    7.36    1.42
   7  -1   3   -6.07   10.92
   7  -1   4    3.05    5.22
  -7   1  -4    3.38    0.97
   7  -1   6    8.53    6.00
  -7   0  14   22.11    5.35
  -7   0  13    6.33    2.93
  -7   0  12    4.75    2.50
  -7   0  11    1.47    1.67
  -7   0  11    2.09    1.44
  -7   0  10   22.83    3.99
  -7   0  10   46.37    6.95
  -7   0   9  120.06    9.71
  -7   0   9   94.43    9.46
  -7   0   8    6.16    2.44
  -7   0   7   42.49    5.99
  -7   0   6    0.87    1.09
   7   0  -6   -1.95    6.48
  -7   0   5   55.05    6.27
   7   0  -4    0.82    4.75
  -7   0   4  234.24   12.17
   7   0  -3    1.75    5.20
  -7   0   3   17.47    3.32
   7   0  -2    3.19    5.48
  -7   0   2  122.26    7.93
   7   0  -1   -0.35    5.57
  -7   0   1    0.79    0.73
   7   0   0   -1.36    5.78
  -7   0   0  140.88    8.16
  -7   0  -1  504.72   14.01
  -7   0  -2  278.79   10.61
  -7   0  -3  186.81    7.71
   7   0   4   -1.17   10.57
  -7  -1  14   -0.11    1.56
  -7  -1  13   67.93    9.31
  -7  -1  12    9.58    3.58
  -7  -1  11    1.64    1.58
  -7  -1  11    0.07    1.29
  -7  -1  10    1.37    1.55
  -7  -1  10   -0.35    0.99
  -7  -1   9    0.42    1.15
  -7  -1   9    4.16    1.94
  -7  -1   8  127.26   10.00
  -7  -1   8  131.35   10.92
  -7  -1   7   62.05    7.59
  -7  -1   7   31.35    5.22
   7   1  -6   -2.66    5.87
  -7  -1   6    2.95    1.67
   7   1  -5   -1.20    5.08
  -7  -1   5   42.70    5.84
   7   1  -4    1.21    5.07
  -7  -1   4    9.67    2.86
  -7  -1   3  111.98    8.42
   7   1  -2   -1.39    6.22
  -7  -1   2  219.39   11.21
   7   1  -1   13.08    8.18
  -7  -1   1   29.98    4.05
  -7  -1   0    1.06    1.13
  -7  -1  -1  108.69    7.68
  -7  -1  -2   37.72    4.25
   7   1   2   42.66   17.54
  -7  -2  13   10.58    4.12
  -7  -2  12    5.75    2.88
  -7  -2  11   10.49    3.71
  -7  -2  11   15.04    4.16
  -7  -2  10    0.25    1.15
  -7  -2  10    0.44    1.33
  -7  -2   9   23.37    4.35
   7   2  -9   -0.52    5.38
  -7  -2   9   37.56    6.87
  -7  -2   8   58.55    6.46
  -7  -2   8   48.07    6.81
  -7  -2   7    2.21    1.63
   7   2  -7    2.44    5.77
  -7  -2   7    0.08    0.98
  -7  -2   6    9.03    2.91
   7   2  -6   -2.90    5.55
  -7  -2   6   14.30    3.68
  -7  -2   5    2.83    1.75
   7   2  -5   -1.05    5.47
  -7  -2   5    2.38    1.61
  -7  -2   4   68.52    7.59
   7   2  -3   -5.02    6.52
  -7  -2   3  195.58   11.82
   7   2  -2    1.68    5.06
  -7  -2   2    0.72    0.99
  -7  -2   1  205.22   11.20
  -7  -2   0   20.01    3.57
   7   2   0  206.63   25.70
  -7  -2  -1   21.07    3.80
   7   2   1   91.21    8.03
   7   2   2  173.85    9.94
   7   2   3    1.44    0.92
   7   2   4   34.58    3.65
   7   2   5   11.07    1.95
   7   2   6    8.94    1.65
   7   2   7  461.12   11.41
   7   2   8  117.13    5.23
   7   2   9   89.89    4.48
   7   2  10  107.54    4.80
   7   2  11    1.19    0.59
   7   2  12   30.23    2.27
  -7  -2 -16    1.32    1.53
  -7  -3  13    3.69    2.96
  -7  -3  12   30.35    6.99
  -7  -3  11    2.24    1.97
  -7  -3  11    2.53    2.28
  -7  -3  10    1.55    1.82
  -7  -3  10    0.53    1.37
  -7  -3   9   19.39    4.40
  -7  -3   9   23.77    5.43
  -7  -3   8    4.79    2.61
  -7  -3   8    0.91    1.37
  -7  -3   7  149.08   11.21
  -7  -3   7  148.85   13.00
  -7  -3   6   15.99    3.60
   7   3  -6    3.02    5.59
  -7  -3   6   13.24    3.96
   7   3  -5   -1.67    5.68
  -7  -3   5    0.62    1.40
  -7  -3   5    0.40    1.41
  -7  -3   4    7.23    2.42
   7   3  -4   -0.70    5.58
  -7  -3   4    8.95    2.83
  -7  -3   3    9.36    3.03
   7   3  -3   -0.51    5.82
  -7  -3   3    6.15    2.35
  -7  -3   2  163.48   11.21
   7   3  -2  137.90   10.46
  -7  -3   2  154.34   11.07
  -7  -3   1   54.33    6.47
   7   3  -1   16.43    3.91
  -7  -3   1   82.34    9.98
   7   3   0   -0.02    0.71
   7   3   1   52.97    5.56
   7   3   2   11.46    2.44
   7   3   3   61.15    5.26
   7   3   4   38.69    4.22
   7   3   5    2.53    1.06
   7   3   6   12.94    2.50
   7   3   7   60.30    4.91
   7   3   8   42.58    3.93
   7   3   9   87.47    5.92
  -7  -3 -13    1.11    1.32
  -7  -3 -14   58.18    6.76
  -7  -3 -15    7.22    2.40
  -7  -3 -16    2.89    1.56
   7   3  19   24.81    5.83
  -7  -4  12    2.01    2.28
  -7  -4  11    4.71    2.84
  -7  -4  11    2.69    2.49
  -7  -4  10   -0.01    1.40
  -7  -4  10    1.17    1.78
  -7  -4   9    0.53    1.46
  -7  -4   9   -0.16    1.39
  -7  -4   8   79.41    9.39
  -7  -4   8   88.62   10.66
  -7  -4   7   80.40    8.79
  -7  -4   7   61.85    8.61
   7   4  -6    1.16    6.39
  -7  -4   6    2.99    2.06
  -7  -4   6    2.15    1.83
   7   4  -5   -3.26    6.61
  -7  -4   5    0.39    0.95
  -7  -4   5    0.19    1.18
   7   4  -4    0.66    5.65
  -7  -4   4    0.68    1.27
  -7  -4   4    1.69    1.63
  -7  -4   3   69.69    7.23
  -7  -4   2  276.73   15.67
   7   4  -1   18.69    3.85
  -7  -4   1    4.69    2.22
  -7  -4   0   48.64    6.48
   7   4   0   22.52    3.93
  -7  -4  -1    1.01    1.33
   7   4   1    1.56    1.14
  -7  -4  -2   66.77    7.65
   7   4   2   89.28    7.42
  -7  -4  -3  213.85   13.44
   7   4   3  174.47    9.84
  -7  -4  -4    0.03    1.13
   7   4   4    0.70    0.97
  -7  -4  -5   26.15    4.79
   7   4   5   16.48    3.17
  -7  -4  -6   11.16    3.11
   7   4   6   11.55    2.48
   7   4   7   46.29    4.83
  -7  -4  -7   77.88    7.97
   7   4   8  180.44    9.53
  -7  -4  -8  359.22   17.00
  -7  -4  -9   30.29    5.15
  -7  -4 -10   82.69    8.35
  -7  -4 -11    5.03    2.26
  -7  -4 -12    7.60    2.50
  -7  -4 -13   33.39    5.27
  -7  -4 -14   15.70    3.30
  -7  -4 -15   34.11    5.12
  -7  -4 -16    0.23    1.11
   7   4  19   21.14    5.72
   7   4  20    3.08    3.60
  -7  -5  11    7.42    3.71
  -7  -5  10    1.41    1.84
  -7  -5   9   13.76    4.36
  -7  -5   8   35.68    6.46
  -7  -5   7    5.52    2.76
  -7  -5   6   47.07    7.45
   7   5  -6    2.98    6.76
   7   5  -5    0.10    5.73
  -7  -5   5   -0.23    1.40
   7   5  -4   -0.31    6.55
  -7  -5   4    7.27    2.87
  -7  -5   3  140.91   11.87
  -7  -5   2    8.86    3.07
  -7  -5   1  158.05   12.17
  -7  -5   0   15.33    3.81
   7   5   1   15.44    3.37
  -7  -5  -1    4.95    2.07
  -7  -5  -2  170.58   11.72
   7   5   2  197.99   11.58
   7   5   3    5.72    2.16
  -7  -5  -3    8.68    2.92
  -7  -5  -4  215.50   14.04
   7   5   4  190.94   11.49
  -7  -5  -5   89.71    9.07
   7   5   5   52.62    5.92
   7   5   6    0.32    1.10
  -7  -5  -6    2.88    1.94
   7   5   7   32.30    4.54
  -7  -5  -7   65.28    7.68
  -7  -5  -8   42.98    6.14
  -7  -5  -9  189.92   12.62
  -7  -5 -10  120.74    9.49
  -7  -5 -11   -0.55    1.44
  -7  -5 -12    1.92    1.58
  -7  -5 -13   19.28    4.19
  -7  -5 -14   50.05    6.61
  -7  -5 -15   74.42    7.96
   7   5  19    8.02    3.99
  -7  -6  11    4.56    2.86
  -7  -6  10   11.81    4.69
  -7  -6   9    1.76    2.41
  -7  -6   8    1.48    2.29
  -7  -6   7   81.93   10.36
  -7  -6   6   11.99    3.99
   7   6  -5    0.46    6.33
  -7  -6   5    2.02    2.01
  -7  -6   4    3.32    2.65
  -7  -6   3   -0.65    1.90
  -7  -6   2  191.49   14.49
  -7  -6   1  145.54   12.57
  -7  -6   0   24.84    5.19
  -7  -6  -1   22.53    4.95
  -7  -6  -2    1.93    1.88
  -7  -6  -3   98.29    9.97
  -7  -6  -4   58.32    7.70
   7   6   4   40.61    5.56
   7   6   5    0.49    1.10
  -7  -6  -5    0.44    1.28
   7   6   6    1.89    1.49
  -7  -6  -6    7.41    2.84
  -7  -6  -7   11.51    3.50
  -7  -6  -8  133.51   11.39
  -7  -6  -9  261.22   15.98
  -7  -6 -10    1.77    1.80
  -7  -6 -11   37.24    6.06
  -7  -6 -12    5.61    2.48
  -7  -6 -13    4.96    2.48
  -7  -6 -14   39.40    6.79
  -7  -6 -15    4.21    2.44
   7   6  18    2.07    2.59
  -7  -7  10    7.80    4.02
  -7  -7   9    1.14    2.28
  -7  -7   8   15.59    5.04
  -7  -7   7   10.77    4.23
  -7  -7   6   11.29    4.24
  -7  -7   5    8.45    3.88
   7   7  -4    2.78    8.52
  -7  -7   4    1.75    2.48
  -7  -7   3   32.54    6.55
  -7  -7   2   72.02   10.00
  -7  -7   1    9.51    3.70
  -7  -7   0  134.92   13.32
  -7  -7  -1    0.50    1.29
  -7  -7  -2   15.39    4.63
  -7  -7  -3   78.58    9.71
  -7  -7  -4    0.63    1.77
  -7  -7  -5   89.47    9.98
  -7  -7  -6    1.24    1.75
  -7  -7  -7   12.81    3.80
  -7  -7  -8  198.05   14.87
  -7  -7  -9    7.91    3.24
  -7  -7 -10  160.06   13.24
  -7  -7 -11   36.44    6.57
  -7  -7 -12    7.25    3.61
  -7  -7 -13    5.38    2.83
  -7  -7 -14    7.19    3.02
  -7  -7 -15   33.38    6.30
   7   7  17    2.09    2.94
  -7  -8  10    0.75    1.79
  -7  -8   9    1.84    2.73
  -7  -8   8    1.71    2.10
  -7  -8   7    4.55    3.54
  -7  -8   6   92.98   11.80
  -7  -8   5    7.23    3.65
  -7  -8   4    5.04    3.68
  -7  -8   3    2.96    2.78
  -7  -8   2    1.89    2.31
  -7  -8   1   52.19    8.82
  -7  -8   0    5.32    3.10
  -7  -8  -1    5.42    3.05
  -7  -8  -2    5.17    3.06
  -7  -8  -3    1.03    1.90
  -7  -8  -4   18.53    5.20
  -7  -8  -5   16.24    4.93
  -7  -8  -6   -0.87    1.69
  -7  -8  -7    1.59    2.14
  -7  -8  -8    5.23    3.13
  -7  -8  -9   86.38   10.49
  -7  -8 -10   18.82    4.83
  -7  -8 -11    1.92    1.94
  -7  -8 -12    0.34    1.63
  -7  -8 -13    1.02    1.82
  -7  -8 -14   37.57    7.07
  -7  -8 -15   33.01    6.37
  -7  -9   9    0.96    2.38
  -7  -9   8    0.63    1.89
  -7  -9   7   23.28    6.30
  -7  -9   6    3.48    3.06
  -7  -9   5    8.79    4.23
  -7  -9   4   -0.91    2.21
  -7  -9   3    0.15    1.58
  -7  -9   2   60.79   10.38
  -7  -9   1   38.25    8.17
  -7  -9   0   30.47    7.21
  -7  -9  -1   25.66    7.00
  -7  -9  -2   -0.17    1.83
  -7  -9  -3   25.31    6.93
  -7  -9  -4   48.51    8.99
  -7  -9  -5   22.60    6.09
  -7  -9  -6   35.76    7.56
  -7  -9  -7    0.57    1.97
  -7  -9  -8   35.32    7.53
  -7  -9  -9   76.77   10.46
  -7  -9 -10    0.83    2.03
  -7  -9 -11   42.25    7.78
  -7  -9 -12    2.28    2.51
  -7  -9 -13    2.25    2.13
  -7  -9 -14   31.00    6.78
  -7  -9 -15   -0.08    2.02
  -7 -10   5   19.69    6.27
  -7 -10   4    0.00    1.63
  -7 -10   3    2.21    2.54
  -7 -10   2    6.05    4.12
  -7 -10   1   11.55    4.87
  -7 -10   0  114.26   14.01
  -7 -10  -1    1.84    2.45
  -7 -10  -2   -0.42    1.65
  -7 -10  -3    5.54    3.44
  -7 -10  -4    0.41    2.39
  -7 -10  -5   43.60    8.35
  -7 -10  -6    6.94    3.39
  -7 -10  -7   -0.35    1.93
  -7 -10  -8   15.79    5.35
  -7 -10  -9    3.79    2.94
  -7 -10 -10   81.51   11.12
  -7 -10 -11   14.87    5.03
  -7 -10 -12    4.96    3.47
  -7 -10 -13   -1.14    2.10
  -7 -10 -14    0.45    2.18
  -7 -11   0    7.79    4.06
  -7 -11  -1   20.44    6.29
  -7 -11  -2    0.36    1.71
  -7 -11  -3   -0.27    2.15
  -7 -11  -4   39.52    8.87
  -7 -11  -5   15.23    5.61
  -7 -11  -6   14.53    5.52
  -7 -11  -7    5.00    3.69
  -7 -11  -8   -0.09    1.77
  -7 -11  -9   42.56    8.87
  -7 -11 -10   39.85    8.11
  -7 -11 -11    7.63    3.74
  -7 -11 -12   24.94    6.48
  -7 -11 -13   -0.87    2.37
  -7 -11 -14    2.93    2.91
   7  12   1   18.79    4.96
   7  12   2    0.77    3.02
   7  12   3   -0.13    2.66
   7  12   4    5.80    3.72
   7  12   5   10.41    4.36
   7  12   6   30.52    6.49
   7  12   7   -0.59    2.55
   7  13   3    1.02    2.76
  -8  12  -1   -9.86   12.20
  -8  12  -3   -6.31    9.85
  -8  11   1   46.30   20.11
  -8  11  -1   -0.77    9.94
  -8  11  -2    9.30   12.05
  -8  11  -3    4.06    9.69
  -8  11  -4   -5.27   11.56
  -8  10   5    0.83   11.92
  -8  10   3   -2.39   12.52
  -8  10   2    1.86    9.07
  -8  10   1    0.59   10.91
  -8  10   0    0.65    9.59
  -8  10  -1   -0.81    9.42
  -8  10  -3    6.47    9.51
  -8   9   7    2.45    9.23
  -8   9   5    4.50    9.38
  -8   9   3    0.89   10.86
  -8   9   0   16.24   13.46
  -8   9  -1   -0.97   10.10
  -8   8   9   -9.78   13.52
  -8   8   4   -4.84   10.26
  -8   8   3    3.57    9.96
  -8   8   2   -3.42    9.49
  -8   8   1   12.76   10.29
  -8   8  -1    1.92    8.05
  -8   8  -3    3.69    8.64
  -8   8  -4    0.00    8.33
  -8   7   7    2.38   10.88
  -8   7   6    4.13   11.90
  -8   7   3   -3.29    8.61
  -8   7   1   10.04    8.66
  -8   7   0   26.84   14.19
  -8   7  -1    3.59   14.15
  -8   6  12   -1.63    9.90
  -8   6  10    6.92   10.07
  -8   6   9    2.56   10.90
  -8   6   8    2.05    9.48
  -8   6   6    2.16    8.70
  -8   6   5   -3.11    9.96
  -8   6   4   -1.06   20.38
  -8   6   3   -0.84    8.42
  -8   6   2   -6.08    8.28
  -8   6   1    8.33    8.93
  -8   6   0   60.61   18.13
  -8   6  -1    7.60   10.05
  -8   6  -2   -2.08    7.41
  -8   5  13   -5.45   10.29
  -8   5  12    3.64   10.31
  -8   5  11    0.34    9.73
  -8   5  10    4.61   10.08
  -8   5   9    0.24    8.93
  -8   5   8   -5.51   11.95
  -8   5   7    0.74    8.74
  -8   5   6    4.69    7.54
  -8   5   5    0.55    7.84
  -8   5   4   -1.26    7.28
  -8   5   3    2.28    7.18
  -8   5   1    9.13    9.46
  -8   5   0  101.75   21.42
  -8   5  -1  155.34   24.58
  -8   4  14   -0.20   10.30
  -8   4  13    5.51   12.51
  -8   4  11    4.80   10.52
  -8   4  10    1.25    8.94
  -8   4   9  -19.10   13.09
  -8   4   8   -9.14   10.84
  -8   4   7   -2.92    8.82
  -8   4   5    1.13    7.26
  -8   4   4   -5.80    8.77
  -8   4   3   -2.16    7.45
  -8   4   0    7.19    8.66
  -8   4  -6   22.20    1.75
  -8   3  15    0.35   11.50
  -8   3  14    3.57   12.99
  -8   3  13    0.36    1.95
  -8   3  12   -9.12   10.88
  -8   3  12    0.08    1.22
  -8   3  10   -0.72    8.16
  -8   3   6   -1.45    7.38
  -8   3   3   -4.28    8.50
  -8   3   2   -1.13    6.48
  -8   3  -4    3.46    1.11
  -8   3  -5   20.83    1.94
  -8   2  13    2.30   10.81
  -8   2  13    2.76    2.72
  -8   2  12    3.09    2.76
  -8   2  11    1.12    1.83
  -8   2  10    0.16    8.26
  -8   2  10    2.74    2.86
  -8   2   9   12.57    5.23
  -8   2   9   -3.32    8.87
  -8   2   8   -5.03    8.30
  -8   2   8    1.51    1.74
  -8   2   7    5.39    2.66
  -8   2   6   -0.12    1.30
  -8   2   5    1.42    7.40
  -8   2   2    2.55    1.53
  -8   2   1    1.60    1.39
  -8   2   0    4.09    2.00
  -8   2  -1  100.47    7.47
  -8   2  -2    5.03    1.56
  -8   2  -3    3.63    1.16
   8  -2   4   -0.09    6.00
  -8   2  -4    0.71    0.62
   8  -2   5    7.68    7.99
  -8   2  -5    0.23    0.45
  -8   1  13   13.83    4.52
  -8   1  12    2.70    2.36
  -8   1  11   -0.28    1.21
  -8   1  11   -0.40    1.19
  -8   1  10   14.82    4.66
  -8   1   9    0.28    1.24
  -8   1   8   83.69    9.55
  -8   1   7   31.10    5.69
  -8   1   6    2.00    1.67
  -8   1   5    1.71    1.53
  -8   1   4    0.49    1.01
  -8   1   3   12.77    3.06
  -8   1   2   10.98    2.75
  -8   1   1    4.04    1.63
  -8   1   0   83.39    6.48
  -8   1  -1   33.69    3.77
   8  -1   2    5.14    7.94
  -8   1  -2    4.72    1.51
   8  -1   3    4.09    6.55
  -8   1  -3   26.55    2.99
   8  -1   4   -4.02    7.96
  -8   1  -4    0.25    0.55
   8  -1   5    3.15    6.52
   8  -1   6    1.55    5.84
  -8   0  13    2.47    2.04
  -8   0  12    6.39    3.07
  -8   0  11    1.92    1.73
  -8   0  11   -0.19    1.32
  -8   0  10   11.83    3.29
  -8   0  10    4.98    2.58
  -8   0   9   24.52    5.16
  -8   0   9   51.80    7.17
  -8   0   8  112.64   10.24
  -8   0   7    8.62    2.81
  -8   0   6   37.83    5.53
  -8   0   5   -0.05    0.80
  -8   0   4    4.14    1.74
  -8   0   3    9.02    2.48
  -8   0   2    3.12    1.50
  -8   0   1    9.05    2.51
  -8   0   0    9.31    2.28
   8   0   1    4.46    7.34
  -8   0  -1   23.61    3.35
   8   0   2    9.01    7.79
  -8   0  -2  367.53   12.83
  -8   0  -3   21.37    2.95
  -8  -1  12   39.82    7.20
  -8  -1  11    5.24    2.84
  -8  -1  11   14.13    3.62
  -8  -1  10    0.00    1.09
  -8  -1  10    0.20    1.00
  -8  -1   9   15.78    3.66
  -8  -1   9   18.75    4.66
  -8  -1   8    2.06    1.66
  -8  -1   8   11.49    3.48
  -8  -1   7  148.16   15.79
  -8  -1   7   96.48    9.76
  -8  -1   6   17.95    4.10
  -8  -1   5    2.74    1.51
  -8  -1   4    0.27    0.80
  -8  -1   3    3.46    1.76
  -8  -1   2   28.80    4.41
  -8  -1   1    4.25    1.76
   8   1   0    3.82    7.50
  -8  -1   0    0.80    1.02
   8   1   1    1.44    6.64
  -8  -1  -1   77.41    6.51
  -8  -1  -2   22.29    3.59
   8   1   3    8.01   10.78
  -8  -2  12    5.61    3.16
  -8  -2  11    1.24    1.67
  -8  -2  11    4.34    2.68
  -8  -2  10    2.10    1.88
  -8  -2  10   -0.80    1.65
  -8  -2   9    1.64    1.56
  -8  -2   9    0.72    1.36
  -8  -2   8   56.20    6.92
  -8  -2   8   69.58    8.95
  -8  -2   7   85.38    8.70
  -8  -2   7   76.24    9.26
  -8  -2   6   11.16    3.42
  -8  -2   6   15.83    4.28
  -8  -2   5   19.59    4.81
  -8  -2   5   21.02    4.63
  -8  -2   4   -0.11    0.99
  -8  -2   3    0.75    1.12
  -8  -2   2   44.04    6.22
  -8  -2   1    9.74    2.69
  -8  -2   0    0.26    0.84
  -8  -2  -1    7.52    2.54
   8   2   3    8.41    2.18
   8   2   4    0.32    1.18
   8   2   5    2.87    1.64
   8   2   6   12.71    2.31
   8   2   7   18.99    2.63
   8   2   8   72.48    4.58
   8   2   9    0.87    0.62
   8   2  10    0.05    0.33
   8   2  11   33.47    2.15
  -8  -3  11   12.88    4.69
  -8  -3  11    9.73    3.93
  -8  -3  10    0.58    1.33
  -8  -3  10    1.22    1.80
  -8  -3   9    5.61    3.03
  -8  -3   9    1.68    1.55
  -8  -3   8   42.25    6.51
  -8  -3   8   40.28    7.38
  -8  -3   7    6.50    2.98
  -8  -3   7    4.39    2.38
  -8  -3   6   71.74    7.91
  -8  -3   6   71.38    8.77
  -8  -3   5   22.50    4.72
  -8  -3   5   17.39    4.33
  -8  -3   4   10.84    3.93
  -8  -3   4    8.82    3.07
  -8  -3   3    4.01    2.27
  -8  -3   3    4.32    2.21
  -8  -3   2    0.54    1.45
  -8  -3   2   -0.49    1.03
  -8  -3   1    8.63    2.83
   8   3   0    0.75    1.20
   8   3   1   37.10    5.74
   8   3   2   54.51    5.90
   8   3   3    1.38    1.13
   8   3   4   15.49    3.14
   8   3   5    0.35    0.71
   8   3   6    1.80    1.19
   8   3   7   72.45    5.51
   8   3   8    6.14    1.53
   8   3   9    1.20    0.79
   8   3  10    5.38    1.42
   8   3  11    0.12    0.54
  -8  -3 -14   18.88    4.53
  -8  -3 -15   38.95    6.12
  -8  -3 -16   -0.08    1.42
  -8  -4  11    1.52    2.17
  -8  -4  11    2.56    2.35
  -8  -4  10    2.35    2.32
  -8  -4  10    2.20    2.53
  -8  -4   9    6.92    3.54
  -8  -4   9    3.76    2.59
  -8  -4   8    1.30    1.82
  -8  -4   8    1.57    1.79
  -8  -4   7   98.76   10.34
  -8  -4   7   90.86   10.62
  -8  -4   6   28.17    5.54
  -8  -4   6   22.60    5.04
  -8  -4   5   10.52    3.71
  -8  -4   5    8.98    3.25
  -8  -4   4    6.65    3.05
  -8  -4   4    8.68    2.88
  -8  -4   3    2.83    2.08
  -8  -4   2   38.15    6.06
  -8  -4   1    9.31    3.06
  -8  -4   0    0.08    1.18
  -8  -4  -1   15.93    4.02
   8   4   1   25.48    4.48
  -8  -4  -2   11.21    3.42
   8   4   2    4.60    1.85
  -8  -4  -3   65.09    8.01
   8   4   3   64.23    6.06
  -8  -4  -4   43.75    6.70
   8   4   4   29.26    4.24
  -8  -4  -5   -0.15    1.56
   8   4   5    0.37    0.74
   8   4   6    0.69    0.89
  -8  -4  -6   -0.60    2.10
  -8  -4  -7    2.36    2.73
   8   4   7    1.05    0.97
  -8  -4  -8   36.53    6.31
   8   4   8   26.28    3.71
   8   4   9   33.82    4.41
  -8  -4  -9   47.59    6.96
  -8  -4 -10    0.95    1.26
   8   4  10    0.48    0.80
  -8  -4 -11   10.51    3.43
   8   4  11    1.75    1.50
  -8  -4 -12   27.15    5.25
  -8  -4 -13    4.35    2.30
  -8  -4 -14   79.69    8.48
  -8  -4 -15    1.90    1.57
  -8  -4 -16   -0.36    1.23
   8   4  20    6.83    4.26
  -8  -5  10    3.90    2.86
  -8  -5   9    1.25    2.19
  -8  -5   8   16.47    5.06
  -8  -5   7   63.14    9.17
  -8  -5   6    9.16    3.53
  -8  -5   5   34.17    6.34
  -8  -5   4    0.87    1.68
  -8  -5   3    1.38    1.54
  -8  -5   2   21.44    4.86
  -8  -5   1    1.87    1.90
  -8  -5   0    7.17    2.68
  -8  -5  -1    4.76    2.32
  -8  -5  -2   52.58    7.48
  -8  -5  -3  174.50   13.25
   8   5   3  157.76   10.60
   8   5   4    0.20    0.73
  -8  -5  -4    1.10    1.57
  -8  -5  -5   71.10    8.31
   8   5   5   57.63    6.29
  -8  -5  -6    3.47    2.01
   8   5   6    1.18    0.89
   8   5   7    4.84    2.03
  -8  -5  -7    4.18    2.52
  -8  -5  -8   84.97    8.96
   8   5   8   47.12    5.39
   8   5   9    2.23    1.32
  -8  -5  -9    7.30    2.81
  -8  -5 -10   19.77    4.58
   8   5  10    3.10    1.52
  -8  -5 -11    6.77    2.57
  -8  -5 -12    3.21    1.92
  -8  -5 -13   67.66    7.84
  -8  -5 -14   22.58    4.72
  -8  -5 -15   46.41    6.77
  -8  -5 -16    7.86    2.94
  -8  -6  10    0.26    1.98
  -8  -6   9    0.54    1.93
  -8  -6   8    3.86    2.74
  -8  -6   7    9.64    3.86
  -8  -6   6   41.99    7.65
  -8  -6   5    5.54    3.37
  -8  -6   4    6.52    3.34
  -8  -6   3    1.06    1.76
  -8  -6   2    0.76    1.80
  -8  -6   1   45.26    7.22
  -8  -6   0    3.96    2.55
  -8  -6  -1    2.03    2.01
  -8  -6  -2   20.60    4.86
  -8  -6  -3    2.72    2.34
  -8  -6  -4   37.91    6.50
  -8  -6  -5   28.65    5.68
   8   6   6    3.41    1.98
  -8  -6  -6    5.55    2.98
   8   6   7    1.56    1.53
  -8  -6  -7    3.72    2.33
   8   6   8    2.09    1.60
  -8  -6  -8    4.58    2.43
   8   6   9   12.30    3.57
  -8  -6  -9   61.53    8.10
  -8  -6 -10   25.81    5.27
  -8  -6 -11    0.22    1.18
  -8  -6 -12    1.02    1.32
  -8  -6 -13   15.11    4.18
  -8  -6 -14   20.21    4.76
  -8  -6 -15   53.93    8.46
  -8  -7  10    3.54    2.92
  -8  -7   9    4.32    3.05
  -8  -7   8    1.28    2.22
  -8  -7   7   26.72    6.58
  -8  -7   6   17.78    5.37
  -8  -7   5    8.64    3.77
  -8  -7   4    3.63    3.06
  -8  -7   3    0.35    1.96
  -8  -7   2   15.49    5.24
  -8  -7   1   23.14    5.95
  -8  -7   0    5.25    3.06
  -8  -7  -1    3.71    2.64
  -8  -7  -2    0.15    1.39
  -8  -7  -3   59.00    8.66
  -8  -7  -4   28.96    6.06
  -8  -7  -5    1.58    1.87
  -8  -7  -6    2.68    2.14
  -8  -7  -7    1.12    1.81
  -8  -7  -8   39.78    6.99
  -8  -7  -9  139.34   12.96
  -8  -7 -10    1.03    1.87
  -8  -7 -11    6.36    2.94
  -8  -7 -12    1.10    1.94
  -8  -7 -13    3.25    2.69
  -8  -7 -14   64.43    9.53
  -8  -7 -15    3.72    2.59
  -8  -8   9   -0.71    2.09
  -8  -8   8    1.02    2.38
  -8  -8   7    4.31    3.28
  -8  -8   6   17.65    5.69
  -8  -8   5   53.39    9.58
  -8  -8   4    0.31    2.20
  -8  -8   3   10.80    5.74
  -8  -8   2   -0.28    1.68
  -8  -8   1    1.99    2.64
  -8  -8   0    1.29    2.48
  -8  -8  -1   -0.97    2.48
  -8  -8  -2    2.95    3.09
  -8  -8  -3   18.65    6.30
  -8  -8  -4    1.40    2.20
  -8  -8  -5   58.11    9.61
  -8  -8  -6    7.52    3.86
  -8  -8  -7    4.57    3.19
  -8  -8  -8    7.92    3.88
  -8  -8  -9    2.06    2.50
  -8  -8 -10    1.74    2.07
  -8  -8 -11    0.87    2.34
  -8  -8 -12    0.83    1.88
  -8  -8 -13   25.49    6.14
  -8  -8 -14    7.14    3.59
  -8  -8 -15   22.72    5.59
  -8  -9   6   24.82    7.36
  -8  -9   5    3.83    2.76
  -8  -9   4    2.04    2.58
  -8  -9   3   -0.88    2.42
  -8  -9   2    1.25    2.46
  -8  -9   1   17.34    5.79
  -8  -9   0    8.60    3.80
  -8  -9  -1    3.85    3.00
  -8  -9  -2    6.19    3.91
  -8  -9  -3    0.89    1.68
  -8  -9  -4   37.68    7.86
  -8  -9  -5   11.70    4.71
  -8  -9  -6    2.14    2.73
  -8  -9  -7   -0.44    1.59
  -8  -9  -8   -0.40    1.65
  -8  -9  -9   40.19    8.28
  -8  -9 -10   26.97    6.82
  -8  -9 -11   -0.41    1.84
  -8  -9 -12    1.11    2.15
  -8  -9 -13   -0.15    2.00
  -8  -9 -14   30.07    6.82
  -8  -9 -15   32.57    6.79
  -8 -10   1    9.13    4.40
  -8 -10   0   18.05    6.06
  -8 -10  -1   10.10    4.89
  -8 -10  -2    1.76    2.58
  -8 -10  -3    5.51    3.78
  -8 -10  -4   13.08    5.22
  -8 -10  -5    7.77    4.22
  -8 -10  -6   36.24    8.24
  -8 -10  -7   -0.81    1.93
  -8 -10  -8   -0.29    1.72
  -8 -10  -9   17.82    5.96
  -8 -10 -10    1.80    2.52
  -8 -10 -11   12.91    4.94
  -8 -10 -12    0.63    2.28
  -8 -10 -13    1.59    2.60
  -8 -10 -14    8.66    3.90
  -9  11  -2   11.52   12.17
  -9  10   1    2.01   11.11
  -9  10  -2   -4.70    9.73
  -9   9   4   -2.33   10.29
  -9   9   3   10.47   11.49
  -9   9   2    2.53    8.61
  -9   9   1    4.89    8.55
  -9   9   0    0.92   10.72
  -9   9  -1   -5.55    9.34
  -9   9  -3    1.47   10.81
  -9   8   6    3.89    9.24
  -9   8   4   -4.54    8.63
  -9   8   2   -2.32    9.28
  -9   8   0   29.63   14.70
  -9   8  -1   -0.32   10.55
  -9   8  -2   -3.19    8.33
  -9   8  -3   -6.76    9.22
  -9   7   7    4.59   10.55
  -9   7   6    0.72   10.19
  -9   7   4   -3.21    9.57
  -9   7   0   22.02   14.50
  -9   7  -1    8.06   12.33
  -9   7  -2   -6.82    8.48
  -9   6  10    3.14   11.07
  -9   6   8   -1.71    9.48
  -9   6   7    9.44   10.79
  -9   6   6    5.14    9.48
  -9   6   4  -16.23   15.22
  -9   6   0    3.95    8.66
  -9   6  -1   52.46   22.97
  -9   5  10    3.74    9.75
  -9   5   9   -2.94    9.02
  -9   5   8  -17.46   14.33
  -9   5   6    1.45    8.69
  -9   5   2   -9.35    9.31
  -9   5   0   67.12   20.44
  -9   5  -6    0.50    0.67
  -9   4  10   -1.93    9.20
  -9   4   9    2.89    9.18
  -9   4   8   -9.91   11.89
  -9   4   2    1.15    7.28
  -9   4  -4    0.80    0.95
  -9   4  -5    4.27    1.16
  -9   4  -6   37.61    2.34
  -9   3  13   -0.27    9.17
  -9   3  11    1.54    2.17
  -9   3  10    6.07    4.06
  -9   3   9    0.52    1.71
  -9   3   8    1.96    2.02
  -9   3   6    5.44    9.32
  -9   3   5   -2.25    8.06
  -9   3  -1   22.48    4.33
  -9   3  -2   29.37    4.25
  -9   3  -3   25.05    3.24
  -9   3  -4   -0.41    0.59
  -9   3  -5    4.97    1.15
  -9   3  -6   16.21    1.52
  -9   2  11    0.95    1.55
  -9   2  10    0.35    1.60
  -9   2   9   18.55    5.31
  -9   2   8   14.62    4.40
  -9   2   7    0.12    1.27
  -9   2   6   10.32    3.81
  -9   2   5   13.76    4.22
  -9   2   4   51.95    7.46
  -9   2   3  148.41   11.96
  -9   2   2    0.36    0.91
  -9   2   1   17.54    3.57
  -9   2   0   21.88    3.72
  -9   2  -1   16.41    2.97
  -9   2  -2  117.25    7.03
  -9   2  -3   15.30    2.45
  -9   2  -4    0.37    0.54
  -9   2  -5    8.88    1.61
  -9   1  11    0.62    1.25
  -9   1  10   10.88    3.84
  -9   1   9   46.44    7.36
  -9   1   8    1.18    1.43
  -9   1   7   30.14    5.62
  -9   1   6   -0.57    1.33
  -9   1   5   12.30    3.36
  -9   1   4  124.31    9.94
  -9   1   3    6.41    2.31
  -9   1   2   43.34    5.43
  -9   1   1   49.81    5.49
  -9   1   0   10.73    2.46
  -9   1  -1   75.31    6.52
  -9   1  -2   34.91    4.00
  -9   1  -3   34.00    3.96
  -9   1  -4   32.29    3.47
  -9   0  11    0.46    1.33
  -9   0  10   32.45    5.72
  -9   0  10   37.89    6.75
  -9   0   9   14.40    4.15
  -9   0   9    4.00    2.43
  -9   0   8  108.08   10.64
  -9   0   7   31.89    5.66
  -9   0   6    1.26    1.44
  -9   0   5   35.00    5.49
  -9   0   4   16.63    3.71
  -9   0   3   70.75    7.64
  -9   0   2  142.23   10.27
  -9   0   1   17.90    3.41
  -9   0   0   34.08    4.55
  -9   0  -1  167.46   10.31
  -9   0  -2   44.41    5.08
  -9   0  -3  273.51   11.33
  -9  -1  11    9.98    3.71
  -9  -1  10    0.63    1.23
  -9  -1  10    1.27    1.52
  -9  -1   9   14.21    4.17
  -9  -1   9    8.06    2.90
  -9  -1   8   44.26    6.95
  -9  -1   8   36.53    6.43
  -9  -1   7   -0.29    1.72
  -9  -1   7    2.05    1.76
  -9  -1   6   12.75    3.67
  -9  -1   5    0.22    1.07
  -9  -1   4   21.50    4.35
  -9  -1   3  114.18    9.80
  -9  -1   2    7.33    2.64
  -9  -1   1  121.16    9.47
  -9  -1   0   43.20    5.91
  -9  -1  -1    6.84    2.22
  -9  -1  -2   56.06    5.68
  -9  -2  10   -0.48    1.59
  -9  -2  10    0.51    1.51
  -9  -2   9   19.04    5.09
  -9  -2   9   15.57    4.00
  -9  -2   8    1.48    1.83
  -9  -2   8    1.17    1.98
  -9  -2   7   69.47    8.48
  -9  -2   7   67.73    9.07
  -9  -2   6   10.15    3.68
  -9  -2   6    5.93    2.79
  -9  -2   5    0.18    1.32
  -9  -2   5    0.69    1.33
  -9  -2   4   39.06    6.35
  -9  -2   3   17.20    4.47
  -9  -2   2  100.51    9.24
  -9  -2   1   63.72    7.19
  -9  -2   0    0.51    0.97
  -9  -3  10   -0.45    1.77
  -9  -3  10    2.34    2.07
  -9  -3   9    0.08    1.25
  -9  -3   9    1.08    1.62
  -9  -3   8   38.95    6.55
  -9  -3   8   37.48    6.88
  -9  -3   7   62.38    8.01
  -9  -3   7   47.72    7.70
  -9  -3   6    2.54    2.01
  -9  -3   6    3.71    2.34
  -9  -3   5    6.69    2.87
  -9  -3   5    9.70    3.29
  -9  -3   4    1.47    1.68
  -9  -3   4   -0.24    1.29
  -9  -3   3   17.73    4.38
  -9  -3   3   19.30    4.66
  -9  -3   2   88.72    9.20
  -9  -3   2  116.12   11.75
   9   3   2   32.40    4.92
   9   3   3   85.22    8.96
   9   3   4    2.66    1.63
   9   3   5    7.29    2.20
   9   3   6    1.03    1.11
   9   3   7   14.72    2.94
   9   3   8   52.22    4.55
   9   3   9    6.17    1.57
  -9  -3 -15   17.04    4.50
  -9  -3 -16    2.08    2.05
  -9  -4  10    1.58    2.32
  -9  -4   9    3.19    2.41
  -9  -4   9    0.30    1.75
  -9  -4   8   27.37    6.00
  -9  -4   8   21.01    5.50
  -9  -4   7    2.19    1.95
  -9  -4   7    1.90    1.80
  -9  -4   6   30.54    6.52
  -9  -4   6   39.26    6.91
  -9  -4   5    1.53    1.75
  -9  -4   5    2.80    2.27
  -9  -4   4    1.89    1.81
  -9  -4   3   55.15    7.92
  -9  -4   2    0.99    1.34
  -9  -4   1   98.46   10.56
  -9  -4   0   39.30    6.78
  -9  -4  -1   -0.07    1.54
  -9  -4  -2   55.54    7.85
  -9  -4  -3   10.41    3.62
   9   4   3    1.45    1.16
  -9  -4  -4   74.56   10.98
   9   4   4   53.24    5.78
  -9  -4  -5   93.98   13.24
   9   4   5   26.93    3.90
   9   4   6    3.33    1.38
   9   4   7   18.11    3.14
  -9  -4  -8   30.22    7.99
   9   4   8   18.16    3.12
  -9  -4  -9   39.55    8.17
   9   4   9   26.84    3.60
  -9  -4 -10   24.60    5.60
  -9  -4 -11    0.43    1.47
  -9  -4 -12   23.50    5.24
  -9  -4 -13   37.79    6.57
  -9  -4 -14    9.48    3.30
  -9  -4 -15   69.08    8.42
  -9  -4 -16    0.40    1.42
  -9  -5  10    2.89    3.30
  -9  -5   9    2.23    2.60
  -9  -5   8   -0.38    2.22
  -9  -5   7   61.93    9.22
  -9  -5   6   26.96    5.91
  -9  -5   5    0.50    1.66
  -9  -5   4    0.30    1.41
  -9  -5   3    5.56    2.78
  -9  -5   2   90.50   10.30
  -9  -5   1   78.49    8.93
  -9  -5   0   11.30    3.61
  -9  -5  -1    1.92    1.96
  -9  -5  -2    7.06    2.80
  -9  -5  -3   74.21    8.98
  -9  -5  -4  147.82   12.66
  -9  -5  -5    0.63    1.27
   9   5   5    1.25    1.12
  -9  -5  -6   27.97    5.69
   9   5   6   14.09    3.08
  -9  -5  -7    0.84    1.60
   9   5   7   -0.22    1.04
  -9  -5  -8   20.04    4.78
   9   5   8   20.91    3.62
  -9  -5  -9  102.22   10.47
   9   5   9   87.49    7.71
  -9  -5 -10    1.23    1.55
  -9  -5 -11    1.74    1.95
  -9  -5 -12    0.71    1.44
  -9  -5 -13    1.01    1.52
  -9  -5 -14   91.04    9.50
  -9  -5 -15    9.56    3.34
  -9  -5 -16   16.18    4.30
  -9  -6   9    0.68    1.90
  -9  -6   8    4.17    3.34
  -9  -6   7    9.57    4.08
  -9  -6   6    4.24    2.93
  -9  -6   5   17.27    4.93
  -9  -6   4   -0.07    1.60
  -9  -6   3    7.87    3.40
  -9  -6   2   55.34    8.48
  -9  -6   1    3.36    2.33
  -9  -6   0   73.55    9.64
  -9  -6  -1    3.38    2.48
  -9  -6  -2    1.74    1.91
  -9  -6  -3   53.18    8.85
  -9  -6  -4   -0.08    1.49
  -9  -6  -5   42.17    6.74
  -9  -6  -6    4.84    2.55
  -9  -6  -7    0.16    1.36
  -9  -6  -8   46.46    7.00
  -9  -6  -9    6.85    2.88
  -9  -6 -10   32.97    6.14
  -9  -6 -11    4.25    2.20
  -9  -6 -12    2.29    2.26
  -9  -6 -13   19.23    4.88
  -9  -6 -14   16.74    4.80
  -9  -6 -15   26.05    5.75
  -9  -7   9    1.81    2.53
  -9  -7   8    5.05    3.69
  -9  -7   7    0.44    2.03
  -9  -7   6   30.47    7.28
  -9  -7   5    4.18    2.95
  -9  -7   4    3.52    3.18
  -9  -7   3    1.96    3.11
  -9  -7   2    2.11    2.49
  -9  -7   1   73.95   10.82
  -9  -7   0   32.97    6.85
  -9  -7  -1   14.04    4.59
  -9  -7  -2    2.27    2.25
  -9  -7  -3   -0.15    1.77
  -9  -7  -4   22.27    5.53
  -9  -7  -5   55.59    8.73
  -9  -7  -6    4.54    2.84
  -9  -7  -7    0.26    1.54
  -9  -7  -8   17.20    5.14
  -9  -7  -9   61.50    8.96
  -9  -7 -10   64.69    9.09
  -9  -7 -11    0.56    1.78
  -9  -7 -12    6.23    3.09
  -9  -7 -13    1.41    1.82
  -9  -7 -14   11.49    4.34
  -9  -7 -15   47.54    8.71
  -9  -8   6    6.59    4.03
  -9  -8   5    9.52    4.48
  -9  -8   4   10.47    4.99
  -9  -8   3    0.04    1.58
  -9  -8   2    1.62    2.49
  -9  -8   1    5.36    3.83
  -9  -8   0    7.19    4.06
  -9  -8  -1    8.01    4.20
  -9  -8  -2    1.29    2.41
  -9  -8  -3   10.41    4.67
  -9  -8  -4   28.63    6.97
  -9  -8  -5    6.25    3.62
  -9  -8  -6   17.76    5.44
  -9  -8  -7    0.19    1.64
  -9  -8  -8    0.58    2.56
  -9  -8  -9   18.02    5.53
  -9  -8 -10    2.27    2.10
  -9  -8 -11   -1.20    2.36
  -9  -8 -12    4.63    3.33
  -9  -8 -13    3.22    3.00
  -9  -8 -14   46.81    8.74
  -9  -8 -15    4.41    3.18
  -9  -9   2    4.50    4.04
  -9  -9   1    1.93    2.71
  -9  -9   0   52.97   10.67
  -9  -9  -1    2.64    2.59
  -9  -9  -2    2.35    2.43
  -9  -9  -3    3.76    3.41
  -9  -9  -4   -0.38    1.83
  -9  -9  -5   41.42    9.20
  -9  -9  -6   21.82    6.58
  -9  -9  -7    2.32    2.58
  -9  -9  -8    2.81    2.80
  -9  -9  -9    2.51    2.60
  -9  -9 -10   25.59    6.87
  -9  -9 -11   10.22    4.40
  -9  -9 -12    0.71    2.19
  -9  -9 -13    2.20    2.60
  -9  -9 -14    1.68    2.11
  -9 -10  -6    7.12    4.33
  -9 -10  -7    3.90    3.92
  -9 -10  -8   -1.33    2.84
  -9 -10  -9   12.65    5.46
  -9 -10 -10   14.93    6.15
  -9 -10 -11    1.54    2.83
  -9 -10 -12   12.91    5.28
 -10   8   3   -0.14   12.12
 -10   8   0    6.81   10.95
 -10   8  -1    7.21   12.88
 -10   7   1    2.40   10.26
 -10   7   0   18.70   13.55
 -10   6   7    0.96   10.57
 -10   6   6    4.01   10.74
 -10   6   5   -6.84   13.02
 -10   6   1   -2.96    8.73
 -10   5   7   -7.19    8.87
 -10   5   3   -4.13   10.23
 -10   4  10   -8.52   11.16
 -10   4  10    1.22    2.08
 -10   4   9    0.86    1.56
 -10   4   7   -1.47    9.59
 -10   4   5    0.52    9.56
 -10   4  -1    4.01    1.94
 -10   4  -2   99.32    9.16
 -10   4  -3    9.57    2.34
 -10   4  -4    0.29    0.82
 -10   4  -5   19.42    2.34
 -10   3  10    1.23    2.17
 -10   3   9    7.34    3.94
 -10   3   8    0.41    1.68
 -10   3   7    2.01    2.43
 -10   3   6    0.00    1.56
 -10   3   5    3.82    2.87
 -10   3   4   38.34    7.63
 -10   3   3    1.17    1.76
 -10   3   2   30.30    5.95
 -10   3   1    3.98    2.21
 -10   3   0   -0.18    1.07
 -10   3  -1   59.85    6.17
 -10   3  -2   20.99    3.35
 -10   3  -3    7.66    1.79
 -10   3  -4    3.50    1.32
 -10   3  -5    0.29    0.61
 -10   2  10    5.48    3.13
 -10   2   9    0.09    1.19
 -10   2   8   17.17    5.02
 -10   2   7    3.76    2.37
 -10   2   6    1.05    1.53
 -10   2   5   41.54    6.67
 -10   2   4   13.08    3.76
 -10   2   3   58.38    7.21
 -10   2   2   66.96    7.42
 -10   2   1    1.60    1.14
 -10   2   0    9.15    2.42
 -10   2  -1   21.15    3.43
 -10   2  -2   12.04    2.59
 -10   2  -3   43.59    4.44
 -10   2  -4    3.01    1.27
 -10   2  -5    3.54    1.20
 -10   1  10    0.39    1.01
 -10   1   9   15.65    4.34
 -10   1   8   26.57    5.51
 -10   1   7    0.39    1.02
 -10   1   6    0.07    1.08
 -10   1   5    5.02    2.20
 -10   1   4   22.32    4.37
 -10   1   3   92.54    8.49
 -10   1   2    8.97    2.74
 -10   1   1   75.60    7.46
 -10   1   0    0.68    1.20
 -10   1  -1    5.75    1.91
 -10   1  -2  106.23    7.92
 -10   1  -3   20.99    3.38
 -10   1  -4   11.06    2.35
 -10   0  10    0.94    1.51
 -10   0  10    2.82    2.13
 -10   0   9   20.31    4.99
 -10   0   9   31.98    6.48
 -10   0   8   -0.45    1.56
 -10   0   7   38.19    6.74
 -10   0   6    3.95    2.44
 -10   0   5    2.08    1.85
 -10   0   4   56.12    7.24
 -10   0   3   13.57    3.41
 -10   0   2   53.43    6.54
 -10   0   1   25.52    4.43
 -10   0   0    8.45    2.69
 -10   0  -1   78.58    7.38
 -10   0  -2   86.46    7.28
 -10   0  -3   39.63    4.82
 -10  -1  10    3.69    2.26
 -10  -1   9   -0.04    1.04
 -10  -1   9    0.75    1.76
 -10  -1   8   16.28    4.51
 -10  -1   8   21.47    5.17
 -10  -1   7   25.72    6.25
 -10  -1   7   20.50    5.05
 -10  -1   6    1.51    1.39
 -10  -1   5    2.05    1.77
 -10  -1   4    3.69    2.43
 -10  -1   3   25.90    5.11
 -10  -1   2  124.44   10.93
 -10  -1   1    2.03    1.74
 -10  -1   0   32.42    5.04
 -10  -1  -1    4.44    2.06
 -10  -1  -2    3.17    1.98
 -10  -2  10    2.25    2.39
 -10  -2   9    1.90    1.98
 -10  -2   9    0.80    1.49
 -10  -2   8   12.24    4.22
 -10  -2   8   14.06    4.19
 -10  -2   7    0.91    1.62
 -10  -2   7    0.85    1.50
 -10  -2   6   12.41    4.18
 -10  -2   6    9.60    3.68
 -10  -2   5    0.24    1.41
 -10  -2   5   -0.74    1.50
 -10  -2   4    5.63    2.83
 -10  -2   3   58.99    7.73
 -10  -2   2    5.62    2.50
 -10  -2   1   94.54    9.70
 -10  -2   0   33.10    5.64
 -10  -3   9   -0.43    1.61
 -10  -3   8    1.23    1.66
 -10  -3   8    0.21    1.54
 -10  -3   7   30.16    5.92
 -10  -3   7   33.12    6.71
 -10  -3   6   10.64    3.80
 -10  -3   6   14.52    4.64
 -10  -3   5    0.35    1.83
 -10  -3   5    1.83    1.99
 -10  -3   4   -0.84    1.73
 -10  -3   4    0.50    1.33
 -10  -3   3    2.20    2.12
 -10  -3   3    1.65    1.56
 -10  -3   2   44.46    7.14
 -10  -3   2   48.96    7.88
  10   3   7    3.78    1.62
 -10  -3 -15    4.85    3.32
 -10  -3 -16    0.01    1.63
 -10  -4   9    2.23    2.55
 -10  -4   8    7.10    3.51
 -10  -4   7   20.35    5.78
 -10  -4   7   29.90    6.54
 -10  -4   6   -0.18    1.72
 -10  -4   6    0.33    1.62
 -10  -4   5    3.03    2.21
 -10  -4   4   -0.71    1.49
 -10  -4   3   11.93    4.10
 -10  -4   2   82.86    9.92
 -10  -4   1    0.76    1.72
 -10  -4   0   58.36    8.77
 -10  -4  -1    2.59    2.35
 -10  -4  -2    6.08    2.99
 -10  -4  -3   67.41    9.41
 -10  -4  -4    4.54    3.34
  10   4   4    2.07    1.88
  10   4   5   30.25    4.78
 -10  -4  -5   67.40   12.12
  10   4   6    0.43    1.00
  10   4   7    5.46    2.08
 -10  -4  -9   29.87    8.29
 -10  -4 -10   34.56    8.60
 -10  -4 -11    0.82    2.01
 -10  -4 -12    0.58    1.68
 -10  -4 -13   23.17    5.61
 -10  -4 -14   20.54    5.33
 -10  -4 -15   18.78    4.85
 -10  -4 -16    8.21    3.52
 -10  -5   9    0.18    2.00
 -10  -5   8    5.67    3.66
 -10  -5   7    1.60    2.55
 -10  -5   6   28.55    6.66
 -10  -5   5    4.17    2.69
 -10  -5   4   -0.03    1.73
 -10  -5   3   20.28    5.18
 -10  -5   2    1.11    1.84
 -10  -5   1   72.27    9.13
 -10  -5   0   33.99    6.77
 -10  -5  -1    1.18    1.82
 -10  -5  -2   18.08    4.72
 -10  -5  -3    9.42    3.47
 -10  -5  -4   73.36    9.63
 -10  -5  -5   79.08   10.06
 -10  -5  -6    1.59    1.92
 -10  -5  -7    0.03    1.47
 -10  -5  -8   11.67    4.19
 -10  -5  -9   38.55    7.05
 -10  -5 -10   53.73    8.21
 -10  -5 -11    0.18    1.56
 -10  -5 -12    1.76    2.04
 -10  -5 -13   18.04    4.99
 -10  -5 -14   11.34    3.77
 -10  -5 -15   55.93    7.85
 -10  -6   8   -1.26    2.19
 -10  -6   7    7.73    4.63
 -10  -6   6    9.90    4.82
 -10  -6   5    2.43    2.47
 -10  -6   4    0.92    1.77
 -10  -6   3    1.94    2.50
 -10  -6   2   37.71    7.44
 -10  -6   1   65.88    9.68
 -10  -6   0   10.14    3.84
 -10  -6  -1   39.12    7.39
 -10  -6  -2    0.72    1.86
 -10  -6  -3   13.59    4.18
 -10  -6  -4   26.63    5.56
 -10  -6  -5    1.96    2.07
 -10  -6  -6   15.80    4.35
 -10  -6  -7    1.06    1.94
 -10  -6  -8   12.00    3.82
 -10  -6  -9   73.82    9.05
 -10  -6 -10    1.77    1.85
 -10  -6 -11    6.72    2.90
 -10  -6 -12    1.31    1.62
 -10  -6 -13   -0.14    1.58
 -10  -6 -14   25.35    6.04
 -10  -6 -15    5.00    3.05
 -10  -7   6    4.18    3.24
 -10  -7   5    6.10    3.84
 -10  -7   4    0.21    2.06
 -10  -7   3    1.67    2.79
 -10  -7   2   13.68    6.20
 -10  -7   1    1.39    2.34
 -10  -7   0   76.99   10.93
 -10  -7  -1    5.05    3.12
 -10  -7  -2    0.25    1.51
 -10  -7  -3   16.08    5.06
 -10  -7  -4    2.28    2.33
 -10  -7  -5   47.95    8.41
 -10  -7  -6    5.41    3.33
 -10  -7  -7    1.12    2.09
 -10  -7  -8   25.07    5.96
 -10  -7  -9   10.23    4.16
 -10  -7 -10   51.55    8.70
 -10  -7 -11   29.26    6.52
 -10  -7 -12    1.98    2.09
 -10  -7 -13    0.59    2.03
 -10  -7 -14    9.17    3.98
 -10  -7 -15   13.05    4.99
 -10  -8   2   -2.50    3.12
 -10  -8   1   10.96    5.27
 -10  -8   0    7.96    4.49
 -10  -8  -1    5.50    3.78
 -10  -8  -2    0.00    1.92
 -10  -8  -3    1.54    2.57
 -10  -8  -4   10.13    4.47
 -10  -8  -5   14.98    4.95
 -10  -8  -6    0.23    1.83
 -10  -8  -7    7.45    4.01
 -10  -8  -8    2.17    2.08
 -10  -8  -9   13.47    5.09
 -10  -8 -10   15.50    5.51
 -10  -8 -11    0.22    1.86
 -10  -8 -12   -1.17    2.41
 -10  -8 -13    0.92    2.31
 -10  -8 -14    9.14    4.42
 -10  -8 -15   31.01    7.40
 -10  -9  -7   -0.21    2.20
 -10  -9  -8    0.47    2.62
 -10  -9  -9   12.72    6.12
 -11   5  -1   34.76    5.01
 -11   5  -2   65.55    7.92
 -11   4   8    7.94    4.40
 -11   4   7    0.61    1.96
 -11   4   6   -0.71    2.08
 -11   4   5   11.89    5.10
 -11   4   4    5.32    3.38
 -11   4   3   29.51    7.00
 -11   4   2   23.92    5.49
 -11   4   1   -0.59    1.42
 -11   4   0   32.62    5.34
 -11   4  -1   33.93    4.94
 -11   4  -2   15.58    3.14
 -11   4  -3   70.44    5.94
 -11   3   8   17.09    5.17
 -11   3   7    0.89    1.58
 -11   3   6    0.20    1.36
 -11   3   5    2.66    2.02
 -11   3   4   15.21    4.18
 -11   3   3   58.82    7.81
 -11   3   2    0.48    1.14
 -11   3   1    7.98    2.62
 -11   3   0   10.76    2.75
 -11   3  -1    2.53    1.42
 -11   3  -2   98.39    7.28
 -11   3  -3   30.84    4.07
 -11   3  -4    7.29    1.79
 -11   2   8    0.83    1.61
 -11   2   7   16.32    4.63
 -11   2   6   -0.94    2.75
 -11   2   5    3.63    2.08
 -11   2   4   73.03    8.40
 -11   2   3   11.90    3.35
 -11   2   2   39.11    5.58
 -11   2   1   38.31    5.36
 -11   2   0    0.63    1.19
 -11   2  -1   50.06    5.87
 -11   2  -2   47.12    5.25
 -11   2  -3   21.36    3.54
 -11   2  -4   61.11    5.59
 -11   2  -5    2.96    1.42
 -11   1   8   33.60    6.49
 -11   1   7   22.68    5.18
 -11   1   6   -0.32    1.20
 -11   1   5    3.82    2.16
 -11   1   4   10.09    3.40
 -11   1   3   38.08    6.15
 -11   1   2   95.04    9.18
 -11   1   1    0.81    1.08
 -11   1   0    0.26    0.94
 -11   1  -1   19.38    3.88
 -11   1  -2    6.98    2.16
 -11   1  -3  130.37    8.71
 -11   1  -4   18.94    3.40
 -11   0   9    1.49    1.59
 -11   0   8   51.08    8.15
 -11   0   7   -0.82    1.82
 -11   0   6   15.68    4.42
 -11   0   5   -1.00    1.42
 -11   0   4   10.41    3.44
 -11   0   3   65.53    7.98
 -11   0   2   14.58    3.93
 -11   0   1   50.81    6.92
 -11   0   0    9.67    3.05
 -11   0  -1    1.81    1.51
 -11   0  -2  159.04   10.48
 -11   0  -3   64.94    7.13
 -11  -1   9    5.07    2.81
 -11  -1   8   -0.29    2.12
 -11  -1   8    0.39    1.56
 -11  -1   7   23.72    6.06
 -11  -1   7   35.85    7.25
 -11  -1   6    8.42    3.42
 -11  -1   5    0.78    1.60
 -11  -1   4   15.55    4.63
 -11  -1   3   12.36    3.84
 -11  -1   2   64.98    8.61
 -11  -1   1   68.04    7.99
 -11  -1   0    0.81    1.10
 -11  -1  -1    3.47    1.90
 -11  -2   9    1.28    2.13
 -11  -2   8   14.35    4.45
 -11  -2   7   37.98    6.99
 -11  -2   7   24.77    6.31
 -11  -2   6    0.97    2.24
 -11  -2   6    1.84    1.85
 -11  -2   5    2.99    2.72
 -11  -2   5    1.19    1.60
 -11  -2   4    0.45    3.07
 -11  -2   4    0.86    1.69
 -11  -2   3   13.17    4.00
 -11  -2   2  111.45   11.55
 -11  -2   1    0.55    1.30
 -11  -3   9    1.11    2.42
 -11  -3   8   15.14    4.67
 -11  -3   7    0.07    1.55
 -11  -3   7    0.33    1.69
 -11  -3   6   24.33    6.40
 -11  -3   6   34.60    7.08
 -11  -3   5    5.74    3.25
 -11  -3   5    9.26    4.05
 -11  -3   4   -0.63    1.86
 -11  -3   4   -1.02    1.75
 -11  -3   3   13.29    4.39
 -11  -3   3   13.18    4.44
 -11  -3   2    3.10    2.58
 -11  -3   1   98.15   15.57
 -11  -3 -15   53.01   11.11
 -11  -3 -16    4.87    3.01
 -11  -4   8   -1.56    2.52
 -11  -4   7   36.89    7.62
 -11  -4   6   27.57    6.34
 -11  -4   5    0.15    1.47
 -11  -4   4    0.90    1.76
 -11  -4   3    5.04    2.88
 -11  -4   2   49.34    7.98
 -11  -4   1   81.69   10.74
 -11  -4   0    3.65    2.92
 -11  -4  -1   10.20    4.09
 -11  -4  -2    0.36    1.45
 -11  -4  -3   27.46    6.31
 -11  -4  -4  121.98   14.48
 -11  -4  -5    4.96    4.36
 -11  -4  -9  131.45   17.73
 -11  -4 -10    6.40    4.24
 -11  -4 -11   12.18    4.80
 -11  -4 -12    2.04    2.93
 -11  -4 -13   -0.97    1.56
 -11  -4 -14   27.89    6.36
 -11  -4 -15    7.02    3.42
 -11  -5   8    5.44    3.99
 -11  -5   7   19.28    6.23
 -11  -5   6    1.88    2.26
 -11  -5   5   23.56    6.32
 -11  -5   4    0.91    1.63
 -11  -5   3    2.32    2.73
 -11  -5   2   34.06    6.70
 -11  -5   1    1.89    2.33
 -11  -5   0   69.99   10.12
 -11  -5  -1    9.32    3.80
 -11  -5  -2    1.80    1.95
 -11  -5  -3   60.56    8.99
 -11  -5  -4    7.39    3.54
 -11  -5  -5   94.41   11.55
 -11  -5  -6   42.96    7.87
 -11  -5  -7    1.54    2.22
 -11  -5  -8   13.38    4.47
 -11  -5  -9   12.82    4.27
 -11  -5 -10   35.17    7.18
 -11  -5 -11   23.95    5.84
 -11  -5 -12    1.28    2.14
 -11  -5 -13    2.30    2.30
 -11  -5 -14    8.70    3.86
 -11  -5 -15   13.82    4.16
 -11  -6   4    0.77    2.01
 -11  -6   3    0.05    1.71
 -11  -6   2    0.38    1.88
 -11  -6   1   59.29    9.58
 -11  -6   0   44.87    8.29
 -11  -6  -1    9.96    4.07
 -11  -6  -2    3.41    2.94
 -11  -6  -3    0.47    1.44
 -11  -6  -4   20.79    5.21
 -11  -6  -5   55.93    8.60
 -11  -6  -6    3.45    2.19
 -11  -6  -7    9.84    3.72
 -11  -6  -8    1.55    2.01
 -11  -6  -9   18.06    4.87
 -11  -6 -10   53.24    8.21
 -11  -6 -11    1.38    1.56
 -11  -6 -12   14.95    4.42
 -11  -6 -13   -1.96    3.22
 -11  -6 -14    1.30    2.01
 -11  -6 -15   28.53    6.83
 -11  -7   0    4.27    3.04
 -11  -7  -1   40.52    8.10
 -11  -7  -2    1.15    2.25
 -11  -7  -3    8.23    3.65
 -11  -7  -4   27.46    6.71
 -11  -7  -5    0.32    1.51
 -11  -7  -6   26.54    6.51
 -11  -7  -7    3.22    2.38
 -11  -7  -8    0.47    1.91
 -11  -7  -9   59.33    9.71
 -11  -7 -10    2.27    2.09
 -11  -7 -11   24.71    6.43
 -11  -7 -12   12.98    4.44
 -11  -7 -13   -1.72    2.44
 -11  -7 -14    9.61    4.33
 -12   5   6   -0.56    1.55
 -12   5   5    1.81    2.34
 -12   5   4    4.38    3.15
 -12   5   3   16.50    5.24
 -12   5   2    0.82    2.01
 -12   5   1    1.08    1.49
 -12   5   0   23.19    4.68
 -12   4   7    4.45    3.03
 -12   4   6   -0.12    1.49
 -12   4   5    1.15    1.76
 -12   4   4   13.28    4.23
 -12   4   3    2.50    2.02
 -12   4   2   16.09    4.12
 -12   4   1    6.50    2.57
 -12   4   0    0.65    1.12
 -12   4  -1   18.96    3.75
 -12   3   7   12.29    4.13
 -12   3   6   -0.76    1.76
 -12   3   5    0.76    1.13
 -12   3   4    1.98    2.01
 -12   3   3   11.89    3.55
 -12   3   2   25.80    4.84
 -12   3   1    0.92    1.45
 -12   3   0    0.41    1.14
 -12   3  -1   11.92    3.10
 -12   3  -2    2.87    1.50
 -12   2   7   -0.23    1.13
 -12   2   6    2.10    1.83
 -12   2   5    1.15    1.58
 -12   2   4    3.76    2.33
 -12   2   3   40.36    6.31
 -12   2   2    5.20    2.71
 -12   2   1   24.87    4.74
 -12   2   0   -0.45    1.20
 -12   2  -1    0.64    1.03
 -12   2  -2   43.20    5.76
 -12   2  -3   23.41    4.11
 -12   1   7   16.44    4.69
 -12   1   6    7.68    3.28
 -12   1   5   -0.19    1.12
 -12   1   4    7.42    2.94
 -12   1   3    1.86    1.79
 -12   1   2   14.01    3.78
 -12   1   1   35.46    5.86
 -12   1   0    1.26    1.21
 -12   1  -1    2.73    1.70
 -12   1  -2   14.76    3.36
 -12   1  -3    5.70    2.29
 -12   0   8    6.24    4.36
 -12   0   7   17.99    5.17
 -12   0   6    1.00    1.80
 -12   0   5    1.32    1.76
 -12   0   4    0.29    1.41
 -12   0   3    5.52    2.92
 -12   0   2   47.24    7.40
 -12   0   1    0.31    1.41
 -12   0   0    9.15    3.12
 -12   0  -1    8.64    2.84
 -12   0  -2    2.31    1.67
 -12  -1   8    2.09    2.28
 -12  -1   7   -1.35    1.93
 -12  -1   6   22.34    8.11
 -12  -1   6   14.23    4.65
 -12  -1   5    0.94    1.76
 -12  -1   4    1.01    2.11
 -12  -1   3   11.49    3.87
 -12  -1   2    5.54    2.71
 -12  -1   1   35.25    6.17
 -12  -1   0   30.80    5.93
 -12  -2   8    0.86    1.97
 -12  -2   7   10.19    4.05
 -12  -2   6    8.65    3.92
 -12  -2   6    4.89    2.97
 -12  -2   5    0.62    1.55
 -12  -2   5    2.38    2.61
 -12  -2   4    0.03    2.15
 -12  -2   4    0.55    1.53
 -12  -2   3    3.69    2.60
 -12  -2   2   12.53    4.12
 -12  -3   7    9.37    3.95
 -12  -3   6    1.77    2.08
 -12  -3   5    9.33    4.23
 -12  -3   5   13.36    4.69
 -12  -3   4    3.22    2.55
 -12  -3   3    0.84    1.99
 -12  -3   2   19.84    5.60
 -12  -3   1   -0.07    1.82
 -12  -3 -15    2.74    3.69
 -12  -4   4   -0.82    1.51
 -12  -4   3   -0.65    2.17
 -12  -4   2    1.95    2.18
 -12  -4   1   28.11    6.51
 -12  -4   0   34.01    7.45
 -12  -4  -1    1.10    2.14
 -12  -4  -2   -0.16    1.56
 -12  -4  -3    1.45    2.22
 -12  -4  -4   25.00    6.51
 -12  -4  -5   68.72   11.47
 -12  -4  -6    0.76    2.51
 -12  -4  -7    2.83    4.15
 -12  -4  -8    6.50    5.29
 -12  -4  -9   16.13    6.37
 -12  -4 -10   67.82   11.10
 -12  -4 -11    0.65    1.57
 -12  -4 -12    5.70    3.32
 -12  -4 -13    0.64    1.91
 -12  -4 -14   -0.14    1.63
 -12  -4 -15   20.27    5.89
 -12  -5   1   29.44    6.41
 -12  -5   0    1.10    2.14
 -12  -5  -1   20.83    5.82
 -12  -5  -2   -0.62    1.63
 -12  -5  -3   10.74    4.01
 -12  -5  -4   48.13    8.71
 -12  -5  -5    2.14    2.30
 -12  -5  -6   31.07    6.95
 -12  -5  -7    7.43    3.72
 -12  -5  -8    0.38    2.06
 -12  -5  -9   50.05    8.97
 -12  -5 -10    5.85    3.55
 -12  -5 -11   16.76    5.20
 -12  -5 -12   15.76    5.45
 -12  -5 -13    2.61    2.64
 -13   6   4    0.61    2.34
 -13   5   5    0.11    1.57
 -13   5   4    1.33    1.91
 -13   5   3    1.48    1.72
 -13   4   5    1.03    1.84
 -13   4   4    0.67    1.37
 -13   4   3    4.14    2.46
 -13   4   2    0.28    1.31
 -13   4   1    1.92    1.49
 -13   3   5   -0.42    1.09
 -13   3   4    0.50    1.47
 -13   3   3    0.01    1.33
 -13   3   2    5.35    2.54
 -13   3   1    4.48    2.38
 -13   3   0   -0.15    1.07
 -13   2   5    3.04    2.28
 -13   2   4    0.94    1.58
 -13   2   3    0.89    1.26
 -13   2   2    7.31    2.85
 -13   2   1   -0.20    1.07
 -13   2   0    0.29    1.11
 -13   2  -1    2.01    1.62
 -13   1   5    3.79    2.57
 -13   1   4   -0.64    1.50
 -13   1   3    0.23    1.37
 -13   1   2    1.82    1.97
 -13   1   1    8.61    3.16
 -13   1   0    2.17    1.95
 -13   1  -1   -1.55    1.45
 -13   0   5    1.55    2.00
 -13   0   4    1.92    2.59
 -13   0   3    0.03    1.41
 -13   0   2    0.90    1.49
 -13   0   1    2.44    1.95
 -13   0   0    0.47    1.27
 -13   0  -1    4.07    2.39
 -13  -1   4    3.30    2.73
 -13  -1   3    1.33    1.87
 -13  -1   2    2.58    2.47
 -13  -1   1    0.10    1.35
 -13  -1   0    5.92    3.24
 -13  -2   4   -0.14    1.55
 -13  -2   3    1.37    2.25
 -14   2   3    4.52    2.52
 -14   1   3    2.03    2.29
 -14   1   2   16.17    4.94
 -14   0   3    3.29    2.53
 -14   0   2    3.75    2.81
 -14   0   1    6.49    3.29
 -14  -1   3    2.13    2.14
 -14  -1   2    2.39    2.41
   0   0   0    0.00    0.00


TITL VT-31_autored in P-1
REM P-1 (#2 in standard setting)
CELL 0.71073  10.858728  10.919146  15.745279  81.2206  79.0906  89.8484
ZERR   21.00   0.001697   0.001514   0.002312   0.0118   0.0129   0.0122
LATT  1
SFAC C H N O Zn I
UNIT 21.00 21.00 21.00 21.00 21.00 21.00
REM  CrysAlisPro recorded range (K): Min=289.3; max=290.1; aver:289.7
TEMP 17
TREF
HKLF 4
END
_computing_structure_solution     'SHELXT 2018/2 (Sheldrick, 2018)'
;
_shelx_hkl_checksum   31534

