 
data_VV14_a
 
_audit_creation_method            'SHELXL-2018/3'
_shelx_SHELXL_version_number      '2018/3'
_chemical_name_systematic         ?
_chemical_name_common             ?
_chemical_melting_point           ?
_chemical_formula_moiety          ?
_chemical_formula_sum
 'C11.50 H11.50 N11.50 O11.50 Zn11.50' 
_chemical_formula_weight          1246.58

loop_
 _atom_type_symbol
 _atom_type_description
 _atom_type_scat_dispersion_real
 _atom_type_scat_dispersion_imag
 _atom_type_scat_source
 'C'  'C'   0.0033   0.0016
 'International Tables Vol C Tables 4.2.6.8 and 6.1.1.4'
 'H'  'H'   0.0000   0.0000
 'International Tables Vol C Tables 4.2.6.8 and 6.1.1.4'
 'N'  'N'   0.0061   0.0033
 'International Tables Vol C Tables 4.2.6.8 and 6.1.1.4'
 'O'  'O'   0.0106   0.0060
 'International Tables Vol C Tables 4.2.6.8 and 6.1.1.4'
 'Zn'  'Zn'   0.2839   1.4301
 'International Tables Vol C Tables 4.2.6.8 and 6.1.1.4'
 
_space_group_crystal_system       monoclinic
_space_group_IT_number            14
_space_group_name_H-M_alt         'P 21/n'
_space_group_name_Hall            '-P 2yn'
 
_shelx_space_group_comment
;
The symmetry employed for this shelxl refinement is uniquely defined
by the following loop, which should always be used as a source of
symmetry information in preference to the above space-group names.
They are only intended as comments.
;
 
loop_
 _space_group_symop_operation_xyz
 'x, y, z'
 '-x+1/2, y+1/2, -z+1/2'
 '-x, -y, -z'
 'x-1/2, -y-1/2, z-1/2'
 
_cell_length_a                    6.7358(2)
_cell_length_b                    14.9981(4)
_cell_length_c                    18.0621(4)
_cell_angle_alpha                 90
_cell_angle_beta                  94.9470(10)
_cell_angle_gamma                 90
_cell_volume                      1817.91(8)
_cell_formula_units_Z             2
_cell_measurement_temperature     150(2)
_cell_measurement_reflns_used     ?
_cell_measurement_theta_min       ?
_cell_measurement_theta_max       ?
 
_exptl_crystal_description        ?
_exptl_crystal_colour             ?
_exptl_crystal_density_meas       ?
_exptl_crystal_density_method     ?
_exptl_crystal_density_diffrn     2.277          
_exptl_crystal_F_000              1196
_exptl_transmission_factor_min    ?
_exptl_transmission_factor_max    ?
_exptl_crystal_size_max           ?
_exptl_crystal_size_mid           ?
_exptl_crystal_size_min           ?
_exptl_absorpt_coefficient_mu     7.495
_shelx_estimated_absorpt_T_min    ?
_shelx_estimated_absorpt_T_max    ?
_exptl_absorpt_correction_type    ?
_exptl_absorpt_correction_T_min   ?
_exptl_absorpt_correction_T_max   ?
_exptl_absorpt_process_details    ?
_exptl_absorpt_special_details    ?
_diffrn_ambient_temperature       150(2)
_diffrn_radiation_wavelength      0.71073
_diffrn_radiation_type            MoK\a
_diffrn_source                    ?
_diffrn_measurement_device_type   ?
_diffrn_measurement_method        ?
_diffrn_detector_area_resol_mean  ?
_diffrn_reflns_number             20049
_diffrn_reflns_av_unetI/netI      0.0422
_diffrn_reflns_av_R_equivalents   0.0466
_diffrn_reflns_limit_h_min        -8
_diffrn_reflns_limit_h_max        8
_diffrn_reflns_limit_k_min        -19
_diffrn_reflns_limit_k_max        20
_diffrn_reflns_limit_l_min        -22
_diffrn_reflns_limit_l_max        24
_diffrn_reflns_theta_min          1.768
_diffrn_reflns_theta_max          28.304
_diffrn_reflns_theta_full         25.242
_diffrn_measured_fraction_theta_max   0.999
_diffrn_measured_fraction_theta_full  0.999
_diffrn_reflns_Laue_measured_fraction_max    0.999
_diffrn_reflns_Laue_measured_fraction_full   0.999
_diffrn_reflns_point_group_measured_fraction_max   0.999
_diffrn_reflns_point_group_measured_fraction_full  0.999
_reflns_number_total              4488
_reflns_number_gt                 3548
_reflns_threshold_expression      'I > 2\s(I)'
_reflns_Friedel_coverage          0.000
_reflns_Friedel_fraction_max      .
_reflns_Friedel_fraction_full     .
 
_reflns_special_details
;
 Reflections were merged by SHELXL according to the crystal
 class for the calculation of statistics and refinement.
 
 _reflns_Friedel_fraction is defined as the number of unique
 Friedel pairs measured divided by the number that would be
 possible theoretically, ignoring centric projections and
 systematic absences.
;
 
_computing_data_collection        ?
_computing_cell_refinement        ?
_computing_data_reduction         ?
_computing_structure_solution     'SHELXT 2018/2 (Sheldrick, 2018)'
_computing_structure_refinement 'SHELXL-2018/3 (Sheldrick, 2018)'
_computing_molecular_graphics     ?
_computing_publication_material   ?
_refine_special_details           ?
_refine_ls_structure_factor_coef  Fsqd
_refine_ls_matrix_type            full
_refine_ls_weighting_scheme       calc
_refine_ls_weighting_details
'w=1/[\s^2^(Fo^2^)+(0.0869P)^2^+2.8830P] where P=(Fo^2^+2Fc^2^)/3'
_atom_sites_solution_primary      ?
_atom_sites_solution_secondary    ?
_atom_sites_solution_hydrogens    mixed
_refine_ls_hydrogen_treatment     mixed
_refine_ls_extinction_method      none
_refine_ls_extinction_coef        .
_refine_ls_number_reflns          4488
_refine_ls_number_parameters      277
_refine_ls_number_restraints      0
_refine_ls_R_factor_all           0.0704
_refine_ls_R_factor_gt            0.0542
_refine_ls_wR_factor_ref          0.1604
_refine_ls_wR_factor_gt           0.1526
_refine_ls_goodness_of_fit_ref    1.062
_refine_ls_restrained_S_all       1.062
_refine_ls_shift/su_max           0.001
_refine_ls_shift/su_mean          0.000
 
loop_
 _atom_site_label
 _atom_site_type_symbol
 _atom_site_fract_x
 _atom_site_fract_y
 _atom_site_fract_z
 _atom_site_U_iso_or_equiv
 _atom_site_adp_type
 _atom_site_occupancy
 _atom_site_site_symmetry_order  
 _atom_site_calc_flag
 _atom_site_refinement_flags_posn
 _atom_site_refinement_flags_adp
 _atom_site_refinement_flags_occupancy
 _atom_site_disorder_assembly
 _atom_site_disorder_group
Zn Zn 0.91710(6) 0.66210(3) 0.71946(2) 0.02081(15) Uani 1 1 d . . . . .
O1 O 0.0606(5) 0.1913(2) 0.47732(16) 0.0385(7) Uani 1 1 d . . . . .
O2 O 1.2534(5) 0.6486(2) 0.6058(2) 0.0481(9) Uani 1 1 d . . . . .
O3 O 1.1152(4) 0.7425(2) 0.68369(15) 0.0340(6) Uani 1 1 d . . . . .
O4 O 0.3742(5) 0.5080(3) 0.7926(2) 0.0527(10) Uani 1 1 d . . . . .
H1B H 0.496(11) 0.524(4) 0.815(4) 0.079 Uiso 1 1 d . U . . .
H1C H 0.415(10) 0.443(5) 0.810(4) 0.079 Uiso 1 1 d . U . . .
O5 O 1.0549(4) 0.6220(2) 0.81533(15) 0.0316(6) Uani 1 1 d . . . . .
O6 O 0.7657(4) 0.55608(18) 0.82517(15) 0.0298(6) Uani 1 1 d . . . . .
N1 N 0.8077(4) 0.56445(19) 0.65020(16) 0.0211(6) Uani 1 1 d . . . . .
N2 N 0.6201(4) 0.4541(2) 0.60392(16) 0.0214(6) Uani 1 1 d . . . . .
N3 N -0.2034(4) 0.24842(19) 0.75306(17) 0.0227(6) Uani 1 1 d . . . . .
N4 N 0.0350(4) 0.30945(19) 0.69387(16) 0.0208(6) Uani 1 1 d . . . . .
N5 N 0.2284(5) 0.2364(2) 0.45735(18) 0.0303(7) Uani 1 1 d . . . . .
N6 N 0.0136(5) 0.2135(2) 0.54813(18) 0.0338(8) Uani 1 1 d . . . . .
C1 C 0.6370(5) 0.5213(2) 0.65425(19) 0.0220(7) Uani 1 1 d . . . . .
H1 H 0.540374 0.535436 0.687713 0.026 Uiso 1 1 calc R U . . .
C2 C 0.9025(5) 0.5227(2) 0.5951(2) 0.0245(7) Uani 1 1 d . . . . .
H2 H 1.029162 0.539044 0.580051 0.029 Uiso 1 1 calc R U . . .
C3 C 0.7896(5) 0.4555(3) 0.5659(2) 0.0253(7) Uani 1 1 d . . . . .
H3 H 0.820226 0.416659 0.526948 0.030 Uiso 1 1 calc R U . . .
C4 C -0.1759(6) 0.3355(2) 0.7766(2) 0.0271(8) Uani 1 1 d . . . . .
H4 H -0.249549 0.364169 0.812289 0.033 Uiso 1 1 calc R U . . .
C5 C -0.0291(6) 0.3738(2) 0.7414(2) 0.0250(7) Uani 1 1 d . . . . .
H5 H 0.020233 0.432855 0.747851 0.030 Uiso 1 1 calc R U . . .
C6 C -0.0755(5) 0.2353(2) 0.7027(2) 0.0256(8) Uani 1 1 d . . . . .
H6 H -0.062640 0.181221 0.676215 0.031 Uiso 1 1 calc R U . . .
C7 C 0.1745(5) 0.3202(2) 0.64008(19) 0.0205(7) Uani 1 1 d . . . . .
C8 C 0.3307(5) 0.3784(2) 0.64956(19) 0.0221(7) Uani 1 1 d . . . . .
H8 H 0.354308 0.410125 0.695019 0.026 Uiso 1 1 calc R U . . .
C9 C 0.4599(5) 0.3920(2) 0.5910(2) 0.0223(7) Uani 1 1 d . . . . .
C10 C 0.4400(6) 0.3479(2) 0.5247(2) 0.0261(8) Uani 1 1 d . . . . .
H10 H 0.527435 0.357794 0.487009 0.031 Uiso 1 1 calc R U . . .
C11 C 0.2788(6) 0.2855(2) 0.5158(2) 0.0253(7) Uani 1 1 d . . . . .
C12 C 0.1478(5) 0.2717(2) 0.5719(2) 0.0241(7) Uani 1 1 d . . . . .
C13 C 0.9344(6) 0.5774(2) 0.8524(2) 0.0257(8) Uani 1 1 d . . . . .
C14 C 1.0524(8) 0.4501(3) 0.9348(3) 0.0453(11) Uani 1 1 d . . . . .
H14A H 0.929444 0.416885 0.918316 0.054 Uiso 1 1 calc R U . . .
H14B H 1.154735 0.435447 0.900565 0.054 Uiso 1 1 calc R U . . .
C15 C 1.0091(7) 0.5517(3) 0.9316(2) 0.0355(10) Uani 1 1 d . . . . .
H15 H 1.138474 0.583255 0.943939 0.043 Uiso 1 1 calc R U . . .
C16 C 0.8740(8) 0.5790(4) 0.9861(3) 0.0474(12) Uani 1 1 d . . . . .
H16A H 0.740939 0.552665 0.972672 0.057 Uiso 1 1 calc R U . . .
H16B H 0.859808 0.644647 0.984752 0.057 Uiso 1 1 calc R U . . .
C17 C 1.2389(6) 0.7210(3) 0.6371(2) 0.0319(9) Uani 1 1 d . . . . .
H17 H 1.330177 0.765966 0.625100 0.038 Uiso 1 1 calc R U . . .
 
loop_
 _atom_site_aniso_label
 _atom_site_aniso_U_11
 _atom_site_aniso_U_22
 _atom_site_aniso_U_33
 _atom_site_aniso_U_23
 _atom_site_aniso_U_13
 _atom_site_aniso_U_12
Zn01 0.0209(2) 0.0212(2) 0.0205(2) 0.00088(15) 0.00307(15) 0.00084(16)
O1 0.0428(18) 0.0421(17) 0.0313(16) -0.0087(13) 0.0059(13) -0.0113(14)
O2 0.0392(18) 0.0446(19) 0.063(2) -0.0135(16) 0.0215(16) -0.0138(15)
O3 0.0361(15) 0.0402(16) 0.0267(14) -0.0014(12) 0.0087(12) -0.0136(13)
O4 0.0406(19) 0.063(2) 0.056(2) -0.0278(19) 0.0164(16) -0.0109(18)
O5 0.0308(14) 0.0371(16) 0.0267(14) 0.0096(12) 0.0023(11) 0.0020(12)
O6 0.0339(15) 0.0299(14) 0.0256(14) 0.0018(11) 0.0036(11) 0.0020(12)
N1 0.0219(14) 0.0209(14) 0.0210(14) -0.0002(11) 0.0042(11) -0.0005(12)
N2 0.0226(14) 0.0211(14) 0.0209(15) 0.0000(11) 0.0041(11) -0.0001(12)
N3 0.0236(15) 0.0194(14) 0.0256(15) -0.0005(11) 0.0040(12) -0.0024(12)
N4 0.0241(15) 0.0177(14) 0.0209(14) 0.0005(11) 0.0044(11) -0.0017(12)
N5 0.0332(17) 0.0335(18) 0.0248(16) -0.0040(13) 0.0057(13) -0.0036(14)
N6 0.0388(19) 0.0373(19) 0.0252(16) -0.0048(14) 0.0026(14) -0.0060(16)
C1 0.0206(16) 0.0250(18) 0.0213(17) -0.0020(13) 0.0066(13) 0.0015(14)
C2 0.0232(17) 0.0276(19) 0.0239(18) 0.0005(14) 0.0085(14) -0.0018(14)
C3 0.0251(18) 0.0291(19) 0.0225(17) -0.0021(14) 0.0069(14) 0.0009(15)
C4 0.037(2) 0.0217(18) 0.0236(18) -0.0033(14) 0.0072(15) -0.0020(15)
C5 0.036(2) 0.0198(17) 0.0197(16) -0.0031(13) 0.0066(14) -0.0046(15)
C6 0.0249(18) 0.0209(17) 0.0316(19) -0.0019(14) 0.0049(15) -0.0041(14)
C7 0.0240(17) 0.0175(16) 0.0203(16) 0.0020(12) 0.0037(13) 0.0004(13)
C8 0.0237(17) 0.0211(17) 0.0218(17) -0.0023(13) 0.0038(13) 0.0017(14)
C9 0.0212(16) 0.0194(16) 0.0261(18) 0.0004(13) 0.0013(13) -0.0028(13)
C10 0.0261(18) 0.0255(19) 0.0272(19) -0.0029(14) 0.0055(15) 0.0023(15)
C11 0.0291(19) 0.0220(17) 0.0242(18) -0.0041(14) -0.0011(14) 0.0049(15)
C12 0.0255(17) 0.0193(16) 0.0272(18) 0.0006(14) 0.0005(14) -0.0003(14)
C13 0.034(2) 0.0220(17) 0.0208(17) 0.0004(13) 0.0011(14) 0.0053(15)
C14 0.054(3) 0.042(3) 0.040(3) 0.000(2) 0.007(2) 0.010(2)
C15 0.057(3) 0.028(2) 0.0205(19) 0.0029(15) -0.0049(18) -0.0124(19)
C16 0.056(3) 0.047(3) 0.039(2) 0.001(2) 0.003(2) 0.012(2)
C17 0.0277(19) 0.035(2) 0.034(2) 0.0002(17) 0.0040(16) -0.0072(17)
 
_geom_special_details
;
 All esds (except the esd in the dihedral angle between two l.s. planes)
 are estimated using the full covariance matrix.  The cell esds are taken
 into account individually in the estimation of esds in distances, angles
 and torsion angles; correlations between esds in cell parameters are only
 used when they are defined by crystal symmetry.  An approximate (isotropic)
 treatment of cell esds is used for estimating esds involving l.s. planes.
;
 
loop_
 _geom_bond_atom_site_label_1
 _geom_bond_atom_site_label_2
 _geom_bond_distance
 _geom_bond_site_symmetry_2
 _geom_bond_publ_flag
Zn01 O3 1.950(3) . ?
Zn01 O5 1.986(3) . ?
Zn01 N1 2.023(3) . ?
Zn01 N3 2.029(3) 2_556 ?
O1 N6 1.384(4) . ?
O1 N5 1.391(4) . ?
O2 C17 1.232(5) . ?
O3 C17 1.276(5) . ?
O4 H1B 0.91(7) . ?
O4 H1C 1.05(7) . ?
O5 C13 1.284(5) . ?
O6 C13 1.241(5) . ?
N1 C1 1.327(5) . ?
N1 C2 1.378(4) . ?
N2 C1 1.355(4) . ?
N2 C3 1.382(5) . ?
N2 C9 1.429(4) . ?
N3 C6 1.320(5) . ?
N3 C4 1.380(4) . ?
N4 C6 1.355(5) . ?
N4 C5 1.385(4) . ?
N4 C7 1.417(4) . ?
N5 C11 1.308(5) . ?
N6 C12 1.303(5) . ?
C1 H1 0.9500 . ?
C2 C3 1.343(5) . ?
C2 H2 0.9500 . ?
C3 H3 0.9500 . ?
C4 C5 1.350(5) . ?
C4 H4 0.9500 . ?
C5 H5 0.9500 . ?
C6 H6 0.9500 . ?
C7 C8 1.367(5) . ?
C7 C12 1.429(5) . ?
C8 C9 1.441(5) . ?
C8 H8 0.9500 . ?
C9 C10 1.364(5) . ?
C10 C11 1.431(5) . ?
C10 H10 0.9500 . ?
C11 C12 1.415(5) . ?
C13 C15 1.525(5) . ?
C14 C16 1.534(7) 3_767 ?
C14 C15 1.551(6) . ?
C14 H14A 0.9900 . ?
C14 H14B 0.9900 . ?
C15 C16 1.456(7) . ?
C15 H15 1.0000 . ?
C16 H16A 0.9900 . ?
C16 H16B 0.9900 . ?
C17 H17 0.9500 . ?
 
loop_
 _geom_angle_atom_site_label_1
 _geom_angle_atom_site_label_2
 _geom_angle_atom_site_label_3
 _geom_angle
 _geom_angle_site_symmetry_1
 _geom_angle_site_symmetry_3
 _geom_angle_publ_flag
O3 Zn01 O5 101.21(12) . . ?
O3 Zn01 N1 117.79(12) . . ?
O5 Zn01 N1 115.98(12) . . ?
O3 Zn01 N3 101.90(13) . 2_556 ?
O5 Zn01 N3 105.54(12) . 2_556 ?
N1 Zn01 N3 112.63(12) . 2_556 ?
N6 O1 N5 112.3(3) . . ?
C17 O3 Zn01 124.5(3) . . ?
H1B O4 H1C 84(5) . . ?
C13 O5 Zn01 110.1(2) . . ?
C1 N1 C2 106.0(3) . . ?
C1 N1 Zn01 126.2(2) . . ?
C2 N1 Zn01 127.5(2) . . ?
C1 N2 C3 107.2(3) . . ?
C1 N2 C9 127.8(3) . . ?
C3 N2 C9 125.0(3) . . ?
C6 N3 C4 105.9(3) . . ?
C6 N3 Zn01 126.3(2) . 2_546 ?
C4 N3 Zn01 127.4(2) . 2_546 ?
C6 N4 C5 107.1(3) . . ?
C6 N4 C7 125.3(3) . . ?
C5 N4 C7 127.3(3) . . ?
C11 N5 O1 103.0(3) . . ?
C12 N6 O1 104.9(3) . . ?
N1 C1 N2 110.5(3) . . ?
N1 C1 H1 124.8 . . ?
N2 C1 H1 124.8 . . ?
C3 C2 N1 110.0(3) . . ?
C3 C2 H2 125.0 . . ?
N1 C2 H2 125.0 . . ?
C2 C3 N2 106.3(3) . . ?
C2 C3 H3 126.8 . . ?
N2 C3 H3 126.8 . . ?
C5 C4 N3 110.0(3) . . ?
C5 C4 H4 125.0 . . ?
N3 C4 H4 125.0 . . ?
C4 C5 N4 106.0(3) . . ?
C4 C5 H5 127.0 . . ?
N4 C5 H5 127.0 . . ?
N3 C6 N4 110.9(3) . . ?
N3 C6 H6 124.5 . . ?
N4 C6 H6 124.5 . . ?
C8 C7 N4 122.4(3) . . ?
C8 C7 C12 118.1(3) . . ?
N4 C7 C12 119.4(3) . . ?
C7 C8 C9 120.4(3) . . ?
C7 C8 H8 119.8 . . ?
C9 C8 H8 119.8 . . ?
C10 C9 N2 118.4(3) . . ?
C10 C9 C8 123.8(3) . . ?
N2 C9 C8 117.9(3) . . ?
C9 C10 C11 115.6(3) . . ?
C9 C10 H10 122.2 . . ?
C11 C10 H10 122.2 . . ?
N5 C11 C12 111.1(3) . . ?
N5 C11 C10 126.9(4) . . ?
C12 C11 C10 122.0(3) . . ?
N6 C12 C11 108.7(3) . . ?
N6 C12 C7 131.1(3) . . ?
C11 C12 C7 120.2(3) . . ?
O6 C13 O5 121.8(3) . . ?
O6 C13 C15 121.5(4) . . ?
O5 C13 C15 116.7(3) . . ?
C16 C14 C15 111.0(4) 3_767 . ?
C16 C14 H14A 109.4 3_767 . ?
C15 C14 H14A 109.4 . . ?
C16 C14 H14B 109.4 3_767 . ?
C15 C14 H14B 109.4 . . ?
H14A C14 H14B 108.0 . . ?
C16 C15 C13 112.9(4) . . ?
C16 C15 C14 112.2(4) . . ?
C13 C15 C14 109.3(3) . . ?
C16 C15 H15 107.4 . . ?
C13 C15 H15 107.4 . . ?
C14 C15 H15 107.4 . . ?
C15 C16 C14 112.3(4) . 3_767 ?
C15 C16 H16A 109.1 . . ?
C14 C16 H16A 109.1 3_767 . ?
C15 C16 H16B 109.1 . . ?
C14 C16 H16B 109.1 3_767 . ?
H16A C16 H16B 107.9 . . ?
O2 C17 O3 127.4(4) . . ?
O2 C17 H17 116.3 . . ?
O3 C17 H17 116.3 . . ?
 
_refine_diff_density_max    2.207
_refine_diff_density_min   -0.638
_refine_diff_density_rms    0.111

_shelx_res_file
;
TITL VV14_a.res in P2(1)/n
    VV14_a.res
    created by SHELXL-2018/3 at 17:38:26 on 04-May-2023
REM Old TITL VV14 in P2(1)/n
REM SHELXT solution in P2(1)/n: R1 0.098, Rweak 0.006, Alpha 0.032
REM <I/s>   0.826 for  158 systematic absences,  Orientation as input
REM Formula found by SHELXT:  C19 N8 O2 Zn
CELL  0.71073   6.7358  14.9981  18.0621   90.000   94.947   90.000
ZERR  2   0.0002   0.0004   0.0004    0.000    0.001    0.000
LATT  1
SYMM 1/2-X, 1/2+Y, 1/2-Z
SFAC C H N O ZN
UNIT 23 23 23 23 23
TEMP -123.150
L.S. 10
BOND
LIST 4
OMIT 0
BOND $H
ACTA
FMAP 2
PLAN 20
WGHT    0.086900    2.883000
FVAR       0.31236
ZN01  5    0.917098    0.662103    0.719463    11.00000    0.02089    0.02124 =
         0.02052    0.00088    0.00307    0.00084
O1    4    0.060605    0.191349    0.477324    11.00000    0.04275    0.04211 =
         0.03126   -0.00868    0.00593   -0.01130
O2    4    1.253388    0.648567    0.605825    11.00000    0.03916    0.04464 =
         0.06336   -0.01348    0.02154   -0.01380
O3    4    1.115160    0.742548    0.683687    11.00000    0.03606    0.04016 =
         0.02673   -0.00136    0.00868   -0.01360
O4    4    0.374194    0.508043    0.792649    11.00000    0.04060    0.06323 =
         0.05647   -0.02776    0.01642   -0.01093
H1B   2    0.496417    0.523663    0.814707    11.00000   -1.50000
H1C   2    0.415436    0.443229    0.810120    11.00000   -1.50000
O5    4    1.054925    0.622038    0.815328    11.00000    0.03084    0.03712 =
         0.02667    0.00963    0.00230    0.00204
O6    4    0.765689    0.556076    0.825168    11.00000    0.03394    0.02990 =
         0.02560    0.00178    0.00358    0.00195
N1    3    0.807669    0.564451    0.650200    11.00000    0.02191    0.02091 =
         0.02096   -0.00024    0.00422   -0.00047
N2    3    0.620064    0.454060    0.603918    11.00000    0.02256    0.02114 =
         0.02088   -0.00003    0.00415   -0.00007
N3    3   -0.203432    0.248420    0.753057    11.00000    0.02360    0.01936 =
         0.02561   -0.00054    0.00402   -0.00241
N4    3    0.035047    0.309452    0.693870    11.00000    0.02414    0.01775 =
         0.02085    0.00052    0.00445   -0.00172
N5    3    0.228390    0.236440    0.457346    11.00000    0.03315    0.03353 =
         0.02480   -0.00403    0.00567   -0.00360
N6    3    0.013598    0.213484    0.548132    11.00000    0.03885    0.03725 =
         0.02516   -0.00483    0.00259   -0.00601
C1    1    0.637047    0.521259    0.654247    11.00000    0.02058    0.02499 =
         0.02127   -0.00204    0.00657    0.00152
AFIX  43
H1    2    0.540374    0.535436    0.687713    11.00000   -1.20000
AFIX   0
C2    1    0.902496    0.522685    0.595138    11.00000    0.02318    0.02761 =
         0.02387    0.00046    0.00854   -0.00176
AFIX  43
H2    2    1.029162    0.539044    0.580051    11.00000   -1.20000
AFIX   0
C3    1    0.789639    0.455485    0.565937    11.00000    0.02512    0.02912 =
         0.02249   -0.00205    0.00686    0.00087
AFIX  43
H3    2    0.820226    0.416659    0.526948    11.00000   -1.20000
AFIX   0
C4    1   -0.175939    0.335460    0.776576    11.00000    0.03688    0.02167 =
         0.02363   -0.00327    0.00718   -0.00195
AFIX  43
H4    2   -0.249549    0.364169    0.812289    11.00000   -1.20000
AFIX   0
C5    1   -0.029089    0.373776    0.741367    11.00000    0.03631    0.01982 =
         0.01971   -0.00310    0.00656   -0.00457
AFIX  43
H5    2    0.020233    0.432855    0.747851    11.00000   -1.20000
AFIX   0
C6    1   -0.075477    0.235347    0.702703    11.00000    0.02489    0.02086 =
         0.03156   -0.00192    0.00490   -0.00408
AFIX  43
H6    2   -0.062640    0.181221    0.676215    11.00000   -1.20000
AFIX   0
C7    1    0.174462    0.320221    0.640083    11.00000    0.02395    0.01752 =
         0.02033    0.00202    0.00372    0.00042
C8    1    0.330724    0.378450    0.649564    11.00000    0.02372    0.02106 =
         0.02177   -0.00231    0.00382    0.00172
AFIX  43
H8    2    0.354308    0.410125    0.695019    11.00000   -1.20000
AFIX   0
C9    1    0.459865    0.392042    0.590981    11.00000    0.02121    0.01936 =
         0.02606    0.00045    0.00132   -0.00276
C10   1    0.440020    0.347853    0.524737    11.00000    0.02606    0.02546 =
         0.02722   -0.00286    0.00554    0.00232
AFIX  43
H10   2    0.527435    0.357794    0.487009    11.00000   -1.20000
AFIX   0
C11   1    0.278844    0.285540    0.515829    11.00000    0.02908    0.02202 =
         0.02416   -0.00411   -0.00115    0.00489
C12   1    0.147766    0.271740    0.571868    11.00000    0.02553    0.01927 =
         0.02715    0.00056    0.00045   -0.00034
C13   1    0.934421    0.577413    0.852373    11.00000    0.03424    0.02196 =
         0.02080    0.00038    0.00110    0.00533
C14   1    1.052399    0.450072    0.934838    11.00000    0.05377    0.04224 =
         0.04044   -0.00033    0.00675    0.00986
AFIX  23
H14A  2    0.929444    0.416885    0.918316    11.00000   -1.20000
H14B  2    1.154735    0.435447    0.900565    11.00000   -1.20000
AFIX   0
C15   1    1.009110    0.551660    0.931603    11.00000    0.05687    0.02758 =
         0.02053    0.00287   -0.00486   -0.01238
AFIX  13
H15   2    1.138474    0.583255    0.943939    11.00000   -1.20000
AFIX   0
C16   1    0.874005    0.578954    0.986093    11.00000    0.05586    0.04704 =
         0.03905    0.00119    0.00280    0.01166
AFIX  23
H16A  2    0.740939    0.552665    0.972672    11.00000   -1.20000
H16B  2    0.859808    0.644647    0.984752    11.00000   -1.20000
AFIX   0
C17   1    1.238868    0.721015    0.637074    11.00000    0.02768    0.03478 =
         0.03355    0.00022    0.00400   -0.00721
AFIX  43
H17   2    1.330177    0.765966    0.625100    11.00000   -1.20000
REM #####
AFIX   0
HKLF 4




REM  VV14_a.res in P2(1)/n
REM wR2 = 0.1604, GooF = S = 1.062, Restrained GooF = 1.062 for all data
REM R1 = 0.0542 for 3548 Fo > 4sig(Fo) and 0.0704 for all 4488 data
REM 277 parameters refined using 0 restraints

END

WGHT      0.0869      2.8831

REM Highest difference peak  2.207,  deepest hole -0.638,  1-sigma level  0.111
Q1    1   1.1617  0.5119  0.9505  11.00000  0.05    2.21
Q2    1   0.7886  0.5031  0.9649  11.00000  0.05    2.04
Q3    1   0.5147  0.3408  0.4742  11.00000  0.05    0.88
Q4    1   1.2561  0.6437  0.6671  11.00000  0.05    0.85
Q5    1   0.4057  0.2797  0.4284  11.00000  0.05    0.77
Q6    1   0.2747  0.5473  0.8123  11.00000  0.05    0.46
Q7    1   0.9664  0.5026  0.9171  11.00000  0.05    0.39
Q8    1  -0.2649  0.2033  0.7546  11.00000  0.05    0.39
Q9    1   0.9472  0.6982  0.7529  11.00000  0.05    0.38
Q10   1   1.2099  0.7336  0.6740  11.00000  0.05    0.38
Q11   1   0.9113  0.5596  0.9357  11.00000  0.05    0.36
Q12   1   1.0827  0.7199  0.6847  11.00000  0.05    0.35
Q13   1   1.0376  0.7778  0.6958  11.00000  0.05    0.32
Q14   1   0.3575  0.3102  0.5358  11.00000  0.05    0.32
Q15   1   1.1041  0.6392  0.8387  11.00000  0.05    0.31
Q16   1   0.3692  0.3964  0.6159  11.00000  0.05    0.30
Q17   1   1.3058  0.5340  0.9423  11.00000  0.05    0.29
Q18   1   0.8731  0.5988  0.6724  11.00000  0.05    0.29
Q19   1   0.4420  0.3631  0.6173  11.00000  0.05    0.29
Q20   1  -0.0235  0.3383  0.7096  11.00000  0.05    0.29
;
_shelx_res_checksum   83295

_shelx_hkl_file
;
  -1   0   0    1.50    0.70
   1   0   0    1.00    0.60
  -1   0   0    1.20    0.60
   1   0   0    0.00    0.40
   2   0   0  130.49    5.60
   2   0   0  134.39    5.60
  -2   0   0  133.19    5.70
  -2   0   0  127.59    6.00
   3   0   0    1.60    1.10
  -3   0   0    0.40    1.10
  -3   0   0    0.00    1.00
   3   0   0    0.80    1.10
  -4   0   0   18.10    3.60
   4   0   0   19.10    4.20
  -4   0   0   12.60    2.90
   4   0   0   19.90    3.90
  -5   0   0    1.80    1.60
  -6   0   0  350.76   13.70
  -6   0   0  332.07   16.30
  -7   0   0    5.90    3.00
  -7   0   0    0.70    2.90
  -8   0   0   37.70    7.00
  -8   0   0   35.90    5.90
   0  -1   0   -0.10    0.10
   1  -1   0  999.30   17.10
  -1  -1   0 1000.00   14.50
   1  -1   0  976.10   16.40
  -1  -1   0  977.20   16.50
   1   1   0 1000.90   14.50
   1   1   0  987.50   16.50
  -1   1   0  951.80   16.90
  -2  -1   0  218.28    5.90
  -2  -1   0  224.68    7.70
   2  -1   0  220.98    7.80
  -2  -1   0  222.98    6.70
   2  -1   0  210.58    7.40
   2   1   0  205.98    7.30
  -2   1   0  232.68    7.90
  -2   1   0  223.28    7.70
  -3  -1   0    6.10    2.20
   3  -1   0    5.50    2.10
  -3  -1   0    4.10    1.30
   3  -1   0   10.20    2.50
  -3  -1   0    5.90    1.90
   3   1   0    9.10    2.60
  -3   1   0    4.50    1.80
  -3   1   0    7.10    2.30
  -4  -1   0  270.47    9.30
   4  -1   0  265.37   11.70
   4  -1   0  252.87   11.20
  -4  -1   0  260.87   11.50
  -4  -1   0  248.28    9.80
  -4   1   0  274.37   11.70
  -4   1   0  283.57   11.30
   4   1   0  239.78   11.00
   5  -1   0   -2.80    1.80
  -5  -1   0    2.30    2.10
  -5  -1   0   -1.30    1.30
  -5   1   0   -1.60    2.20
  -6  -1   0    3.90    2.10
  -6  -1   0   14.90    4.50
  -6  -1   0    7.70    3.10
  -6   1   0   10.90    4.40
  -6   1   0    1.60    1.70
  -7  -1   0  130.99   11.20
  -7   1   0  126.29    9.30
  -7   1   0  132.89   11.30
  -8  -1   0    7.90    5.60
  -8  -1   0   13.80    4.40
  -8   1   0   14.90    5.90
  -8   1   0   16.00    5.60
   0  -2   0  643.34   11.80
   0  -2   0  647.64   11.20
   0   2   0  634.14   11.70
   0   2   0  647.04   11.10
  -1  -2   0  510.55    8.40
   1  -2   0  534.75   11.00
  -1  -2   0  518.35   10.90
   1  -2   0  512.55   11.70
  -1   2   0  524.25   12.80
   1   2   0  512.15    8.40
   1   2   0  516.15   10.90
  -1   2   0  499.45   10.80
   2  -2   0   12.90    2.60
  -2  -2   0    9.90    1.60
  -2  -2   0    7.80    2.00
   2  -2   0   11.70    2.10
  -2  -2   0   10.90    1.40
   2   2   0    9.60    1.90
  -2   2   0   11.80    2.30
  -2   2   0    9.80    2.10
   3  -2   0  879.01   21.50
   3  -2   0  841.52   20.20
  -3  -2   0  897.41   20.70
  -3  -2   0  869.81   17.90
  -3  -2   0  868.61   17.80
   3   2   0  864.01   20.30
  -3   2   0  877.41   20.80
  -3   2   0  856.61   20.80
  -4  -2   0   37.30    4.50
   4  -2   0   38.40    6.00
  -4  -2   0   35.20    3.10
   4  -2   0   35.70    5.20
  -4  -2   0   22.60    3.90
  -4   2   0   31.00    4.90
  -4   2   0   24.50    4.40
   4   2   0   25.60    4.10
   5  -2   0   28.80    5.60
  -5  -2   0   21.70    4.20
  -5  -2   0   25.50    4.00
  -5  -2   0   19.30    4.10
  -5   2   0   25.40    4.90
  -5   2   0   24.30    4.90
  -6  -2   0   63.29    6.50
  -6  -2   0   69.09    5.70
  -6  -2   0   60.09    8.80
   6  -2   0   51.49    8.00
  -6   2   0   49.70    7.60
  -7  -2   0    0.30    3.20
  -7  -2   0   -3.20    2.30
  -7   2   0    5.40    3.80
  -7   2   0    7.10    3.50
  -8  -2   0   15.90    6.20
  -8  -2   0   23.00    5.40
  -8   2   0   13.10    5.40
  -8   2   0   21.60    5.70
   0  -3   0    2.00    0.80
   0  -3   0    1.20    0.90
   0   3   0    2.30    1.00
   0   3   0    3.00    1.00
   1  -3   0  742.73   16.00
  -1  -3   0  742.23   15.20
  -1  -3   0  738.73   12.10
   1  -3   0  720.63   14.70
  -1   3   0  727.73   15.60
   1   3   0  736.43   12.00
  -1   3   0  732.73   16.20
   1   3   0  724.43   14.80
   2  -3   0  159.98    6.80
   2  -3   0  155.08    7.40
  -2  -3   0  153.88    4.30
  -2  -3   0  149.09    6.70
   2   3   0  151.68    6.60
   2   3   0  153.18    4.40
  -2   3   0  162.08    7.00
  -2   3   0  162.98    7.40
   3  -3   0   94.99    6.60
   3  -3   0   87.99    5.80
  -3  -3   0   94.59    4.10
  -3  -3   0  101.79    6.40
  -3  -3   0   89.49    4.60
   3   3   0   84.29    5.70
  -3   3   0  100.29    6.30
  -3   3   0   87.59    6.30
  -4  -3   0    6.70    2.10
   4  -3   0    5.50    2.60
  -4  -3   0    6.50    2.50
   4  -3   0   10.50    3.20
  -4  -3   0    7.90    1.70
  -4   3   0    6.60    2.30
  -4   3   0    9.20    2.90
   4   3   0    5.80    2.60
  -5  -3   0  360.76   15.60
  -5  -3   0  364.06   11.30
  -5  -3   0  340.37   12.20
   5  -3   0  349.37   16.10
  -5   3   0  369.96   15.90
  -6  -3   0   13.00    3.10
   6  -3   0   17.90    5.20
  -6  -3   0   15.50    4.60
  -6  -3   0    4.30    3.40
  -6   3   0   12.30    3.90
  -7  -3   0    3.30    4.40
  -7  -3   0    3.90    3.60
  -7  -3   0    9.80    3.30
  -7   3   0   10.40    4.50
  -7   3   0    5.20    3.90
  -8  -3   0   69.39    8.80
  -8  -3   0   68.79   11.20
  -8   3   0   59.59    9.60
  -8   3   0   77.69   10.30
   0  -4   0   65.09    3.80
   0  -4   0   62.89    4.10
   0   4   0   70.89    4.30
   0   4   0   63.99    4.10
  -1  -4   0   16.00    1.70
   1  -4   0   18.00    2.80
   1  -4   0   15.00    2.90
  -1  -4   0   17.90    2.90
  -1   4   0   12.80    2.40
   1   4   0   14.00    1.50
   1   4   0   15.20    2.60
  -1   4   0   16.30    2.70
  -2  -4   0  592.04   10.90
  -2  -4   0  610.74   15.50
   2  -4   0  570.34   16.30
   2  -4   0  603.04   15.20
   2   4   0  599.84   15.40
   2   4   0  598.04   10.90
  -2   4   0  587.24   16.20
  -2   4   0  610.94   15.50
  -3  -4   0  554.44   16.40
   3  -4   0  541.75   17.60
  -3  -4   0  563.44   11.40
   3  -4   0  535.75   15.80
  -3   4   0  574.84   16.70
   3   4   0  540.35   16.00
  -3   4   0  582.54   17.60
   4  -4   0    3.60    2.30
  -4  -4   0   10.30    1.80
  -4  -4   0    8.20    2.30
   4  -4   0    9.60    3.10
  -4  -4   0    6.30    2.30
   4   4   0    5.00    2.30
  -4   4   0    9.30    2.70
  -4   4   0   10.80    3.40
  -5  -4   0   -0.90    2.00
  -5  -4   0   -0.20    1.10
  -5  -4   0    3.40    2.00
   5  -4   0    0.70    3.20
  -5   4   0   -0.60    2.20
  -6  -4   0   26.80    6.10
  -6  -4   0   28.40    4.00
  -6  -4   0   29.60    4.90
   6  -4   0   32.40    6.70
  -6   4   0   47.50    8.30
  -7  -4   0    8.50    3.90
  -7  -4   0    6.00    4.30
   7  -4   0    3.20    4.20
  -7  -4   0    3.00    2.40
  -7   4   0    4.80    3.80
  -8  -4   0   54.59    9.70
  -8  -4   0   51.69    6.00
  -8   4   0   62.59   10.30
  -8   4   0   46.10    8.10
   0  -5   0    1.10    1.30
   0  -5   0    0.90    0.80
   0   5   0    1.40    1.20
   0   5   0    2.10    1.20
   1  -5   0   42.70    4.10
  -1  -5   0   44.50    3.90
  -1  -5   0   45.90    3.10
   1   5   0   47.80    3.30
   1   5   0   43.10    3.80
  -1   5   0   51.79    4.00
  -1   5   0   39.70    3.90
  -1   5   0   46.70    4.20
  -2  -5   0  101.89    6.20
   2  -5   0  111.79    7.00
   2  -5   0  101.69    6.00
  -2  -5   0  110.39    4.20
  -2   5   0  107.99    6.30
   2   5   0  110.49    6.30
  -2   5   0  109.39    6.90
   2   5   0  108.49    3.80
  -3  -5   0   36.50    2.40
  -3  -5   0   44.50    5.80
   3  -5   0   47.90    6.80
   3  -5   0   42.70    6.90
  -3   5   0   34.10    5.30
   3   5   0   36.10    2.90
   3   5   0   36.90    5.60
  -3   5   0   43.50    5.90
   4  -5   0  180.28   11.10
  -4  -5   0  172.38   10.00
  -4  -5   0  177.38    7.00
  -4  -5   0  170.08    6.00
  -4   5   0  199.68   10.60
  -5  -5   0    4.00    2.00
   5  -5   0    6.90    3.60
  -5  -5   0    6.10    1.80
  -5  -5   0    1.10    2.00
  -5   5   0    1.10    1.90
  -6  -5   0    0.60    2.50
  -6  -5   0    3.20    2.70
  -6  -5   0    0.10    1.60
   6  -5   0    3.90    3.60
  -6   5   0   -2.00    2.20
  -7  -5   0    0.10    4.50
  -7  -5   0    6.50    2.70
   7  -5   0    6.10    4.70
  -7  -5   0   10.00    4.30
  -7   5   0    7.30    4.20
  -8  -5   0   87.09   11.80
  -8  -5   0   86.69    7.10
  -8   5   0   85.89   11.10
  -8   5   0   96.59   13.10
   0  -6   0  185.78    8.50
   0  -6   0  182.18    7.50
   0   6   0  195.08    7.60
   0   6   0  167.58    7.90
  -1  -6   0   58.99    4.80
   1  -6   0   62.19    5.00
  -1  -6   0   57.39    3.80
  -1   6   0   75.89    5.30
   1   6   0   53.29    4.60
   1   6   0   58.79    3.60
  -1   6   0   72.09    5.00
  -1   6   0   59.29    5.00
  -2  -6   0  372.66   12.90
  -2  -6   0  368.86    9.10
   2  -6   0  343.97   12.20
   2   6   0  357.36   12.60
  -2   6   0  360.46   12.60
   3  -6   0   17.90    3.90
   3  -6   0    9.60    3.00
  -3  -6   0   18.20    2.30
  -3  -6   0   20.00    4.10
   3   6   0   18.20    3.70
  -3   6   0   22.30    4.80
  -3   6   0    9.40    2.70
  -4  -6   0  161.78    9.90
   4  -6   0  164.08   11.10
  -4  -6   0  145.19    6.20
  -4  -6   0  155.68    8.40
  -4   6   0  159.08    9.80
  -5  -6   0   12.40    2.60
   5  -6   0    2.30    2.40
  -5  -6   0   12.70    2.20
  -5  -6   0    5.70    2.60
  -5   6   0   13.20    4.40
  -6  -6   0   97.79    6.40
   6  -6   0  117.29   11.70
  -6  -6   0  120.29   10.50
  -6  -6   0  113.89    5.80
  -6   6   0  109.79   10.10
  -7  -6   0    3.70    2.60
   7  -6   0    2.00    3.90
  -7  -6   0    3.20    4.00
  -7  -6   0    3.00    3.90
  -7   6   0    7.80    3.90
  -8  -6   0   12.10    3.30
   8  -6   0   34.90    7.70
  -8  -6   0   11.50    5.50
  -8   6   0   17.60    5.40
  -8   6   0   20.90    7.90
   0  -7   0    2.00    1.40
   0  -7   0    7.50    2.60
   0   7   0    4.30    1.80
   0   7   0    2.60    1.80
  -1  -7   0   62.59    4.30
   1  -7   0   58.29    5.30
  -1  -7   0   64.09    5.50
   1   7   0   59.39    5.20
  -1   7   0   62.39    5.50
  -1   7   0   63.79    5.40
  -1   7   0   58.79    5.00
   1   7   0   71.29    4.30
  -2  -7   0 1328.67   23.60
  -2  -7   0 1260.97   28.40
   2  -7   0 1225.58   30.00
   2   7   0 1262.47   28.60
   2   7   0 1245.98   21.70
  -2   7   0 1235.68   29.40
  -2   7   0 1244.58   28.00
  -2   7   0 1243.28   32.70
  -3  -7   0   83.09    6.90
   3  -7   0   74.69    6.50
   3  -7   0   90.79    7.90
  -3  -7   0   86.49    4.20
   3   7   0   76.49    6.60
  -3   7   0   82.59    7.90
   3   7   0   80.79    3.90
  -3   7   0  102.49    7.60
  -4  -7   0  404.26   16.50
   4  -7   0  426.86   18.90
  -4  -7   0  430.06   11.00
  -4   7   0  428.96   17.00
  -5  -7   0   75.59    7.90
  -5  -7   0   73.09    4.10
  -5  -7   0   66.39    4.50
   5  -7   0   76.69   10.30
  -5   7   0   81.19    8.20
  -6  -7   0   12.70    3.20
  -6  -7   0   15.00    2.40
   6  -7   0   14.50    5.40
  -6  -7   0   15.50    4.70
  -6   7   0   10.00    4.40
   7  -7   0   43.40    8.70
  -7  -7   0   47.10    5.40
  -7  -7   0   52.19    8.00
  -7  -7   0   43.60    4.20
  -7   7   0   61.49   10.30
  -8  -7   0   13.40    3.60
  -8  -7   0   20.20    6.10
   8  -7   0   28.80    8.90
  -8   7   0    9.10    5.80
   0  -8   0   55.29    5.60
   0  -8   0   43.80    4.50
   0   8   0   65.99    8.20
   0   8   0   46.90    4.40
  -1  -8   0   10.80    2.50
   1  -8   0   13.30    3.30
  -1  -8   0   10.00    2.80
  -1   8   0   14.00    3.30
  -1   8   0   18.70    3.80
   1   8   0   12.40    2.60
   1   8   0   21.40    4.50
  -1   8   0   22.10    4.10
  -2  -8   0   21.10    3.00
  -2  -8   0   15.20    3.70
   2  -8   0   14.10    4.20
   2   8   0   17.90    4.00
  -2   8   0   28.30    5.10
  -2   8   0   15.30    3.70
   2   8   0   25.60    3.10
  -2   8   0   15.30    3.70
  -3  -8   0  380.36   10.20
  -3  -8   0  390.76   15.80
   3  -8   0  356.56   16.50
   3   8   0  385.26    9.50
  -3   8   0  406.96   15.80
   4  -8   0   10.50    4.50
  -4  -8   0    9.20    3.40
  -4   8   0    8.30    3.00
   4   8   0    7.80    1.60
   5  -8   0   62.39    9.40
  -5  -8   0   71.49    4.40
  -5  -8   0   72.59    9.70
  -5   8   0   81.39   10.20
  -6  -8   0    6.50    3.60
   6  -8   0    3.80    4.10
  -6  -8   0    6.20    3.10
  -6  -8   0    9.30    2.70
  -6   8   0    2.40    2.90
   7  -8   0   19.60    6.50
  -7  -8   0   36.40    6.80
  -7  -8   0   28.90    3.80
  -7   8   0   44.00    8.30
  -8  -8   0    8.70    6.10
   8  -8   0    0.00    5.30
  -8   8   0    8.90    5.40
   0  -9   0    3.00    2.30
   0  -9   0    0.90    1.70
   0   9   0   -0.70    1.70
   0   9   0    0.50    1.70
  -1  -9   0  708.03   21.50
  -1  -9   0  722.63   18.50
   1  -9   0  736.03   21.70
   1   9   0  716.33   17.60
   1   9   0  701.33   20.90
  -1   9   0  712.13   21.60
  -1   9   0  751.22   21.10
  -1   9   0  691.13   20.50
  -2  -9   0   98.79    5.60
   2  -9   0  110.99    8.90
  -2  -9   0  105.09    8.10
  -2   9   0  110.69    7.90
   2   9   0  100.99    5.50
   3  -9   0   14.00    4.60
  -3  -9   0   13.00    2.50
  -3  -9   0   16.00    4.40
  -3   9   0   11.00    3.70
   3   9   0   15.80    2.50
  -4  -9   0    5.10    2.50
   4  -9   0   -1.50    2.60
  -4  -9   0    5.60    3.00
  -4   9   0    3.70    2.70
   4   9   0   -0.60    1.20
  -5  -9   0    6.30    3.80
   5  -9   0    2.80    3.10
  -5  -9   0    1.50    3.10
  -5  -9   0   10.10    2.00
  -5   9   0    4.40    3.50
   6  -9   0   29.50    6.60
  -6  -9   0   34.00    2.70
  -6  -9   0   29.80    6.60
  -6  -9   0   35.80    3.60
  -6   9   0   39.30    7.70
   7  -9   0   74.49   11.80
  -7  -9   0   81.19   11.20
  -7   9   0   62.79   10.10
   0 -10   0  829.62   24.90
   0 -10   0  868.81   23.30
   1 -10   0  128.89    9.00
  -1 -10   0  135.29    9.40
  -1 -10   0  126.49    7.50
  -1  10   0  131.49    8.80
   1  10   0  126.99    7.10
  -1  10   0  116.79    8.30
  -2 -10   0   21.50    7.30
  -2 -10   0   28.20    4.30
   2 -10   0   32.30    5.90
   2  10   0   25.50    3.80
  -3 -10   0   93.19    5.40
  -3 -10   0  106.09    9.00
   3 -10   0   93.79    9.30
   3  10   0   94.69    5.00
  -3  10   0   87.99    8.30
  -4 -10   0   17.60    5.80
  -4 -10   0   10.60    2.20
   4 -10   0    9.40    4.70
   4  10   0   13.10    2.30
  -4  10   0   11.90    3.80
  -5 -10   0   92.19    5.50
  -5 -10   0   90.09    9.10
  -5 -10   0   87.79    4.00
   5 -10   0   78.59   11.50
  -5  10   0   92.29    9.50
   6 -10   0  123.99   12.80
  -6 -10   0  101.39   10.60
  -6  10   0  108.89   10.90
  -7 -10   0    9.50    5.10
   7 -10   0   10.30    5.30
  -7  10   0   -1.50    3.90
   0 -11   0    4.10    3.20
   0 -11   0    1.50    2.00
   0  11   0    2.90    2.20
  -1 -11   0    6.60    2.70
  -1 -11   0    5.30    2.60
   1 -11   0    7.80    3.30
  -1  11   0    5.10    3.00
   1  11   0    6.80    2.40
  -2 -11   0  234.18   10.00
  -2 -11   0  215.18   12.70
   2 -11   0  221.38   13.40
  -2  11   0  227.78   12.60
   2  11   0  224.88    9.20
   3 -11   0    7.90    3.90
  -3 -11   0    4.80    3.10
  -3 -11   0    4.30    2.00
   3  11   0    2.50    1.80
  -3  11   0    3.00    3.30
   4 -11   0   79.09   11.80
  -4 -11   0   69.99    4.40
  -4 -11   0   68.89    9.40
   4  11   0   65.29    4.20
  -4  11   0   86.19    8.90
  -5 -11   0    2.70    1.40
   5 -11   0   -1.70    3.10
  -5 -11   0    3.80    3.80
  -5 -11   0    3.90    1.70
  -5  11   0    5.40    3.30
   6 -11   0    3.00    4.90
  -6 -11   0    1.00    5.00
   7 -11   0    4.80    5.50
  -7 -11   0    3.00    4.10
  -7  11   0    0.40    5.00
   0 -12   0  132.79   10.60
   0 -12   0  115.09    9.00
  -1 -12   0    1.70    2.60
   1 -12   0    2.40    3.00
  -1 -12   0    2.90    2.20
  -1  12   0    5.20    3.00
   1  12   0    2.20    2.20
   2 -12   0    6.80    3.80
  -2 -12   0    9.00    2.90
  -2 -12   0    3.50    3.30
  -2  12   0   16.30    4.60
   2  12   0    4.40    2.50
  -3 -12   0   48.40    4.60
  -3 -12   0   42.40    7.10
   3 -12   0   68.79   10.60
  -3  12   0   63.89    9.60
   3  12   0   46.50    4.60
  -4 -12   0  145.79    6.50
   4 -12   0  145.99   13.10
  -4 -12   0  140.49   12.00
   4  12   0  146.59    6.10
  -4  12   0  149.79   11.80
  -5 -12   0    4.10    1.60
  -5 -12   0   11.20    4.10
   5 -12   0   -0.90    3.90
  -5 -12   0    5.80    1.80
  -5  12   0    6.10    3.60
  -6 -12   0   80.29   12.20
   6 -12   0   97.69   12.80
  -6  12   0   82.59   11.80
   7 -12   0    8.40    7.30
  -7 -12   0   -0.30    4.80
  -7  12   0   -3.00    4.60
   0 -13   0    3.90    2.60
   0 -13   0   -1.30    1.90
  -1 -13   0   95.89    9.50
   1 -13   0   95.69    8.80
  -1 -13   0   88.69    7.70
   1  13   0   92.29    7.20
  -1  13   0   95.19    8.50
  -2 -13   0   25.70    6.10
   2 -13   0   18.60    5.40
  -2 -13   0   24.10    4.70
   2  13   0   26.20    4.40
  -2  13   0   27.30    5.90
  -3 -13   0   50.79    5.90
   3 -13   0   48.10    8.60
  -3 -13   0   61.29    9.40
   3  13   0   47.90    4.80
  -3  13   0   48.90    8.20
  -4 -13   0   58.69    9.60
  -4 -13   0   65.29    4.90
   4 -13   0   44.90    8.50
  -4  13   0   42.90    7.40
   4  13   0   61.59    4.50
   5 -13   0   77.89   18.00
  -5  13   0   82.49   14.80
   6 -13   0    2.80    4.30
  -6 -13   0    1.20    4.40
  -6  13   0    2.40    3.90
   0 -14   0    7.80    3.80
   0 -14   0    6.70    3.80
  -1 -14   0   25.10    6.30
  -1 -14   0   27.90    5.70
   1 -14   0   21.50    5.80
  -1  14   0   18.10    5.20
  -2 -14   0    7.40    3.50
   2 -14   0    6.00    3.40
  -2 -14   0    9.80    4.50
   2  14   0   -0.40    2.60
  -2  14   0    8.90    3.50
  -3 -14   0  457.05   15.00
  -3 -14   0  446.86   21.50
   3 -14   0  436.86   22.50
  -3  14   0  399.76   19.90
   3  14   0  414.46   13.70
  -4 -14   0   19.10    5.80
  -4 -14   0   14.60    3.20
   4 -14   0    5.10    5.30
   4  14   0   12.10    2.90
  -4  14   0    9.70    4.70
  -5 -14   0   31.90    6.60
   5 -14   0   19.40    7.70
  -5  14   0   27.70    6.60
  -6 -14   0    0.00    4.30
   6 -14   0    6.50    5.60
  -6  14   0    1.40    4.00
   0 -15   0    1.20    2.70
   0 -15   0   -1.00    3.00
   0  15   0   -1.40    2.50
   1 -15   0   39.10    8.00
  -1 -15   0   43.30    8.30
  -1 -15   0   39.70    7.20
  -1  15   0   25.90    6.10
  -2 -15   0   36.50    5.90
   2 -15   0   36.00    7.10
  -2 -15   0   24.80    5.80
  -2  15   0   21.40    4.90
  -3 -15   0   14.70    5.90
   3 -15   0   13.70    5.40
  -3 -15   0   20.20    4.10
   3  15   0   22.70    4.80
  -3  15   0   14.60    4.30
   4 -15   0   18.80    6.90
  -4 -15   0   27.30    7.20
  -4 -15   0   24.30    3.90
  -4  15   0   16.70    5.70
   4  15   0   20.90    3.60
   5 -15   0   45.40    9.40
  -5 -15   0   45.40    9.00
  -5  15   0   61.29   10.60
   0 -16   0   11.70    4.60
   0  16   0   15.20    5.20
  -1 -16   0    3.40    3.80
  -1 -16   0   -2.30    2.60
   1 -16   0    5.70    3.80
  -1  16   0    3.20    3.10
   2 -16   0   -1.80    3.40
  -2 -16   0    5.50    4.30
  -2  16   0    3.50    2.70
  -3 -16   0   17.20    5.80
   3 -16   0   21.30    6.40
  -3 -16   0   23.30    4.80
  -3  16   0    7.80    4.70
   3  16   0   21.10    4.80
  -4 -16   0   14.10    6.40
   4 -16   0    7.20    5.30
  -4 -16   0   22.80    4.10
  -4  16   0   13.40    5.20
  -5 -16   0    6.80    4.90
   5 -16   0    8.20    6.00
  -5  16   0   12.30    6.00
   0 -17   0    5.10    3.70
   0  17   0   -1.30    3.30
  -1 -17   0    7.50    6.30
  -1 -17   0   15.20    4.70
   1 -17   0   10.30    5.30
  -1  17   0   10.60    5.80
  -2 -17   0   28.60    8.10
   2 -17   0   44.10    8.50
  -2 -17   0   29.20    5.70
  -2  17   0   28.00    7.10
  -3 -17   0    1.90    3.50
   3 -17   0    1.20    4.00
  -3 -17   0   -1.40    4.40
  -3  17   0   -1.80    3.50
   4 -17   0   40.00    8.90
  -4 -17   0   31.10    5.10
  -4 -17   0   33.20    7.70
  -4  17   0   27.50    7.00
   0 -18   0   82.49   11.50
   0  18   0   93.99   12.30
  -1 -18   0    9.40    5.10
  -1 -18   0    3.40    4.10
   1 -18   0    8.10    4.80
  -1  18   0   -2.30    3.10
   2 -18   0   -0.10    4.50
  -2 -18   0    1.30    3.90
  -2 -18   0    2.40    4.70
  -2  18   0    0.40    3.90
  -3 -18   0   21.50    8.10
  -3 -18   0   17.20    6.50
   3 -18   0   12.50    7.00
  -3  18   0   28.90    7.10
   0 -19   0    1.80    4.50
   0  19   0    5.20    4.20
  -1 -19   0    3.30    4.60
   1 -19   0   10.60    7.60
  -1 -19   0    4.20    4.10
  -1  19   0    7.40    4.20
   2 -19   0    3.90    5.80
  -2 -19   0    9.10    6.30
  -2 -19   0    4.70    4.50
  -2  19   0   10.00    5.10
   0  20   0   -3.60    4.60
  -8   0   1    0.20    3.30
  -8   0   1    2.30    4.00
  -7   0   1   12.10    4.00
  -7   0   1   10.70    4.30
  -6   0   1   -1.50    2.00
  -6   0   1   -2.10    2.20
  -5   0   1   88.09    6.20
  -5   0   1  106.59    8.10
  -5   0   1   93.99    7.30
  -4   0   1   -0.50    1.40
  -4   0   1    0.30    1.10
   4   0  -1   -1.00    1.70
  -4   0   1   -0.50    1.30
  -3   0   1  430.06   12.80
  -3   0   1  415.36   12.60
   3   0  -1  415.76   12.90
   3   0  -1  393.36   12.20
  -3   0   1  388.26   11.00
  -2   0   1    1.40    1.10
   2   0  -1    0.20    0.80
  -2   0   1    0.40    0.90
  -1   0   1  739.53   13.40
   1   0  -1  736.93   12.40
  -1   0   1  731.53   12.40
  -1   0   1  702.23   12.20
   1   0   1  429.96    9.00
  -1   0  -1  411.26    8.00
  -1   0  -1  414.96    8.90
   1   0   1  419.66    8.10
   2   0   1    0.70    0.90
  -2   0  -1    0.90    1.10
   2   0   1    2.30    1.00
   3   0   1  139.19    6.80
  -3   0  -1  138.09    7.30
   3   0   1  144.59    7.40
  -3   0  -1  138.59    6.50
   4   0   1    2.00    1.30
  -4   0  -1    1.40    1.70
  -4   0  -1   -0.90    1.00
   4   0   1   -0.60    1.40
  -5   0  -1   89.99    8.00
  -5   0  -1   78.49    6.60
   5   0   1   74.29    6.80
  -6   0  -1    1.10    2.20
  -6   0  -1   -1.40    2.90
  -6   0  -1    0.80    2.30
  -7   0  -1   83.89   11.00
  -7   0  -1   90.79    7.80
  -8   0  -1   -4.00    3.20
  -8   0  -1    4.40    3.80
  -8  -1   1   21.70    5.40
  -8  -1   1   25.20    6.70
  -8   1   1   14.20    5.30
  -8   1   1   26.70    6.10
  -7  -1   1   19.90    4.30
  -7  -1   1   21.90    5.70
  -7   1   1   10.80    3.60
  -7   1   1   14.10    4.80
  -6  -1   1   21.20    5.30
  -6  -1   1   17.80    4.70
  -6  -1   1   17.00    3.60
  -6   1   1   23.20    4.90
  -6   1   1   21.30    5.20
  -5  -1   1  244.58   10.10
  -5  -1   1  217.78   10.70
  -5  -1   1  245.78   12.40
  -5   1   1  237.78   12.20
  -5   1   1  227.28   11.60
  -5   1   1  237.58   10.80
   4  -1  -1   63.09    6.00
   4  -1  -1   61.89    5.60
  -4  -1   1   66.29    4.70
  -4  -1   1   68.29    5.40
  -4  -1   1   69.39    5.80
  -4   1   1   61.79    5.40
   4   1  -1   55.79    5.50
  -4   1   1   73.19    5.90
   3  -1  -1  103.79    6.00
   3  -1  -1  117.69    6.80
  -3  -1   1  109.89    5.20
  -3  -1   1  109.09    6.20
  -3  -1   1  108.39    5.90
  -3   1   1   98.79    6.00
   3   1  -1   93.49    5.70
  -3   1   1  104.79    6.30
   2  -1  -1 1178.38   23.10
  -2  -1   1 1214.98   21.90
   2  -1  -1 1159.58   21.50
  -2  -1   1 1177.58   19.90
  -2   1   1 1198.68   21.90
   2   1  -1 1179.48   21.60
  -2   1   1 1174.48   22.80
   1  -1  -1 1351.66   22.50
  -1  -1   1 1343.47   20.90
  -1  -1   1 1320.47   20.00
   1  -1  -1 1351.56   20.80
  -1   1   1 1348.86   22.30
   1   1  -1 1346.27   20.90
  -1   1   1 1369.16   20.90
   1   1  -1 1346.47   20.10
   0  -1   1  166.58    4.00
   0  -1  -1  176.78    3.80
   0  -1  -1  169.48    3.70
   1  -1   1   12.70    1.80
   1  -1   1    6.00    1.30
  -1  -1  -1    8.70    0.80
  -1  -1  -1    7.70    1.20
   1   1   1   13.90    1.90
  -1   1  -1   10.90    1.70
  -1   1  -1    6.50    1.10
   1   1   1   10.60    0.80
  -2  -1  -1  153.78    5.20
   2  -1   1  163.78    6.60
   2  -1   1  163.68    6.50
   2   1   1  160.18    6.50
   2   1   1  165.38    5.50
  -2   1  -1  165.88    6.70
  -2   1  -1  165.18    6.40
   3  -1   1  119.19    6.80
  -3  -1  -1  119.39    6.80
  -3  -1  -1  116.09    5.40
   3  -1   1  120.39    6.60
  -3   1  -1  112.69    6.70
   3   1   1  109.89    5.60
  -3   1  -1  120.39    6.40
   3   1   1  111.89    6.50
   4  -1   1    1.10    1.50
   4  -1   1    1.40    1.70
  -4  -1  -1    0.60    1.50
  -4  -1  -1    0.60    1.50
  -4   1  -1    4.10    1.80
  -4   1  -1    0.80    1.60
   4   1   1   -0.40    1.40
   4   1   1    1.80    1.40
  -5  -1  -1  505.65   18.70
   5  -1   1  512.65   18.10
  -5  -1  -1  505.25   14.50
  -5  -1  -1  477.25   15.50
  -5   1  -1  507.65   18.90
  -5   1  -1  529.65   17.70
  -6  -1  -1    4.40    2.20
  -6  -1  -1   -0.60    3.20
  -6  -1  -1    4.10    2.90
   6  -1   1   -0.60    2.80
  -6   1  -1    3.90    2.80
  -7  -1  -1  197.28   10.40
  -7  -1  -1  192.08   13.40
  -7   1  -1  196.38   13.80
  -7   1  -1  198.18   11.60
  -8  -1  -1   38.60    7.50
  -8  -1  -1   27.30    5.20
  -8   1  -1   42.90    6.80
  -8   1  -1   26.90    5.80
  -8  -2   1   20.30    4.70
  -8  -2   1   12.20    5.20
  -8   2   1   22.80    6.70
  -8   2   1   23.50    5.80
  -7  -2   1    2.10    2.60
  -7  -2   1   12.40    4.90
  -7   2   1    3.60    3.50
  -7   2   1    6.00    3.90
  -6  -2   1  520.05   18.40
  -6  -2   1  534.85   21.10
  -6  -2   1  597.44   17.20
  -6   2   1  560.74   21.50
  -6   2   1  602.84   19.70
  -5  -2   1   26.70    4.60
  -5  -2   1   30.90    4.50
  -5  -2   1   44.90    8.60
   5  -2  -1   27.70    5.70
  -5   2   1   22.50    5.70
  -5   2   1   25.40    5.70
  -4  -2   1   56.19    5.40
  -4  -2   1   54.99    4.80
   4  -2  -1   49.60    6.40
  -4  -2   1   51.79    4.00
   4  -2  -1   51.99    6.40
   4   2  -1   53.89    5.40
  -4   2   1   53.89    5.70
  -4   2   1   55.69    5.30
  -3  -2   1   97.79    5.90
   3  -2  -1  110.09    6.80
  -3  -2   1  103.29    5.50
  -3  -2   1  102.39    4.70
   3  -2  -1   97.49    5.90
  -3   2   1   94.59    5.90
  -3   2   1   95.49    6.30
   3   2  -1  112.39    6.20
  -2  -2   1    7.90    2.00
   2  -2  -1   10.60    2.70
  -2  -2   1    7.60    1.40
   2  -2  -1    6.70    1.70
  -2   2   1    8.10    1.80
   2   2  -1   17.10    2.60
  -2   2   1    5.30    1.90
   2   2  -1   12.30    1.70
  -1  -2   1 1848.32   28.40
   1  -2  -1 1823.42   28.10
  -1  -2   1 1899.01   26.90
   1  -2  -1 1863.61   30.20
  -1   2   1 1844.12   28.30
   1   2  -1 1819.72   26.70
   1   2  -1 1850.31   28.40
   0  -2   1  923.51   15.90
   0  -2  -1  935.81   15.10
   0  -2  -1  965.50   15.70
   0  -2   1  941.21   15.60
   0   2   1  935.11   15.60
   0   2  -1  931.31   15.80
   0   2  -1  945.61   15.50
   0   2   1  953.10   15.10
   1  -2   1  582.24   16.20
   1  -2   1  569.14   12.50
  -1  -2  -1  583.34   12.10
  -1   2  -1  571.84   12.00
  -2  -2  -1  148.39    6.50
   2  -2   1  147.19    6.70
  -2  -2  -1  132.49    3.70
   2  -2   1  145.39    6.30
  -2  -2  -1  145.89    4.40
  -2   2  -1  132.09    6.30
  -2   2  -1  136.39    6.20
   2   2   1  143.49    6.40
   3  -2   1  215.38    9.50
   3  -2   1  209.88    9.10
  -3  -2  -1  204.78    9.10
  -3  -2  -1  208.88    6.20
  -3  -2  -1  199.08    6.80
  -3   2  -1  193.68    8.70
  -3   2  -1  195.78    8.90
   3   2   1  209.38    9.10
   4  -2   1   18.40    4.30
  -4  -2  -1   11.40    2.70
  -4  -2  -1   13.10    2.30
   4  -2   1   10.70    3.20
  -4  -2  -1    8.50    2.80
   4   2   1   11.50    3.30
  -4   2  -1   11.70    3.20
  -4   2  -1   11.10    3.30
  -5  -2  -1    5.80    1.90
  -5  -2  -1    7.70    3.40
   5  -2   1    8.30    3.70
  -5  -2  -1   10.30    2.60
  -5   2  -1   11.10    4.00
  -5   2  -1    7.90    3.00
  -6  -2  -1  219.68    9.70
   6  -2   1  241.18   15.40
  -6  -2  -1  233.78   13.80
  -6   2  -1  243.88   14.10
  -7  -2  -1   -0.30    2.60
  -7  -2  -1    6.10    3.70
  -7   2  -1    8.20    3.90
  -7   2  -1    5.90    3.70
  -8  -2  -1    0.60    3.50
  -8  -2  -1    0.00    3.70
  -8   2  -1    0.30    3.60
  -8   2  -1   -2.60    3.60
  -8  -3   1   12.80    5.20
  -8  -3   1   15.90    4.20
  -8   3   1   16.00    5.60
  -8   3   1   18.10    5.90
  -7  -3   1    4.70    2.80
  -7  -3   1    1.60    3.40
  -7   3   1    6.30    4.30
  -7   3   1    9.90    3.60
  -6  -3   1    1.10    3.10
  -6  -3   1    1.50    2.00
  -6  -3   1    0.20    2.90
   6  -3  -1   -0.20    2.90
  -6   3   1    0.10    2.90
  -5  -3   1    1.10    2.30
  -5  -3   1   -0.30    1.40
   5  -3  -1    1.50    2.40
  -5  -3   1    1.30    1.90
  -5   3   1   -2.10    1.40
  -4  -3   1  124.59    8.00
  -4  -3   1  118.69    6.60
   4  -3  -1  122.49    7.80
   4  -3  -1  119.49    8.70
  -4  -3   1  113.29    5.60
  -4   3   1  113.99    8.10
  -4   3   1  107.59    7.50
   4   3  -1  123.09    7.70
  -3  -3   1    9.70    1.80
   3  -3  -1    7.90    2.10
   3  -3  -1    8.10    2.60
  -3  -3   1    7.90    2.10
  -3  -3   1    7.80    2.00
  -3   3   1    7.70    2.30
  -3   3   1    7.00    2.20
   3   3  -1   12.10    3.00
   2  -3  -1  584.84   14.10
  -2  -3   1  594.34   11.70
  -2  -3   1  613.74   14.70
   2  -3  -1  565.04   15.80
  -2   3   1  607.44   14.50
   2   3  -1  602.54   11.70
   2   3  -1  596.04   14.40
  -2   3   1  605.14   15.90
   1  -3  -1   28.20    3.00
   1  -3  -1   28.00    2.50
  -1  -3   1   28.60    2.00
   1   3  -1   26.70    1.90
  -1   3   1   27.60    2.90
   1   3  -1   27.60    2.50
   0  -3   1  388.26    9.70
   0  -3  -1  402.26    8.90
   0  -3   1  401.76    9.20
   0  -3  -1  383.86    9.50
   0   3  -1  392.06    9.10
   0   3   1  404.86   10.60
   0   3   1  395.46    8.70
   1  -3   1 1703.23   29.50
  -1  -3  -1 1749.32   24.00
  -1  -3  -1 1726.13   28.50
   1   3   1 1722.33   23.70
  -1   3  -1 1714.43   28.50
   1   3   1 1702.93   28.50
  -1   3  -1 1748.23   29.30
  -2  -3  -1  117.79    6.00
  -2  -3  -1  116.19    3.10
   2  -3   1  119.79    6.00
   2  -3   1  115.49    6.40
  -2  -3  -1  117.99    3.50
  -2   3  -1  116.49    6.20
  -2   3  -1  112.09    5.90
   2   3   1  110.29    5.80
  -3  -3  -1   70.19    3.60
  -3  -3  -1   76.19    3.30
   3  -3   1   67.89    5.80
   3  -3   1   66.89    5.40
  -3  -3  -1   70.09    5.50
   3   3   1   81.29    5.90
  -3   3  -1   80.79    5.70
  -3   3  -1   65.79    5.50
   4  -3   1  394.96   15.50
  -4  -3  -1  381.56   11.00
  -4  -3  -1  385.56   14.80
  -4  -3  -1  374.26    9.80
   4  -3   1  361.36   14.00
  -4   3  -1  395.76   15.00
   4   3   1  383.66   14.50
  -4   3  -1  399.46   14.90
   5  -3   1   25.90    5.80
  -5  -3  -1   37.30    7.00
  -5  -3  -1   23.40    3.80
  -5  -3  -1   28.10    2.90
  -5   3  -1   16.00    4.50
  -6  -3  -1    9.70    2.50
   6  -3   1    7.90    3.00
  -6  -3  -1    5.50    2.80
  -6  -3  -1   10.30    4.60
  -6   3  -1   19.00    5.40
  -7  -3  -1   30.30    5.50
   7  -3   1   47.40    8.90
  -7  -3  -1   28.10    6.60
  -7  -3  -1   38.80    5.10
  -7   3  -1   40.30    7.40
  -8  -3  -1   55.29   10.20
  -8  -3  -1   32.90    5.30
  -8   3  -1   49.60    7.70
  -8   3  -1   35.40    7.70
  -8  -4   1    5.90    4.70
  -8   4   1   -3.60    3.80
  -8   4   1    2.20    4.20
   7  -4  -1   25.40    6.70
  -7  -4   1   26.20    6.30
  -7  -4   1   22.10    3.90
  -7  -4   1   16.40    5.20
  -7   4   1   17.40    5.40
  -7   4   1   18.40    4.70
  -6  -4   1  218.48   13.30
  -6  -4   1  217.48    9.30
   6  -4  -1  209.58   14.10
  -6  -4   1  205.08   11.30
  -6   4   1  218.48   13.40
  -5  -4   1    1.30    2.20
  -5  -4   1    4.50    2.20
  -5  -4   1    5.30    2.00
  -5   4   1    6.90    2.60
  -4  -4   1  114.29    7.60
   4  -4  -1  104.79    8.30
  -4  -4   1  101.79    6.00
   4  -4  -1  103.19    7.50
  -4  -4   1  113.49    5.30
  -4   4   1  112.39    8.40
  -4   4   1  113.39    7.80
   4   4  -1  112.09    7.80
   3  -4  -1  341.27   12.10
  -3  -4   1  348.37    9.00
   3  -4  -1  328.37   13.50
  -3  -4   1  346.37   12.40
  -3   4   1  345.97   12.40
  -3   4   1  348.07   13.40
   3   4  -1  351.86    9.00
   3   4  -1  336.27   12.10
  -2  -4   1  316.27    7.90
   2  -4  -1  308.77   10.20
  -2  -4   1  327.07   10.60
   2  -4  -1  338.87   12.10
  -2   4   1  327.37   10.50
   2   4  -1  333.17    8.90
   2   4  -1  322.97   10.50
  -2   4   1  323.07   11.50
  -1  -4   1  451.45    9.90
  -1  -4   1  437.66   11.60
   1  -4  -1  435.56   12.20
   1   4  -1  439.06   11.40
  -1   4   1  428.86   11.10
   1   4  -1  438.06    9.50
  -1   4   1  422.76   11.90
  -1   4   1  443.86   12.20
   0  -4   1    4.80    1.80
   0  -4  -1    8.40    2.00
   0  -4  -1    7.40    1.70
   0   4   1    5.00    1.70
   0   4   1    4.00    1.30
   0   4  -1    8.60    1.80
   0   4  -1    8.00    2.00
   1  -4   1  502.35   13.30
  -1  -4  -1  488.85   12.50
   1  -4   1  482.75   12.20
  -1  -4  -1  488.85    9.30
   1   4   1  487.65    9.00
   1   4   1  475.65   12.20
  -1   4  -1  471.75   12.80
   2  -4   1  141.39    6.80
   2  -4   1  121.99    7.10
  -2  -4  -1  134.29    3.50
  -2  -4  -1  130.09    6.70
  -2   4  -1  136.49    7.20
   2   4   1  134.59    3.40
  -2   4  -1  136.09    6.80
   2   4   1  134.89    6.80
   3  -4   1  265.37   10.90
   3  -4   1  263.47   11.80
  -3  -4  -1  282.27   11.30
  -3  -4  -1  271.07    6.40
  -3  -4  -1  279.77    7.20
   3   4   1  272.47   11.10
  -3   4  -1  292.27   11.50
  -3   4  -1  270.67   11.60
  -4  -4  -1   83.09    4.50
   4  -4   1   60.39    9.30
  -4  -4  -1   82.59    6.80
   4  -4   1   85.79    7.50
  -4   4  -1   88.79    7.20
  -4   4  -1   81.89    7.10
  -5  -4  -1    0.40    2.40
  -5  -4  -1    1.70    1.30
  -5  -4  -1    0.40    1.60
   5  -4   1    0.40    1.60
  -5   4  -1   -1.10    1.80
  -6  -4  -1  171.28    7.50
  -6  -4  -1  170.68    8.60
  -6  -4  -1  188.88   12.70
   6  -4   1  186.68   13.30
  -6   4  -1  178.78   12.50
  -7  -4  -1   14.40    5.00
   7  -4   1    7.50    4.80
  -7  -4  -1   19.20    3.10
  -7   4  -1   19.40    5.50
  -8  -4  -1    1.20    4.20
  -8  -4  -1    7.20    4.00
  -8   4  -1    8.50    4.30
  -8   4  -1   -0.80    4.00
  -8  -5   1   45.20    8.80
  -8  -5   1   31.90    5.30
  -8   5   1   41.30    8.60
  -8   5   1   55.39    9.30
   7  -5  -1   61.59   10.80
  -7  -5   1   83.49    6.00
  -7  -5   1   73.59    7.60
  -7  -5   1   97.69   10.10
  -7   5   1   77.29   11.00
  -6  -5   1    3.70    3.40
   6  -5  -1   -0.90    3.00
  -6  -5   1   -0.90    1.40
  -6  -5   1    2.00    3.00
  -6   5   1    3.70    2.70
  -5  -5   1  109.39    6.50
   5  -5  -1   92.99    9.30
  -5  -5   1  106.89    5.70
  -5  -5   1  103.19    8.60
  -5   5   1   91.69    8.00
  -4  -5   1  158.18    6.30
  -4  -5   1  164.48    7.30
   4  -5  -1  154.88   10.80
  -4  -5   1  177.08    9.90
   4  -5  -1  156.58   10.50
  -4   5   1  155.28    9.30
  -3  -5   1  390.96   13.70
   3  -5  -1  390.46   13.60
  -3  -5   1  401.36    9.80
   3  -5  -1  362.36   14.90
  -3   5   1  391.26   14.80
   3   5  -1  394.76    9.80
  -3   5   1  374.26   13.50
   3   5  -1  408.76   15.70
  -2  -5   1   32.50    4.10
   2  -5  -1   26.20    3.60
   2  -5  -1   35.70    5.20
  -2  -5   1   35.90    2.70
  -2   5   1   36.70    3.90
   2   5  -1   38.20    3.80
  -2   5   1   28.20    4.20
   2   5  -1   36.90    2.60
   1  -5  -1  581.04   15.60
  -1  -5   1  634.64   15.40
  -1   5   1  585.34   14.60
   1   5  -1  621.14   12.80
   1   5  -1  605.14   15.00
  -1   5   1  612.24   15.70
  -1   5   1  603.14   15.70
   0  -5  -1   33.60    2.90
   0  -5   1   28.40    2.90
   0  -5  -1   38.20    4.50
   0  -5   1   32.00    4.00
   0   5  -1   24.40    3.30
   0   5   1   32.70    3.20
   0   5   1   34.70    2.90
   0   5  -1   35.30    3.10
  -1  -5  -1  138.59    4.90
   1  -5   1  142.89    7.10
  -1  -5  -1  147.89    6.90
  -1   5  -1  130.99    7.00
  -1   5  -1  141.79    6.90
   1   5   1  142.89    4.70
  -1   5  -1  129.29    6.40
   1   5   1  145.19    6.70
   2  -5   1   52.49    4.60
   2  -5   1   53.49    5.10
  -2  -5  -1   51.99    4.60
  -2  -5  -1   58.29    2.50
   2   5   1   54.69    2.30
  -2   5  -1   48.50    4.80
   2   5   1   57.49    4.70
  -2   5  -1   54.19    4.60
  -3  -5  -1  172.88    4.70
  -3  -5  -1  162.38    8.90
   3  -5   1  175.28    9.10
  -3  -5  -1  180.38    5.30
   3  -5   1  171.88    9.90
   3   5   1  160.28    8.80
  -3   5  -1  172.58    9.20
  -3   5  -1  192.58   10.80
   4  -5   1    4.00    2.80
  -4  -5  -1    3.50    1.10
  -4  -5  -1    2.40    2.20
  -4   5  -1   -0.40    2.90
  -4   5  -1    6.90    2.50
   5  -5   1  304.47   16.00
  -5  -5  -1  292.47    9.40
  -5  -5  -1  317.47   15.40
  -5  -5  -1  307.47    8.60
  -5   5  -1  290.77   14.60
   6  -5   1   33.20    6.70
  -6  -5  -1   38.80    4.80
  -6  -5  -1   45.40    7.70
  -6  -5  -1   43.90    3.80
  -6   5  -1   36.20    6.70
   7  -5   1   99.49   13.10
  -7  -5  -1   87.89    5.70
  -7  -5  -1   78.49    6.70
  -7  -5  -1   83.19   11.70
  -7   5  -1   79.09   10.30
  -8  -5  -1   13.30    5.50
   8  -5   1    9.80    6.40
  -8  -5  -1    0.20    2.90
  -8   5  -1   15.40    5.00
  -8  -6   1   20.80    4.50
  -8  -6   1   41.90    7.60
  -8   6   1   31.00    6.60
  -8   6   1   16.30    6.60
  -7  -6   1   17.00    3.30
  -7  -6   1   18.00    5.50
   7  -6  -1   15.20    5.70
  -7   6   1   15.40    5.60
  -6  -6   1   -0.90    2.90
  -6  -6   1    4.60    2.30
   6  -6  -1    5.00    3.80
  -6  -6   1    3.40    3.00
  -6   6   1    4.80    3.40
  -5  -6   1   85.99    8.00
   5  -6  -1   64.79    8.80
  -5  -6   1   67.19    5.20
  -5  -6   1   75.19    4.80
  -5   6   1   80.99    7.60
   4  -6  -1    6.40    3.00
  -4  -6   1    5.90    2.30
  -4  -6   1    4.10    1.90
  -4  -6   1    4.60    1.40
  -4   6   1    9.00    3.20
   3  -6  -1  501.95   16.00
  -3  -6   1  503.55   16.30
   3  -6  -1  494.85   18.20
  -3  -6   1  490.95   11.50
  -3   6   1  499.15   17.80
   3   6  -1  502.95   11.60
  -3   6   1  483.45   16.00
   3   6  -1  507.65   16.40
   2  -6  -1   26.40    4.90
  -2  -6   1   25.50    2.60
   2  -6  -1   28.60    3.90
  -2  -6   1   21.60    3.50
  -2   6   1   34.00    4.80
   2   6  -1   21.40    3.60
   2   6  -1   26.00    2.40
  -2   6   1   28.30    5.00
  -1  -6   1   57.89    4.80
   1  -6  -1   56.29    4.90
  -1  -6   1   46.60    3.60
  -1   6   1   60.39    4.80
  -1   6   1   59.89    4.50
   1   6  -1   58.69    3.90
  -1   6   1   64.09    5.20
   1   6  -1   58.69    4.70
   0  -6   1   64.29    5.10
   0  -6  -1   75.09    5.40
   0  -6  -1   64.29    4.50
   0  -6   1   67.39    4.80
   0   6  -1   68.09    4.50
   0   6   1   65.59    4.40
   0   6  -1   69.69    5.10
   0   6   1   64.29    4.80
  -1  -6  -1  183.78    6.40
   1  -6   1  160.48    8.20
  -1  -6  -1  172.48    8.10
   1   6   1  169.58    5.90
  -1   6  -1  167.18    7.80
  -1   6  -1  183.78    8.50
  -1   6  -1  181.18    8.70
   1   6   1  170.28    8.00
   2  -6   1   58.69    5.70
  -2  -6  -1   66.59    5.40
  -2  -6  -1   61.69    3.10
   2  -6   1   58.69    5.10
  -2   6  -1   56.69    5.00
  -2   6  -1   54.79    5.30
   2   6   1   58.79    5.10
   2   6   1   66.19    2.90
   3  -6   1  965.00   24.20
   3  -6   1  963.90   26.40
  -3  -6  -1  975.30   15.90
  -3  -6  -1  946.01   24.50
   3   6   1  970.70   24.80
  -3   6  -1  993.10   25.80
  -3   6  -1  964.70   24.70
   3   6   1  986.50   15.60
  -4  -6  -1    9.90    1.80
  -4  -6  -1   10.70    1.60
  -4  -6  -1   12.70    5.10
   4  -6   1    8.70    3.70
  -4   6  -1   10.20    3.40
   5  -6   1    4.90    3.50
  -5  -6  -1    6.00    1.90
  -5  -6  -1    4.40    3.20
  -5   6  -1    5.40    3.30
  -6  -6  -1   56.19    4.80
   6  -6   1   76.19   11.00
  -6  -6  -1   66.19    4.00
  -6  -6  -1   65.99    9.20
  -6   6  -1   67.79    9.50
  -7  -6  -1   56.69    4.40
   7  -6   1   44.00    9.10
  -7  -6  -1   44.10    8.10
  -7  -6  -1   43.10    4.90
  -7   6  -1   66.09    9.80
  -8  -6  -1    1.40    3.70
   8  -6   1    9.60    5.00
  -8  -6  -1   -1.10    3.00
  -8   6  -1    6.70    4.20
   8  -7  -1   17.90    6.80
  -8  -7   1    7.70    3.80
  -8  -7   1    9.90    6.30
  -8   7   1    6.60    4.30
  -8   7   1    3.70    4.90
  -7  -7   1   71.79    5.40
  -7  -7   1   70.99   10.70
  -7  -7   1   60.49    6.50
   7  -7  -1   67.89   10.80
  -7   7   1   79.59   11.50
  -6  -7   1    3.80    1.80
   6  -7  -1    4.00    3.70
  -6  -7   1    1.90    2.90
  -6  -7   1    9.90    4.40
  -6   7   1    2.40    3.20
  -5  -7   1  113.59    5.60
  -5  -7   1  112.19    9.50
  -5  -7   1  103.99    6.30
   5  -7  -1  119.59   11.00
  -5   7   1  100.89    8.80
   4  -7  -1   91.29    8.80
  -4  -7   1   66.79    8.80
  -4  -7   1   79.99    4.50
   4   7  -1   74.29    4.30
   3  -7  -1  172.78   10.80
   3  -7  -1  166.28    9.30
  -3  -7   1  150.58    9.00
  -3  -7   1  163.08    6.40
  -3   7   1  157.78   10.40
   3   7  -1  160.58    9.30
  -3   7   1  163.88    9.40
   3   7  -1  175.48    6.40
  -2  -7   1   54.89    3.80
  -2  -7   1   52.49    5.20
   2  -7  -1   48.60    6.40
  -2   7   1   72.49    9.00
   2   7  -1   62.49    3.90
  -2   7   1   48.70    4.90
  -1  -7   1   19.40    3.10
   1  -7  -1   22.50    4.10
  -1  -7   1   22.30    3.80
  -1   7   1   13.70    2.90
   1   7  -1   23.10    3.20
  -1   7   1   18.10    3.80
   1   7  -1   21.30    3.70
  -1   7   1   23.20    4.30
   0  -7   1  254.17   10.70
   0  -7  -1  267.47    9.90
   0  -7  -1  237.88   10.40
   0  -7   1  231.18    9.50
   0   7   1  237.98    9.10
   0   7  -1  255.97    9.60
   0   7   1  232.48   10.00
   0   7  -1  246.58   10.50
  -1  -7  -1   78.29    6.10
   1  -7   1  100.39    6.80
  -1  -7  -1  103.39    5.20
   1   7   1   88.09    6.30
  -1   7  -1  101.09    6.50
   1   7   1   97.49    4.80
  -1   7  -1  102.89    7.00
  -1   7  -1   93.09    6.40
  -2  -7  -1 1119.49   26.40
   2  -7   1 1085.39   25.50
  -2  -7  -1 1110.49   19.60
   2  -7   1 1133.09   28.00
  -2   7  -1 1096.49   27.50
   2   7   1 1101.99   26.10
  -2   7  -1 1067.29   26.70
  -3  -7  -1   80.69    3.50
  -3  -7  -1   77.39    6.80
   3  -7   1   85.99    8.00
   3  -7   1   86.19    7.70
   3   7   1   81.79    3.20
  -3   7  -1   97.69   12.40
  -3   7  -1   77.49    6.70
   3   7   1   89.49    8.20
  -4  -7  -1  185.48   11.10
  -4  -7  -1  200.48    5.40
  -4  -7  -1  199.38    5.70
   4  -7   1  204.68   12.80
  -4   7  -1  197.08   11.50
  -5  -7  -1   90.59    9.00
   5  -7   1   85.69    9.10
  -5  -7  -1   95.69    4.20
  -5  -7  -1   84.79    3.60
  -5   7  -1   93.79    8.60
  -6  -7  -1   29.10    2.90
  -6  -7  -1   34.60    5.00
  -6  -7  -1   30.40    6.50
   6  -7   1   31.30    7.00
  -6   7  -1   24.60    5.40
   7  -7   1   57.59   10.70
  -7  -7  -1   52.39    5.50
  -7   7  -1   80.69   17.10
   8  -7   1   16.80    7.10
  -8  -7  -1    6.30    4.40
  -8   7  -1    8.60    5.70
  -8  -8   1   11.70    3.50
  -8  -8   1   13.70    5.50
   8  -8  -1   11.10    6.70
  -8   8   1   14.10    5.90
  -7  -8   1   18.70    8.40
   7  -8  -1    4.80    4.20
  -7  -8   1   -1.10    2.50
  -7  -8   1    0.10    3.80
  -6  -8   1   91.69    6.40
  -6  -8   1  108.89   10.10
  -6  -8   1   95.49    5.40
   6  -8  -1  124.49   12.20
  -6   8   1  100.89   10.00
  -5  -8   1   11.30    3.00
  -5  -8   1   17.50    4.90
  -5  -8   1   14.10    2.50
   5  -8  -1    9.10    4.50
  -5   8   1    7.30    3.50
  -4  -8   1   16.30    2.60
   4  -8  -1   34.10    7.00
  -4  -8   1   23.30    5.70
   4   8  -1   19.20    2.70
  -4   8   1   23.00    5.00
   3  -8  -1   30.50    5.90
  -3  -8   1   38.30    6.40
  -3  -8   1   33.50    3.40
  -3   8   1   46.00    6.80
   3   8  -1   35.50    3.10
   2  -8  -1  244.48   12.40
  -2  -8   1  272.37    9.30
  -2  -8   1  257.47   11.80
  -2   8   1  261.57   12.30
   2   8  -1  259.17    8.60
  -2   8   1  236.58   11.70
   2   8  -1  240.48   11.30
  -2   8   1  265.27   11.70
  -1  -8   1  109.19    6.40
   1  -8  -1  106.89    7.50
  -1  -8   1  115.79    7.60
  -1   8   1  113.79    7.30
  -1   8   1  107.49    8.50
   1   8  -1  102.69    7.20
  -1   8   1  115.19    7.30
   1   8  -1  110.29    6.00
   0  -8  -1  431.56   15.40
   0  -8   1  472.65   14.80
   0  -8  -1  459.55   14.40
   0  -8   1  453.05   15.80
   0   8   1  475.25   17.70
   0   8   1  458.95   13.90
   0   8  -1  458.55   14.30
   0   8  -1  513.05   20.80
   1  -8   1  258.47   11.70
  -1  -8  -1  231.28   11.00
  -1  -8  -1  231.18    8.80
  -1   8  -1  227.38   10.60
  -1   8  -1  240.58   10.70
   1   8   1  238.18    8.50
  -1   8  -1  250.37   11.50
   1   8   1  248.58   10.90
   2  -8   1    3.90    2.10
  -2  -8  -1    3.10    1.40
  -2  -8  -1    3.80    2.00
  -2   8  -1    2.70    2.40
  -2   8  -1    4.40    2.30
   2   8   1    3.70    1.30
  -2   8  -1    5.30    2.60
   2   8   1    7.90    3.00
   3  -8   1   65.79    8.80
  -3  -8  -1   64.49    6.70
  -3  -8  -1   55.99    3.30
  -3   8  -1   67.89    6.60
   3   8   1   64.49    3.20
   4  -8   1  106.19    9.70
  -4  -8  -1  111.89    3.70
  -4  -8  -1  116.19    9.40
  -4  -8  -1  104.09    3.80
  -4   8  -1   91.79    8.20
  -5  -8  -1   17.20    1.70
  -5  -8  -1   12.70    3.90
   5  -8   1   22.20    6.10
  -5  -8  -1   15.50    1.60
  -5   8  -1   13.90    4.30
  -6  -8  -1  136.19   11.60
   6  -8   1  108.39   11.70
  -6   8  -1  153.28   12.10
   7  -8   1   27.90    7.60
  -7  -8  -1   31.10    7.30
  -7   8  -1   24.70    6.50
  -8  -8  -1    2.00    5.30
   8  -8   1    0.70    5.60
  -8   8  -1    3.00    5.20
  -8  -9   1   54.39   10.20
   8  -9  -1   49.70   10.60
  -8   9   1   44.60    9.30
  -7  -9   1    2.60    3.60
  -7  -9   1    4.00    2.50
  -7  -9   1   -3.80    3.80
   7  -9  -1    1.00    3.70
  -7   9   1    3.80    4.70
  -6  -9   1   21.20    5.80
  -6  -9   1   10.80    3.10
   6  -9  -1   25.30    6.70
  -6  -9   1   14.40    2.90
  -6   9   1   20.20    6.10
  -5  -9   1   43.00    4.60
  -5  -9   1   50.69    4.10
   5  -9  -1   51.89    9.60
  -5  -9   1   43.70    7.10
  -5   9   1   58.09    8.50
   4  -9  -1  106.39   10.50
  -4  -9   1  108.49    5.50
  -4  -9   1  119.49    9.60
   4   9  -1  119.09    5.50
  -4   9   1  121.49    9.40
   3  -9  -1   32.70    6.00
  -3  -9   1   40.40    4.60
  -3  -9   1   49.30    7.10
  -3   9   1   36.90    7.70
   3   9  -1   36.90    3.40
  -2  -9   1  335.17   14.30
   2  -9  -1  327.97   15.00
  -2  -9   1  315.17   10.90
   2   9  -1  318.87   10.30
  -2   9   1  340.07   14.00
  -2   9   1  319.17   16.00
   1  -9  -1   23.40    5.00
  -1  -9   1   27.80    4.50
  -1  -9   1   19.60    4.40
   1   9  -1   22.30    3.80
   1   9  -1   19.20    4.30
  -1   9   1   21.70    4.60
  -1   9   1   15.90    3.70
  -1   9   1   14.80    3.80
   0  -9  -1    6.30    1.90
   0  -9   1   13.30    2.90
   0  -9   1   12.90    3.90
   0  -9  -1   11.70    3.60
   0   9   1    9.30    3.20
   0   9  -1    5.50    2.20
   0   9  -1    8.50    3.10
   0   9   1    8.60    2.80
   1  -9   1   43.70    6.50
  -1  -9  -1   58.89    4.70
  -1  -9  -1   60.19    7.40
  -1   9  -1   47.50    6.20
  -1   9  -1   45.60    6.20
   1   9   1   48.30    4.00
  -1   9  -1   45.70    6.60
   1   9   1   52.59    6.90
   2  -9   1  417.26   17.20
  -2  -9  -1  401.26   15.90
  -2  -9  -1  402.96   11.60
   2   9   1  413.66   10.90
  -2   9  -1  434.16   16.20
  -3  -9  -1    3.40    2.40
  -3  -9  -1    1.40    1.30
   3  -9   1    1.40    2.10
  -3   9  -1   -1.60    1.60
   3   9   1    0.90    1.00
  -4  -9  -1   75.09    3.30
   4  -9   1   83.89   10.70
  -4  -9  -1   81.09    8.10
  -4  -9  -1   80.59    3.20
  -4   9  -1   84.59    8.30
  -5  -9  -1   16.50    4.60
   5  -9   1   20.50    6.30
  -5   9  -1    7.80    3.40
  -6  -9  -1    1.30    3.30
   6  -9   1    0.80    3.30
  -6   9  -1   -1.20    3.00
   7  -9   1   -3.20    4.60
  -7  -9  -1   -0.10    3.20
  -7   9  -1   -4.30    3.80
   7 -10  -1    4.60    4.60
  -7 -10   1    0.80    4.10
  -7  10   1    0.60    4.30
  -6 -10   1    4.10    2.90
  -6 -10   1   11.00    2.70
   6 -10  -1    8.10    4.80
  -6 -10   1   16.20    5.30
  -6  10   1   11.40    5.40
  -5 -10   1   22.50    3.50
  -5 -10   1   23.20    6.10
  -5 -10   1   29.40    3.50
   5 -10  -1   20.10    6.30
  -5  10   1   34.60    7.10
  -4 -10   1   36.70    3.80
   4 -10  -1   46.50    8.60
  -4 -10   1   54.39    7.50
  -4  10   1   61.29    9.00
   4  10  -1   38.50    3.70
  -3 -10   1  264.27   13.80
   3 -10  -1  259.27   15.00
  -3 -10   1  264.67    9.80
  -3  10   1  277.07   14.00
   3  10  -1  262.97    9.10
  -2 -10   1   37.30    4.90
   2 -10  -1   27.30    5.30
   2  10  -1   27.40    4.00
  -2  10   1   31.20    8.70
  -1 -10   1  518.25   16.30
   1 -10  -1  531.65   18.70
  -1 -10   1  511.15   18.80
   1  10  -1  481.35   15.10
  -1  10   1  498.45   17.50
  -1  10   1  523.85   18.20
   0 -10   1   53.99    6.70
   0 -10  -1   58.59    5.70
   0 -10   1   47.20    6.70
   0 -10  -1   57.09    8.10
   0  10  -1   55.49    5.50
   0  10   1   54.79    5.30
  -1 -10  -1  165.28    8.40
   1 -10   1  150.08    9.80
  -1 -10  -1  153.28   10.00
   1  10   1  157.68    7.70
  -1  10  -1  139.79    9.20
  -1  10  -1  164.78    9.90
  -2 -10  -1   14.90    4.50
   2 -10   1   16.20    4.80
  -2 -10  -1   14.60    3.00
  -2  10  -1    6.10    2.60
   2  10   1   13.20    2.70
  -3 -10  -1   10.50    3.90
   3 -10   1    7.70    3.90
  -3 -10  -1   18.20    2.80
  -3  10  -1   11.70    3.70
   3  10   1   16.40    2.30
  -4 -10  -1   12.70    4.60
   4 -10   1   17.90    5.90
  -4 -10  -1    9.30    1.60
  -4  10  -1    9.40    3.90
  -5 -10  -1   39.30    7.40
   5 -10   1   36.90    8.00
  -5  10  -1   25.40    6.30
   6 -10   1   82.19   11.90
  -6 -10  -1   87.19   11.80
  -6  10  -1   67.59    9.80
  -7 -10  -1   12.00    5.60
   7 -10   1   11.70    4.90
  -7  10  -1    3.60    4.70
   7 -11  -1   14.10    5.40
  -7 -11   1   31.10    8.30
  -7  11   1   25.30    7.80
  -6 -11   1   18.40    2.90
   6 -11  -1    2.70    4.20
  -6  11   1   16.10    6.10
   5 -11  -1  141.69   13.20
  -5 -11   1  128.59    6.80
  -5 -11   1  141.89   11.50
  -5 -11   1  127.79    6.10
  -5  11   1  137.39   11.40
  -4 -11   1    4.20    2.70
   4 -11  -1   -1.50    3.10
  -4 -11   1    3.90    2.10
   4  11  -1    1.20    1.80
  -4  11   1    1.70    2.90
   3 -11  -1    0.10    2.50
  -3 -11   1    4.60    2.40
  -3 -11   1    1.80    2.70
  -3  11   1    3.60    3.30
   3  11  -1    0.80    2.00
   2 -11  -1    1.40    2.70
  -2 -11   1    6.90    2.70
  -2 -11   1    3.80    3.00
  -2  11   1    3.10    2.30
   2  11  -1    7.00    2.50
   1 -11  -1  150.78   10.00
  -1 -11   1  120.09    9.50
  -1 -11   1  129.49    8.30
   1  11  -1  156.08    9.60
  -1  11   1  158.58   10.20
   0 -11  -1   24.50    4.70
   0 -11   1   38.50    7.00
   0 -11   1   30.80    5.60
   0 -11  -1   30.20    6.80
   0  11  -1   29.20    5.10
   0  11   1   34.80    5.20
  -1 -11  -1  452.85   15.40
   1 -11   1  433.86   18.00
  -1 -11  -1  433.56   18.00
  -1  11  -1  468.45   17.80
   1  11   1  435.36   14.10
  -2 -11  -1  152.18   10.90
   2 -11   1  167.38   11.70
  -2 -11  -1  157.88    7.90
  -2  11  -1  153.98   10.40
   2  11   1  152.18    7.20
  -3 -11  -1   16.30    2.80
   3 -11   1   12.20    4.70
  -3 -11  -1   12.10    4.40
   3  11   1   17.30    2.80
  -3  11  -1   15.40    4.50
   4 -11   1   92.69   12.10
  -4 -11  -1   99.99    4.00
  -4 -11  -1  108.59   10.40
  -4  11  -1   92.99    9.30
   4  11   1   97.49    3.90
   5 -11   1   91.39   12.60
  -5 -11  -1  106.89   10.80
  -5  11  -1  113.49   10.60
  -6 -11  -1    4.90    4.10
   6 -11   1    3.30    4.30
  -6  11  -1    4.40    4.00
  -7 -11  -1   14.70    5.80
   7 -11   1   14.40    6.60
  -7  11  -1   24.20    6.50
  -7 -12   1   -5.50    4.30
   7 -12  -1   -4.40    5.40
  -7  12   1   -2.80    5.20
   6 -12  -1   35.00    9.20
  -6 -12   1   43.50    8.50
  -6  12   1   32.70    7.50
  -5 -12   1   72.19   10.20
   5 -12  -1   68.09   10.60
  -5 -12   1   78.39    5.10
  -5  12   1   59.89    8.50
  -4 -12   1   13.10    4.50
   4 -12  -1   12.90    5.20
  -4 -12   1   13.80    2.80
  -4  12   1    0.30    3.00
   4  12  -1   13.80    2.90
  -3 -12   1  214.88   13.70
  -3 -12   1  218.88    9.70
   3 -12  -1  196.68   14.10
  -3  12   1  227.48   13.70
   3  12  -1  228.48    9.50
   2 -12  -1    0.70    2.70
  -2 -12   1    4.30    2.60
  -2 -12   1    2.70    3.10
  -2  12   1    3.50    3.00
   1 -12  -1   25.90    7.60
  -1 -12   1   54.69    8.50
  -1 -12   1   47.80    6.90
   1  12  -1   49.99    6.20
  -1  12   1   37.60    5.70
   0 -12   1  176.58   10.90
   0 -12   1  185.68   12.50
   0 -12  -1  200.18   13.00
   0 -12  -1  182.78   11.00
   0  12   1  165.28    9.80
   1 -12   1  150.28   10.70
  -1 -12  -1  168.98   11.80
  -1 -12  -1  171.08    9.70
  -1  12  -1  153.18   10.50
   1  12   1  169.18    9.80
   2 -12   1    0.20    2.20
  -2 -12  -1    1.80    2.80
  -2 -12  -1   -1.70    1.70
   2  12   1    2.40    1.80
  -2  12  -1    1.30    2.10
  -3 -12  -1   85.69    5.60
   3 -12   1   81.99   10.90
  -3 -12  -1  107.89    9.90
  -3  12  -1   95.49    9.10
   3  12   1   95.59    5.40
  -4 -12  -1    5.90    1.70
  -4 -12  -1   -1.40    4.10
   4 -12   1    0.90    3.00
  -4  12  -1    1.00    3.20
  -5 -12  -1   40.80    8.50
   5 -12   1   23.50    6.70
  -5  12  -1   22.40    6.30
   6 -12   1    8.70    5.90
  -6 -12  -1    3.60    4.30
  -6  12  -1    3.10    4.50
  -7 -12  -1    2.70    4.90
   7 -12   1    4.90    5.90
  -7  12  -1    7.60    5.30
  -6 -13   1   14.50    6.20
   6 -13  -1   10.80    6.80
  -6  13   1   13.30    5.30
  -5 -13   1   45.70    4.40
  -5 -13   1   42.70    8.30
   5 -13  -1   42.50   12.20
  -5  13   1   54.39    9.80
   4 -13  -1   55.49    9.90
  -4 -13   1   67.39    5.30
  -4 -13   1   68.09   10.10
   4  13  -1   61.29    5.30
  -4  13   1   82.69   10.90
  -3 -13   1   74.29   10.50
  -3 -13   1   73.49    5.80
   3 -13  -1   72.19   10.10
  -3  13   1   79.89   10.60
   3  13  -1   77.39    5.90
  -2 -13   1   75.99   10.40
  -2 -13   1   76.89    6.80
   2 -13  -1   73.19    9.80
   2  13  -1   73.29    6.40
  -2  13   1   86.79    8.80
  -1 -13   1   94.69    8.00
   1 -13  -1   91.79    9.20
  -1 -13   1   86.99    9.20
  -1  13   1  103.79    9.20
   0 -13  -1   -0.90    2.70
   0 -13   1   -0.80    2.50
   0 -13  -1   -2.90    2.10
  -1 -13  -1    8.10    3.50
  -1 -13  -1    3.00    2.70
   1 -13   1    1.20    3.30
   1  13   1    4.50    2.90
  -1  13  -1    0.80    2.90
  -2 -13  -1  162.58   12.20
   2 -13   1  181.08   13.20
  -2 -13  -1  174.68    9.40
  -2  13  -1  192.08   12.50
   2  13   1  176.08    8.70
  -3 -13  -1   24.00    6.40
   3 -13   1   23.00    5.90
  -3 -13  -1   21.70    3.80
  -3  13  -1   17.20    4.80
   3  13   1   19.30    3.40
  -4 -13  -1   95.99    5.80
  -4 -13  -1   90.29   11.90
   4 -13   1  120.09   15.60
   4  13   1  103.59    4.80
  -4  13  -1  106.29   10.90
  -5 -13  -1   57.09   13.00
   5 -13   1   79.09   13.30
  -5  13  -1   79.59   15.30
  -6 -13  -1    9.80    5.40
   6 -13   1   -1.10    4.30
  -6  13  -1   -1.00    3.80
   6 -14  -1   30.10    8.60
  -6 -14   1   54.59    9.60
  -6  14   1   37.90    8.70
  -5 -14   1    2.00    4.10
  -5 -14   1    3.80    2.60
   5 -14  -1    2.10    4.00
  -5  14   1   10.10    4.90
   5  14  -1   -1.40    2.20
  -4 -14   1   42.70    5.20
  -4 -14   1   32.30    6.30
   4 -14  -1   43.40    9.00
   4  14  -1   38.00    4.70
  -4  14   1   41.70    7.80
  -3 -14   1    0.40    2.80
   3 -14  -1   -1.60    3.70
  -3 -14   1    2.60    2.70
   3  14  -1    6.10    3.20
  -3  14   1    1.40    2.90
  -2 -14   1  143.39    9.40
  -2 -14   1  135.09   11.70
   2 -14  -1  139.69   11.70
   2  14  -1  140.79   10.20
  -2  14   1  145.79   11.40
  -1 -14   1    0.10    2.50
   1 -14  -1    2.70    3.00
  -1 -14   1    6.00    3.40
  -1  14   1   -2.30    2.00
   0 -14  -1  406.46   17.60
   0 -14   1  376.86   19.50
   0 -14  -1  374.76   19.60
   0 -14   1  393.16   18.00
  -1 -14  -1    8.50    3.60
  -1 -14  -1   11.90    4.60
   1 -14   1   12.00    4.90
  -1  14  -1   15.90    4.40
  -2 -14  -1   61.29    9.00
  -2 -14  -1   77.99    6.60
   2 -14   1   77.19   10.60
  -2  14  -1   89.19   11.10
   2  14   1   54.79    5.70
   3 -14   1   12.00    4.60
  -3 -14  -1   24.60    6.50
  -3 -14  -1   11.50    3.00
   3  14   1   15.90    3.40
  -3  14  -1    4.40    3.70
  -4 -14  -1   81.99   10.50
   4 -14   1   64.09   10.10
   4  14   1   87.19    4.40
  -4  14  -1   66.59   10.30
  -5 -14  -1   -2.20    3.70
   5 -14   1    5.20    4.80
  -5  14  -1   -3.40    2.80
  -6 -14  -1   56.89    9.50
   6 -14   1   60.79   11.50
  -6  14  -1   57.39   10.20
  -5 -15   1    0.00    2.60
   5 -15  -1   -1.90    3.80
  -5 -15   1    1.90    4.50
  -5  15   1    9.80    4.50
  -4 -15   1  106.49    7.50
  -4 -15   1  114.49   11.80
   4 -15  -1  125.49   13.20
   4  15  -1  123.69    7.80
  -4  15   1  130.09   12.60
  -3 -15   1    6.60    3.90
   3 -15  -1   13.30    5.90
  -3 -15   1   11.50    4.30
  -3  15   1   10.80    4.60
   3  15  -1   11.60    4.00
  -2 -15   1    1.90    2.90
  -2 -15   1    3.60    3.50
   2 -15  -1    2.20    3.50
  -2  15   1    0.80    2.60
  -1 -15   1   33.60    7.10
   1 -15  -1   23.10    5.90
  -1 -15   1   29.00    7.30
  -1  15   1   18.50    5.30
   0 -15   1   57.39   10.10
   0 -15   1   68.19   10.30
   0 -15  -1   57.39    9.30
   0 -15  -1   51.99    8.60
   0  15  -1   57.19    9.50
   1 -15   1    8.80    3.30
  -1 -15  -1    5.90    4.20
  -1  15  -1   -1.60    2.40
  -2 -15  -1   71.09   10.50
  -2 -15  -1   75.99    7.00
   2 -15   1   79.99   11.50
  -2  15  -1   69.29    9.70
   2  15   1   66.79    7.30
  -3 -15  -1   -1.20    3.50
  -3 -15  -1    1.90    2.70
   3 -15   1    1.00    4.00
   3  15   1    0.50    2.70
  -3  15  -1   -1.30    2.60
  -4 -15  -1   37.60    4.10
   4 -15   1   50.39   10.50
  -4 -15  -1   23.00    6.50
  -4  15  -1   45.80    8.80
   4  15   1   37.70    3.90
   5 -15   1   -3.90    4.40
  -5 -15  -1    2.90    4.80
  -5  15  -1   -2.60    4.20
   5 -16  -1    3.00    5.10
  -5 -16   1    9.20    5.10
  -5  16   1    5.80    4.50
  -4 -16   1    1.30    3.30
   4 -16  -1    0.20    5.10
  -4 -16   1    3.30    4.20
  -4  16   1   -1.00    3.40
  -3 -16   1  155.58   13.90
   3 -16  -1  133.19   13.80
  -3 -16   1  125.19    9.20
  -3  16   1  110.59   14.60
  -2 -16   1   46.90    9.20
  -2 -16   1   61.59    8.30
   2 -16  -1   54.69    8.60
  -2  16   1   64.19   10.40
   1 -16  -1    2.80    3.30
  -1 -16   1    7.90    4.30
  -1 -16   1    0.50    4.30
  -1  16   1    5.30    3.40
   0 -16  -1    0.90    3.30
   0 -16  -1   -0.80    3.20
   0 -16   1    4.60    4.30
   0  16  -1    1.90    3.00
   0  16   1    3.40    3.30
   1 -16   1   16.20    5.60
  -1 -16  -1   13.70    4.30
  -1 -16  -1   23.70    6.30
  -1  16  -1   17.00    5.40
   2 -16   1    1.50    3.90
  -2 -16  -1    0.90    3.00
  -2 -16  -1   -2.70    3.10
  -2  16  -1   -0.10    2.70
  -3 -16  -1  147.59    9.10
  -3 -16  -1  171.38   14.60
   3 -16   1  152.18   23.40
  -3  16  -1  204.88   14.90
   3  16   1  167.78    9.00
  -4 -16  -1   -0.70    3.40
  -4 -16  -1    2.20    2.90
   4 -16   1    4.10    5.40
  -4  16  -1    3.80    4.30
  -5 -16  -1    8.30    6.10
   5 -16   1   -4.90    5.50
  -5  16  -1    0.90    4.80
  -4 -17   1    1.80    3.60
  -4 -17   1    1.60    5.30
   4 -17  -1   -3.20    4.40
  -4  17   1    7.80    5.00
   3 -17  -1   13.30    5.90
  -3 -17   1    9.00    5.10
  -3  17   1    5.70    4.30
  -2 -17   1    1.30    3.20
  -2 -17   1   -0.10    3.80
   2 -17  -1    1.40    3.70
  -2  17   1    2.90    4.10
  -1 -17   1   71.29   10.60
   1 -17  -1   76.19   11.20
  -1 -17   1   72.69   13.30
  -1  17   1   61.49   13.00
   0 -17   1    5.70    3.70
   0 -17  -1    4.80    4.00
   0  17   1    2.60    5.60
   1 -17   1   83.59   11.80
  -1 -17  -1   86.29   14.30
  -1 -17  -1  104.89    9.60
  -1  17  -1  102.79   15.00
  -2 -17  -1    9.40    4.90
   2 -17   1   -3.70    3.70
  -2 -17  -1   -0.50    3.40
  -2  17  -1    2.30    4.20
  -3 -17  -1    1.20    3.80
   3 -17   1   -7.20    3.40
  -3 -17  -1    2.30    3.90
  -3  17  -1   -1.50    3.30
   4 -17   1   11.90    7.20
  -4 -17  -1   12.80    3.90
  -4 -17  -1   12.80    5.50
  -4  17  -1   11.80    5.20
  -3 -18   1   54.89   10.10
  -3 -18   1   57.49    8.10
   3 -18  -1   52.19   10.00
  -3  18   1   33.90    7.20
  -2 -18   1    4.10    4.50
   2 -18  -1    1.00    4.40
  -2 -18   1   -1.40    4.30
  -2  18   1   -4.00    3.30
   1 -18  -1   20.20    6.60
  -1 -18   1   15.30    5.80
  -1 -18   1   21.90    7.40
  -1  18   1   18.10    5.50
   0 -18  -1   10.20    4.90
   0 -18   1    4.50    4.80
   0  18  -1    4.00    4.10
   0  18   1   -2.00    2.70
  -1 -18  -1    5.30    4.40
   1 -18   1    6.80    4.50
  -1 -18  -1    4.80    5.20
  -1  18  -1    1.40    3.40
  -2 -18  -1    4.00    4.20
  -2 -18  -1   11.70    5.70
   2 -18   1    8.70    5.90
  -2  18  -1   -1.60    3.30
  -3 -18  -1    4.40    5.00
  -3 -18  -1    9.90    4.50
   3 -18   1    2.70    4.80
  -3  18  -1    5.90    4.70
  -2 -19   1   79.29   13.50
  -2 -19   1   88.59   10.50
   2 -19  -1   63.79   11.10
  -2  19   1   69.99   11.60
  -1 -19   1   53.39    8.70
  -1 -19   1   44.10    9.00
  -1  19   1   43.90    9.50
   1  19  -1   51.29    9.60
   0 -19   1    4.60    4.20
   0 -19  -1    8.00    5.30
   0  19   1   11.20    6.20
   0  19  -1   10.50    6.00
  -1 -19  -1    3.40    5.10
  -1 -19  -1    2.40    5.50
   1 -19   1    1.30    4.60
  -1  19  -1    0.90    4.00
   2 -19   1   70.89   12.30
  -2 -19  -1   32.50    8.60
  -2 -19  -1   59.99    8.60
  -2  19  -1   52.79    9.70
  -8   0   2   87.49    8.50
  -7   0   2   -3.30    2.50
  -7   0   2    2.50    2.60
  -6   0   2   11.70    3.30
  -6   0   2    3.50    3.50
  -5   0   2   -0.20    1.80
  -5   0   2    1.00    2.40
  -5   0   2    1.40    2.00
  -4   0   2   46.40    5.70
  -4   0   2   36.50    5.40
  -4   0   2   39.90    4.00
  -3   0   2   -1.20    0.90
  -3   0   2    0.70    0.90
  -3   0   2    2.00    1.50
   3   0  -2    0.20    1.20
  -2   0   2  217.08    7.90
  -2   0   2  219.08    7.00
  -2   0   2  223.88    7.10
   2   0  -2  226.28    7.10
  -1   0   2    0.10    0.40
   1   0  -2   -0.40    0.50
  -1   0   2    0.30    0.50
   1   0  -2   -0.20    0.30
   0   0  -2 1235.78   16.60
   0   0   2 1195.78   18.00
   1   0   2   -0.30    0.70
  -1   0  -2    1.30    0.60
   1   0   2    0.00    0.50
  -1   0  -2    0.40    0.70
   2   0   2   86.39    4.80
  -2   0  -2   95.69    5.10
   2   0   2   90.59    4.30
   3   0   2    1.50    1.40
  -3   0  -2    1.20    1.20
   3   0   2   -0.20    1.20
  -3   0  -2    0.90    1.40
  -4   0  -2  661.63   17.40
   4   0   2  651.33   19.60
   4   0   2  692.33   18.50
  -4   0  -2  681.73   20.20
   5   0   2   -1.20    1.70
  -5   0  -2   -0.90    1.70
  -5   0  -2   -1.00    2.10
  -6   0  -2  438.66   15.10
   6   0   2  445.96   17.50
  -6   0  -2  430.96   19.20
  -6   0  -2  400.46   15.60
  -7   0  -2   -1.40    2.60
  -7   0  -2   -3.80    2.90
  -8   0  -2    4.60    3.60
  -8   0  -2    3.80    3.70
  -8  -1   2   57.99    7.80
  -8   1   2   49.20    7.20
  -7  -1   2  107.39    8.50
  -7  -1   2  103.49   10.10
  -7   1   2  109.69    9.10
  -7   1   2  115.69   10.60
  -6  -1   2  106.69    7.70
  -6  -1   2  106.29    9.40
  -6   1   2  119.79    9.90
  -6   1   2  113.69    9.80
  -5  -1   2   99.29    7.60
  -5  -1   2  103.29    7.90
  -5  -1   2   99.79    6.50
  -5   1   2  102.49    8.10
  -5   1   2   95.39    7.20
  -5   1   2   94.99    7.70
  -4  -1   2  246.78   10.80
  -4  -1   2  251.87    9.60
  -4  -1   2  255.97   10.80
  -4   1   2  264.27   11.10
  -4   1   2  245.38   10.10
   4   1  -2  270.47   12.80
  -4   1   2  265.37   11.60
  -3  -1   2  942.01   21.10
  -3  -1   2  944.41   19.10
   3  -1  -2  920.11   22.40
  -3  -1   2  949.71   20.70
   3  -1  -2  930.71   20.30
   3   1  -2  912.41   20.30
  -3   1   2  909.11   22.00
  -3   1   2  900.81   20.40
   2  -1  -2  233.08    7.40
   2  -1  -2  241.08    9.00
  -2  -1   2  248.48    8.20
  -2  -1   2  244.78    7.60
  -2   1   2  243.18    7.60
   2   1  -2  254.57    7.70
   2   1  -2  243.38    7.10
  -2   1   2  255.37    9.00
  -1  -1   2  546.15    9.90
  -1  -1   2  537.05   10.40
   1  -1  -2  554.24    9.90
   1   1  -2  534.65   10.40
  -1   1   2  530.85   10.80
   1   1  -2  546.65    9.90
  -1   1   2  552.84    9.90
  -1   1   2  545.75   12.10
   0  -1  -2   20.70    1.20
   0  -1   2   22.20    1.40
   0  -1   2   19.30    1.50
   0  -1  -2   22.10    1.30
   0   1   2   20.90    1.50
   0   1  -2   22.30    1.20
   0   1  -2   19.20    1.50
   0   1   2   21.60    1.30
   1  -1   2  107.39    4.30
  -1  -1  -2  105.29    2.70
  -1  -1  -2  111.69    4.40
   1  -1   2  107.69    4.30
  -1   1  -2  115.99    4.40
   1   1   2  110.09    2.80
  -1   1  -2  107.19    4.10
   1   1   2  111.99    4.40
   2  -1   2  301.67    9.50
   2  -1   2  306.57    9.30
  -2  -1  -2  313.57    7.40
  -2   1  -2  319.17    9.90
   2   1   2  295.97    9.50
   2   1   2  315.17    7.70
  -2   1  -2  308.87    9.10
  -3  -1  -2   51.59    3.60
   3  -1   2   49.99    4.30
   3  -1   2   47.60    4.50
  -3   1  -2   47.40    4.60
  -3   1  -2   56.69    4.30
   3   1   2   47.90    3.70
   3   1   2   49.50    4.60
   4  -1   2  154.78    9.10
   4  -1   2  172.38    9.00
  -4  -1  -2  172.48    9.60
  -4  -1  -2  160.38    7.40
  -4   1  -2  145.29    8.80
   4   1   2  160.48    7.70
   4   1   2  152.38    9.10
  -4   1  -2  168.58    8.40
  -5  -1  -2    3.60    2.20
  -5  -1  -2   -1.40    1.10
   5  -1   2    2.20    2.40
  -5  -1  -2    0.70    2.30
   5   1   2    1.70    2.10
  -5   1  -2    4.50    2.70
  -5   1  -2    0.50    2.00
  -6  -1  -2   91.79    9.10
  -6  -1  -2   86.39    7.40
   6  -1   2   91.59    8.60
  -6  -1  -2  103.19    6.90
  -6   1  -2   94.89    9.30
  -7  -1  -2   19.20    4.40
  -7  -1  -2   23.80    5.80
  -7   1  -2   16.80    4.40
  -7   1  -2   19.10    6.00
  -8  -1  -2   14.90    4.90
  -8  -1  -2   22.90    5.40
  -8   1  -2   14.00    4.30
  -8   1  -2   16.40    5.10
  -8  -2   2   54.99   11.50
  -8  -2   2   59.79    7.60
  -8   2   2   36.00    6.80
  -8   2   2   42.00   10.20
  -7  -2   2   17.90    4.30
  -7  -2   2   11.90    4.20
  -7   2   2   11.70    4.50
  -7   2   2   13.50    5.20
  -6  -2   2   59.39    7.80
  -6  -2   2   80.99    6.50
  -6  -2   2   63.99    7.60
  -6   2   2   71.59    9.10
  -6   2   2   78.69    7.40
  -5  -2   2  169.98    9.50
  -5  -2   2  185.68   10.70
  -5  -2   2  177.18    8.50
   5  -2  -2  152.38   10.60
  -5   2   2  186.88   10.00
  -5   2   2  187.28   10.60
   4  -2  -2    5.10    2.20
  -4  -2   2    3.20    1.70
  -4  -2   2    0.00    1.30
   4  -2  -2    1.80    1.70
  -4  -2   2    2.90    1.90
   4   2  -2    0.20    1.70
  -4   2   2    2.70    1.80
  -4   2   2    1.90    2.50
  -3  -2   2  435.66   12.70
   3  -2  -2  438.46   14.60
   3  -2  -2  426.16   12.60
  -3  -2   2  403.06   10.90
  -3  -2   2  400.86   12.50
   3   2  -2  410.76   12.50
  -3   2   2  413.36   14.00
  -3   2   2  409.96   12.70
   2  -2  -2   90.49    5.70
  -2  -2   2   93.89    4.70
   2  -2  -2  100.19    4.80
  -2   2   2   95.19    5.70
   2   2  -2   93.99    4.70
  -2   2   2   97.29    4.80
   2   2  -2   93.59    4.20
   1  -2  -2   33.60    2.30
  -1  -2   2   36.80    2.30
   1  -2  -2   32.50    2.90
  -1  -2   2   33.30    2.30
   1   2  -2   37.60    2.40
   1   2  -2   34.30    2.30
  -1   2   2   35.40    3.00
  -1   2   2   36.20    2.30
   0  -2   2  242.38    6.40
   0  -2   2  244.98    6.50
   0  -2  -2  253.17    6.20
   0  -2  -2  245.98    6.10
   0   2  -2  257.87    6.50
   0   2   2  251.77    6.10
   0   2   2  244.18    6.00
   0   2  -2  247.98    6.40
   1  -2   2  472.25   11.20
  -1  -2  -2  434.46   10.50
   1  -2   2  465.95   10.60
   1   2   2  460.25   10.60
  -1   2  -2  476.05   11.00
  -1   2  -2  468.15   10.80
   2  -2   2   88.09    5.00
  -2  -2  -2   94.89    3.00
  -2  -2  -2   94.39    5.40
   2  -2   2   96.99    5.40
  -2   2  -2   90.89    5.10
   2   2   2   93.49    3.20
  -2   2  -2   82.59    5.00
   2   2   2   94.09    5.20
   3  -2   2   87.79    6.00
  -3  -2  -2   98.99    6.50
   3  -2   2   72.99    5.50
  -3  -2  -2   76.89    5.10
   3   2   2   91.69    4.50
   3   2   2   84.59    5.90
  -3   2  -2   84.39    6.10
  -3   2  -2   79.49    5.50
  -4  -2  -2  210.28    8.00
   4  -2   2  216.78   10.80
  -4  -2  -2  206.38   10.50
  -4  -2  -2  206.28    7.10
   4  -2   2  209.08   10.50
  -4   2  -2  208.08    9.90
  -4   2  -2  208.08   10.70
   4   2   2  214.18   10.70
   5  -2   2    6.50    3.00
  -5  -2  -2    5.80    2.30
  -5  -2  -2    4.70    2.90
  -5  -2  -2    6.00    2.30
  -5   2  -2    4.90    3.10
  -5   2  -2    0.70    2.00
  -6  -2  -2    1.70    2.80
  -6  -2  -2    1.80    2.10
  -6  -2  -2    3.40    3.20
  -6   2  -2    6.50    3.70
  -7  -2  -2   60.39    5.60
   7  -2   2   76.39   10.40
  -7  -2  -2   45.20    6.50
  -7  -2  -2   54.29    9.50
  -7   2  -2   53.29    9.00
  -8  -2  -2    6.50    3.50
  -8   2  -2    8.40    4.40
  -8   2  -2    6.60    4.30
  -8  -3   2    3.00    3.30
  -8  -3   2    4.10    4.50
  -8   3   2    3.90    4.50
  -8   3   2    2.40    4.00
  -7  -3   2  175.98    9.60
  -7  -3   2  187.58   13.30
  -7   3   2  169.98   11.80
  -7   3   2  164.18   12.40
  -6  -3   2   -0.50    2.40
  -6  -3   2    4.10    3.60
  -6  -3   2    0.60    2.00
  -6   3   2    0.00    2.30
  -6   3   2   -1.00    2.30
  -5  -3   2   37.90    4.70
  -5  -3   2   35.20    5.10
  -5  -3   2   45.50    9.50
   5  -3  -2   41.30    7.00
  -5   3   2   29.80    6.00
  -4  -3   2   -1.10    1.50
   4  -3  -2   -1.20    1.50
  -4  -3   2    0.60    1.50
  -4  -3   2    1.20    1.30
   4  -3  -2    0.80    1.20
  -4   3   2    1.50    1.40
   4   3  -2   -1.00    1.60
  -4   3   2   -0.20    2.00
   3  -3  -2  100.69    6.00
  -3  -3   2   91.09    5.80
  -3  -3   2   94.99    4.80
   3  -3  -2   93.69    6.90
  -3   3   2   95.89    6.10
   3   3  -2   87.69    4.60
  -3   3   2   86.59    6.30
   3   3  -2   82.89    5.60
  -2  -3   2   97.79    5.10
   2  -3  -2  101.09    5.10
   2  -3  -2   94.59    6.10
  -2   3   2   98.69    6.10
   2   3  -2  106.09    5.20
  -2   3   2   99.39    5.10
   2   3  -2   98.19    4.30
   1  -3  -2 1126.79   19.90
  -1  -3   2 1159.78   19.50
  -1  -3   2 1164.68   22.10
   1  -3  -2 1131.99   22.20
  -1   3   2 1145.69   20.20
   1   3  -2 1167.98   20.30
  -1   3   2 1157.98   21.20
  -1   3   2 1168.78   22.10
   0  -3   2  598.74   12.90
   0  -3  -2  603.54   12.50
   0  -3   2  595.84   12.60
   0  -3  -2  579.64   11.80
   0   3   2  556.94   15.50
   0   3   2  584.34   11.70
   0   3  -2  576.74   12.40
   1  -3   2 9607.04  133.99
  -1   3  -2 9872.31  133.79
   1   3   2 9999.00  126.69
   1   3   2 9880.51  132.89
  -2  -3  -2  194.18    3.30
  -2  -3  -2  182.88    7.80
   2  -3   2  176.98    7.60
   2  -3   2  184.78    8.20
   2   3   2  201.38    8.00
  -2   3  -2  191.48    8.00
  -2   3  -2  204.68    8.20
  -3  -3  -2    1.80    1.40
   3  -3   2    2.20    1.40
  -3  -3  -2    1.10    0.80
   3  -3   2   -0.50    1.40
  -3  -3  -2    0.30    0.70
  -3   3  -2    1.40    1.50
   3   3   2    1.10    1.50
  -3   3  -2    0.90    1.20
  -4  -3  -2   34.00    3.00
   4  -3   2   35.10    5.80
  -4  -3  -2   38.40    3.20
   4  -3   2   42.90    6.20
  -4  -3  -2   41.80    6.30
  -4   3  -2   36.20    5.40
   4   3   2   26.60    4.10
  -4   3  -2   36.20    5.00
  -5  -3  -2  232.98   12.90
  -5  -3  -2  255.17    9.30
   5  -3   2  262.37   13.60
  -5  -3  -2  240.68    8.40
  -5   3  -2  239.48   13.20
   6  -3   2   46.90    8.00
  -6  -3  -2   30.30    6.60
  -6  -3  -2   34.20    4.50
  -6  -3  -2   44.50    4.10
  -6   3  -2   32.00    6.50
  -7  -3  -2   58.49    6.90
   7  -3   2   78.19   11.20
  -7  -3  -2   43.50    7.40
  -7  -3  -2   74.19    5.70
  -7   3  -2   64.79    9.70
  -8  -3  -2    8.80    3.80
  -8  -3  -2   13.40    5.10
  -8   3  -2   13.00    5.00
  -8   3  -2   13.40    4.70
  -8  -4   2   -3.70    3.90
  -8  -4   2   -2.30    3.50
  -8   4   2    6.10    4.20
  -8   4   2    7.60    4.80
  -7  -4   2    2.20    2.70
  -7  -4   2    2.30    2.60
  -7   4   2    8.80    3.80
  -7   4   2    9.00    3.90
   6  -4  -2   41.70    8.00
  -6  -4   2   47.80    8.00
  -6  -4   2   42.60    5.30
  -6  -4   2   39.60    5.90
  -6   4   2   33.50    6.40
  -5  -4   2  190.08    8.30
   5  -4  -2  193.18   12.80
  -5  -4   2  196.58    9.50
  -5  -4   2  195.68   11.20
  -5   4   2  186.68   11.30
  -4  -4   2   64.59    5.70
  -4  -4   2   57.19    4.10
   4  -4  -2   65.09    5.60
   4  -4  -2   59.29    8.30
  -4  -4   2   59.99    5.10
  -4   4   2   51.19    6.60
   4   4  -2   62.19    5.70
  -4   4   2   57.99    5.50
   3  -4  -2  609.44   16.70
  -3  -4   2  608.54   16.90
   3  -4  -2  616.74   19.30
  -3  -4   2  607.14   13.80
  -3   4   2  610.34   16.90
   3   4  -2  617.64   13.80
   3   4  -2  601.84   16.70
  -3   4   2  586.44   18.40
   2  -4  -2  871.21   18.90
   2  -4  -2  885.51   21.70
  -2  -4   2  873.41   19.20
  -2  -4   2  895.01   16.80
  -2   4   2  910.31   19.30
  -2   4   2  880.11   21.30
   2   4  -2  860.91   19.00
   2   4  -2  890.51   16.80
   1  -4  -2    7.40    2.00
  -1  -4   2    5.80    1.50
   1   4  -2    5.40    1.30
  -1   4   2    4.60    1.40
  -1   4   2    7.60    1.90
  -1   4   2    8.70    1.90
   1   4  -2    4.90    1.30
   0  -4   2  469.95   12.20
   0  -4   2  460.55   11.60
   0  -4  -2  471.95   11.00
   0  -4  -2  469.25   11.80
   0   4  -2  462.15   11.90
   0   4   2  459.75   11.50
   0   4   2  465.85   12.00
   0   4  -2  465.65   11.40
   1  -4   2   14.50    2.40
  -1  -4  -2   14.80    1.40
  -1  -4  -2   14.60    2.60
   1  -4   2   17.60    3.00
  -1   4  -2   16.80    2.80
   1   4   2   15.20    1.30
   1   4   2   20.10    3.00
  -1   4  -2   21.50    3.30
   2  -4   2  210.58    8.70
  -2  -4  -2  203.58    8.70
   2  -4   2  225.98    9.60
  -2   4  -2  208.58    9.10
   2   4   2  208.78    8.60
  -2   4  -2  218.28    8.90
  -3  -4  -2 1279.87   19.10
  -3  -4  -2 1270.77   18.60
  -3  -4  -2 1270.97   28.10
   3  -4   2 1294.07   29.60
  -3   4  -2 1260.37   28.40
  -3   4  -2 1264.17   28.30
  -4  -4  -2    2.00    1.70
   4  -4   2    6.70    3.00
  -4  -4  -2    6.60    1.90
  -4  -4  -2    6.10    1.40
  -4   4  -2    3.00    2.10
  -4   4  -2    1.00    2.50
  -5  -4  -2   51.49    3.50
  -5  -4  -2   47.70    3.90
  -5  -4  -2   36.30    5.90
   5  -4   2   49.90    7.90
  -5   4  -2   46.30    7.40
  -6  -4  -2   18.80    5.40
  -6  -4  -2    9.70    2.20
  -6  -4  -2   13.50    3.20
   6  -4   2   16.60    5.30
  -6   4  -2   17.10    5.00
  -7  -4  -2   42.40    5.00
   7  -4   2   41.80    7.80
  -7  -4  -2   45.20    7.40
  -7  -4  -2   39.10    5.10
  -7   4  -2   41.70    8.00
  -8  -4  -2    6.40    4.30
   8  -4   2    5.50    5.90
  -8  -4  -2   14.20    3.60
  -8   4  -2   11.30    5.90
  -8  -5   2   72.29   10.90
  -8   5   2   75.59   11.90
  -8   5   2   75.39   11.40
  -7  -5   2   24.40    5.90
  -7  -5   2   30.50    4.30
  -7  -5   2   37.20    6.80
  -7   5   2   19.80    4.70
  -7   5   2   32.40    6.60
   6  -5  -2   31.10    7.00
  -6  -5   2   23.70    3.90
  -6  -5   2   26.30    6.10
  -6   5   2   25.60    5.90
  -5  -5   2    9.70    2.10
  -5  -5   2    9.60    3.60
   5  -5  -2   10.10    4.40
  -5  -5   2    8.60    3.10
  -5   5   2    7.50    3.50
  -4  -5   2  285.17   10.60
  -4  -5   2  283.47    9.40
   4  -5  -2  281.97   12.30
   4  -5  -2  284.57   14.40
  -4  -5   2  308.37   13.10
   4   5  -2  271.67   12.20
  -4   5   2  319.07   13.30
   4   5  -2  278.27    9.30
   3  -5  -2  132.09    7.50
   3  -5  -2  124.39    8.70
  -3  -5   2  134.49    7.70
  -3  -5   2  131.99    5.70
   3   5  -2  131.19    7.60
  -3   5   2  139.49    7.80
   3   5  -2  132.49    5.70
  -3   5   2  137.09    8.80
  -2  -5   2  863.01   17.10
   2  -5  -2  877.31   22.40
   2  -5  -2  859.01   19.50
  -2  -5   2  883.01   20.20
   2   5  -2  855.61   16.80
  -2   5   2  875.31   21.90
   2   5  -2  857.21   19.90
  -2   5   2  845.52   19.60
  -1  -5   2  104.59    5.70
   1  -5  -2   91.89    5.80
  -1  -5   2   87.99    4.60
  -1   5   2   94.09    5.50
  -1   5   2   89.89    5.50
   1   5  -2   94.59    4.60
   1   5  -2   95.69    5.40
  -1   5   2   83.59    4.90
   0  -5   2   98.19    5.80
   0  -5   2  101.89    5.40
   0  -5  -2  111.59    6.10
   0  -5  -2  111.89    5.80
   0   5   2   88.69    5.10
   0   5  -2   94.59    5.10
   0   5   2  100.69    5.00
   0   5  -2   96.89    5.60
   1  -5   2  104.89    5.60
  -1  -5  -2  105.39    4.00
  -1  -5  -2  110.29    6.10
   1  -5   2  100.99    6.10
   1   5   2  108.89    3.90
  -1   5  -2  114.79    6.60
  -1   5  -2  106.59    5.90
  -1   5  -2  100.59    5.90
   1   5   2  101.49    5.70
   2  -5   2  640.94   18.50
  -2  -5  -2  661.23   17.50
   2  -5   2  674.33   17.40
  -2  -5  -2  660.03    9.70
  -2   5  -2  658.73   18.20
   2   5   2  658.23   17.40
   2   5   2  646.04    9.50
  -2   5  -2  658.13   17.40
   3  -5   2   53.49    5.30
   3  -5   2   48.90    6.40
  -3  -5  -2   48.60    5.10
   3   5   2   53.69    5.30
  -3   5  -2   58.79    5.70
  -3   5  -2   51.89    5.30
  -4  -5  -2  401.36   15.90
  -4  -5  -2  384.76    7.70
  -4  -5  -2  381.36    8.20
   4  -5   2  410.06   17.00
  -4   5  -2  372.76   15.30
  -5  -5  -2    0.20    1.10
  -5  -5  -2   -0.40    2.30
  -5  -5  -2    3.00    1.40
   5  -5   2    1.60    2.70
  -5   5  -2   -0.10    2.50
   6  -5   2   84.79   11.50
  -6  -5  -2   62.69    8.50
  -6  -5  -2   70.69    4.90
  -6  -5  -2   64.79    4.10
  -6   5  -2   74.49   10.20
  -7  -5  -2   -1.00    3.20
   7  -5   2    4.10    4.00
  -7  -5  -2    5.80    3.50
  -7  -5  -2    4.00    2.30
  -7   5  -2    1.70    3.30
   8  -5   2   31.50    7.70
  -8  -5  -2   21.60    4.00
  -8  -5  -2   25.10    7.30
  -8   5  -2   26.00    7.10
  -8  -6   2   37.90    8.10
  -8  -6   2   22.30    5.10
  -8   6   2   41.70    8.10
  -8   6   2   27.50    7.10
  -7  -6   2   40.20    7.20
  -7  -6   2   30.90    6.30
   7  -6  -2   37.70    9.00
  -7  -6   2   30.60    4.60
  -7   6   2   35.90    7.00
  -6  -6   2   99.49    6.10
   6  -6  -2  100.59   10.60
  -6  -6   2   78.39    7.10
  -6  -6   2   96.39    9.40
  -6   6   2   94.29    9.30
   5  -6  -2  142.19   11.40
  -5  -6   2  138.29   10.10
  -5  -6   2  120.99    7.80
  -5  -6   2  127.69    6.60
  -5   6   2  145.39   10.30
  -4  -6   2    8.30    2.30
   4  -6  -2    3.40    3.10
  -4  -6   2    9.30    3.10
  -4   6   2   11.00    3.40
   4   6  -2    7.60    2.00
  -3  -6   2   10.70    2.00
  -3  -6   2    6.90    2.60
   3  -6  -2    6.70    2.80
   3  -6  -2    4.80    2.40
   3   6  -2    2.70    2.20
  -3   6   2    4.00    2.30
  -3   6   2    9.90    2.80
   3   6  -2    6.00    1.80
  -2  -6   2  276.47   10.80
   2  -6  -2  276.97   10.30
   2  -6  -2  262.37   11.90
  -2  -6   2  257.17    8.50
  -2   6   2  257.47   11.10
   2   6  -2  265.27    8.40
   2   6  -2  259.47   10.40
  -2   6   2  271.67   11.60
  -2   6   2  250.37   10.10
  -1  -6   2   32.00    4.20
  -1  -6   2   28.60    3.00
   1  -6  -2   24.30    3.70
  -1   6   2   20.30    3.10
   1   6  -2   32.60    3.70
  -1   6   2   42.30    5.30
  -1   6   2   25.70    3.80
   1   6  -2   32.70    4.30
   0  -6   2  581.64   16.20
   0  -6   2  590.94   15.50
   0  -6  -2  583.04   16.00
   0  -6  -2  581.04   14.70
   0   6  -2  601.44   15.10
   0   6  -2  583.64   16.00
   0   6   2  597.54   15.70
   0   6   2  578.64   14.20
   1  -6   2   20.30    3.40
  -1  -6  -2   21.70    2.20
  -1  -6  -2   29.00    4.20
  -1   6  -2   17.80    3.50
   1   6   2   24.20    3.50
   1   6   2   26.70    3.20
  -1   6  -2   26.00    4.00
  -1   6  -2   16.40    3.00
   2  -6   2   16.30    3.80
  -2  -6  -2   15.90    3.30
  -2  -6  -2   20.10    1.50
   2  -6   2   16.70    3.50
  -2   6  -2   15.20    3.10
   2   6   2   17.10    3.40
  -2   6  -2   21.50    3.90
   2   6   2   20.30    1.30
   3  -6   2   29.30    5.30
   3  -6   2   36.30    5.20
  -3  -6  -2   41.30    6.00
  -3   6  -2   26.90    4.50
   3   6   2   21.70    3.90
  -3   6  -2   31.50    5.90
   4  -6   2  456.65   18.80
  -4  -6  -2  461.75   19.20
  -4   6  -2  443.36   19.70
  -5  -6  -2   16.70    1.90
  -5  -6  -2   17.50    1.70
  -5  -6  -2   14.90    3.90
   5  -6   2   19.70    6.00
  -5   6  -2   19.20    4.90
   6  -6   2   24.70    6.20
  -6  -6  -2   30.30    6.50
  -6  -6  -2   24.20    2.40
  -6   6  -2   13.40    5.00
   7  -6   2    7.30    4.70
  -7  -6  -2   10.10    2.80
  -7  -6  -2    6.70    4.00
  -7   6  -2   12.00    5.30
   8  -6   2   23.80    8.00
  -8  -6  -2   18.80    6.30
  -8   6  -2   22.80    7.50
  -8  -7   2    0.80    3.90
  -8  -7   2    8.70    4.80
  -8   7   2    2.80    4.50
  -8   7   2    4.50    5.40
  -7  -7   2   78.79    8.50
  -7  -7   2   87.29   11.00
   7  -7  -2  108.59   14.90
  -7  -7   2   82.49    6.20
  -7   7   2   81.39   11.30
  -6  -7   2   55.99    4.70
  -6  -7   2   65.09    9.60
  -6  -7   2   51.69    6.30
   6  -7  -2   62.29   10.70
  -6   7   2   63.59    9.40
  -5  -7   2   40.90    7.10
   5  -7  -2   47.00    8.80
  -5  -7   2   40.80    4.00
  -5   7   2   41.30    6.50
   4  -7  -2  146.79   11.10
  -4  -7   2  151.48    6.80
  -4   7   2  156.18   11.00
   4   7  -2  158.98    6.90
   3  -7  -2  239.08   13.00
  -3  -7   2  248.78    8.70
  -3  -7   2  267.87   12.00
   3  -7  -2  248.28   11.30
  -3   7   2  251.27   11.50
   3   7  -2  249.38    8.40
   3   7  -2  250.57   11.70
  -3   7   2  261.07   14.80
  -2  -7   2  127.59    6.20
   2  -7  -2  139.39    8.90
  -2  -7   2  136.89    8.10
   2   7  -2  123.19    8.60
  -2   7   2  130.49    9.60
  -2   7   2  129.59    8.20
   2   7  -2  125.69    5.90
  -2   7   2  125.39    7.50
  -1  -7   2  432.16   12.80
   1  -7  -2  445.16   14.80
  -1  -7   2  456.25   14.80
  -1   7   2  442.96   14.00
  -1   7   2  418.26   14.30
   1   7  -2  436.66   14.20
   1   7  -2  456.45   12.40
  -1   7   2  446.16   14.40
   0  -7  -2   49.80    4.20
   0  -7   2   48.60    4.80
   0  -7   2   54.99    4.80
   0  -7  -2   46.50    4.80
   0   7   2   44.50    5.50
   0   7  -2   42.80    4.10
   0   7   2   46.20    4.00
   0   7  -2   49.90    4.80
  -1  -7  -2   65.49    4.20
  -1  -7  -2   63.69    5.40
   1  -7   2   54.29    5.20
  -1   7  -2   71.29    6.00
  -1   7  -2   68.39    5.60
   1   7   2   62.89    5.30
  -1   7  -2   67.29    5.30
   1   7   2   67.99    3.90
   2  -7   2 1067.09   25.70
   2  -7   2 1152.88   28.30
  -2  -7  -2 1104.09   18.70
  -2  -7  -2 1109.19   26.50
  -2   7  -2 1082.39   26.90
  -2   7  -2 1101.99   26.20
   2   7   2 1085.99   26.00
   2   7   2 1126.79   17.90
  -3  -7  -2   76.39    6.70
   3  -7   2   63.29    8.10
  -3   7  -2   77.09    6.90
   4  -7   2    5.00    3.00
  -4  -7  -2   12.40    3.60
  -4   7  -2    4.60    2.50
  -5  -7  -2  187.38   12.50
   5  -7   2  206.68   13.90
  -5   7  -2  183.98   12.30
  -6  -7  -2    4.90    4.00
   6  -7   2    4.70    3.40
  -6   7  -2    4.70    3.30
   7  -7   2    4.30    4.60
  -7  -7  -2    0.80    3.60
  -7   7  -2   -6.80    3.20
   8  -7   2   67.79   10.90
  -8  -7  -2   59.89   10.20
  -8   7  -2   53.89    9.30
  -8  -8   2    5.20    3.70
  -8  -8   2   -1.40    5.30
  -8   8   2    9.80    5.50
  -8   8   2    8.80    5.50
  -7  -8   2    8.50    3.30
   7  -8  -2    5.80    6.80
  -7  -8   2    5.10    4.90
  -7  -8   2    7.60    6.20
  -7   8   2   13.10    5.00
  -6  -8   2   31.50    4.80
   6  -8  -2   43.10    8.00
  -6  -8   2   28.40    4.30
  -6  -8   2   31.60    6.70
  -6   8   2   22.70    5.30
  -5  -8   2  199.68    8.00
  -5  -8   2  202.58   12.80
  -5  -8   2  171.58    8.50
   5  -8  -2  169.98   13.40
  -5   8   2  203.78   12.80
   4  -8  -2   -0.80    2.20
  -4  -8   2   -0.90    1.90
  -4  -8   2    2.60    1.40
   4   8  -2    0.30    1.30
  -4   8   2    1.80    2.40
   3  -8  -2  172.58   11.30
  -3  -8   2  182.58   10.30
  -3  -8   2  164.38    7.20
  -3   8   2  184.48   10.20
   3   8  -2  171.08    7.20
  -2  -8   2   57.69    4.60
   2  -8  -2   50.59    6.50
  -2  -8   2   49.90    6.30
  -2   8   2   49.70    5.20
   2   8  -2   51.99    4.00
  -2   8   2   60.99    7.90
  -2   8   2   61.69    6.00
   2   8  -2   51.59    5.30
  -1  -8   2   16.40    3.30
  -1  -8   2   15.90    3.60
   1  -8  -2   15.80    3.80
  -1   8   2   15.80    3.50
   1   8  -2   17.70    4.20
  -1   8   2   22.30    4.20
   1   8  -2   21.80    3.60
   0  -8  -2   73.69    5.40
   0  -8   2   66.49    6.10
   0  -8   2   75.09    5.90
   0  -8  -2   79.89    6.60
   0   8  -2   65.39    5.30
   0   8   2   73.89    5.50
   0   8   2   74.99    7.00
  -1  -8  -2  405.96   11.80
  -1  -8  -2  384.46   14.40
   1  -8   2  401.96   15.00
  -1   8  -2  378.56   13.80
   1   8   2  368.26   10.70
   1   8   2  368.86   13.80
  -1   8  -2  403.86   15.00
  -2  -8  -2    3.40    1.20
  -2  -8  -2    5.10    2.80
   2  -8   2    4.50    2.60
  -2   8  -2    6.50    2.90
  -2   8  -2    6.40    3.30
   2   8   2    6.50    2.60
  -2   8  -2    5.20    2.30
  -3  -8  -2  155.88   10.20
  -3  -8  -2  153.28    3.90
   3  -8   2  165.18   11.10
   3   8   2  153.58    3.70
  -3   8  -2  143.19    9.60
   4  -8   2   13.90    4.50
  -4  -8  -2    8.60    3.30
  -4   8  -2   11.60    3.70
  -5  -8  -2   27.90    6.00
   5  -8   2   12.90    4.40
  -5   8  -2   24.50    5.40
  -6  -8  -2   -4.60    2.90
   6  -8   2    0.10    3.70
  -6   8  -2   -0.30    2.80
  -7  -8  -2   69.39    9.70
   7  -8   2   77.79   12.40
  -7   8  -2   57.49    8.40
  -8  -8  -2    6.50    5.80
   8  -8   2    5.30    5.40
  -8   8  -2    3.00    5.20
  -8  -9   2   -5.50    4.70
   8  -9  -2    3.90    5.90
  -8   9   2   -2.70    4.40
  -8   9   2    1.30    5.30
   7  -9  -2   32.30    8.70
  -7  -9   2   43.70    8.20
  -7  -9   2   42.50    6.50
  -7  -9   2   46.90    5.00
  -7   9   2   41.10    7.90
  -6  -9   2    0.10    3.30
  -6  -9   2    2.00    3.40
  -6  -9   2   -0.10    2.30
   6  -9  -2   -3.30    3.10
  -6   9   2    4.50    3.90
  -5  -9   2  141.89    7.90
  -5  -9   2  162.48   11.50
   5  -9  -2  161.58   13.30
  -5  -9   2  168.08    7.50
  -5   9   2  140.49   10.90
   4  -9  -2   24.80    6.10
  -4  -9   2   27.40    4.00
  -4  -9   2   27.60    5.30
  -4   9   2   25.20    5.50
   4   9  -2   25.20    3.40
   3  -9  -2    0.90    2.20
  -3  -9   2    3.70    1.90
  -3   9   2    4.20    3.10
   3   9  -2    2.50    1.60
  -2  -9   2   13.70    3.10
   2  -9  -2   14.40    4.10
  -2  -9   2   11.70    3.00
   2   9  -2   15.30    3.00
  -2   9   2    8.10    3.20
  -2   9   2   16.50    4.20
  -2   9   2   20.30    5.10
  -1  -9   2  550.34   18.70
   1  -9  -2  556.54   18.80
  -1  -9   2  591.04   17.00
   1   9  -2  568.04   18.50
  -1   9   2  579.84   18.20
  -1   9   2  580.64   18.40
   1   9  -2  583.84   16.20
  -1   9   2  593.44   19.10
   0  -9  -2  129.09    7.60
   0  -9  -2  116.09    8.30
   0  -9   2  113.19    8.50
   0  -9   2  128.69    8.20
   0   9   2  126.19    8.50
   0   9  -2  124.09    7.50
   0   9  -2  131.49    8.60
   0   9   2  135.49    7.60
   1  -9   2   55.89    5.90
  -1  -9  -2   57.69    6.00
  -1  -9  -2   49.90    4.40
  -1   9  -2   53.49    5.60
   1   9   2   55.19    5.80
  -1   9  -2   60.99    7.40
  -1   9  -2   61.09    7.40
   1   9   2   55.69    4.40
  -2  -9  -2    0.40    1.40
  -2  -9  -2    1.40    1.20
   2  -9   2   -0.40    1.90
   2   9   2    0.20    1.10
  -2   9  -2    1.30    1.80
   3  -9   2  212.28   13.20
  -3  -9  -2  212.18   12.20
  -3  -9  -2  192.38    5.50
  -3   9  -2  202.48   11.60
   3   9   2  203.78    5.20
   4  -9   2   18.70    5.30
  -4  -9  -2   15.60    4.30
  -4   9  -2   15.10    5.00
   5  -9   2  228.18   15.30
  -5  -9  -2  211.48   14.10
  -5   9  -2  211.88   13.90
   6  -9   2   31.40    7.30
  -6  -9  -2   33.80    7.80
  -6   9  -2   22.80    5.60
   7  -9   2   33.90    8.70
  -7  -9  -2   21.60    6.40
  -7   9  -2   28.40    7.00
  -7 -10   2   -1.70    3.90
   7 -10  -2  -10.90    3.70
  -7 -10   2    3.30    2.90
  -7  10   2    1.10    4.00
   6 -10  -2   12.50    5.40
  -6 -10   2   16.20    5.50
  -6 -10   2   16.40    4.20
  -6 -10   2   15.70    3.50
  -6  10   2    7.00    4.50
  -5 -10   2   70.79    9.50
   5 -10  -2  103.49   13.80
  -5 -10   2   85.39    5.50
   5  10  -2   72.49    5.10
  -5  10   2   75.89   10.10
  -4 -10   2    8.60    2.60
  -4 -10   2    4.20    3.10
   4 -10  -2    2.50    3.50
  -4  10   2    5.80    3.30
   4  10  -2    4.70    2.20
  -3 -10   2  212.28   12.30
  -3 -10   2  208.28    9.10
   3 -10  -2  226.78   14.20
  -3  10   2  216.28   12.20
   3  10  -2  217.08    8.80
   2 -10  -2   26.00    5.30
  -2 -10   2   37.60    8.30
  -2 -10   2   38.70    5.40
   2  10  -2   31.90    4.50
  -2  10   2   27.30    5.20
  -1 -10   2  104.89    8.40
   1 -10  -2  119.89    8.60
  -1 -10   2  106.69    7.20
  -1  10   2  100.69    7.80
  -1  10   2   98.49    7.60
   1  10  -2  102.49    6.80
   0 -10   2  270.57   13.60
   0 -10  -2  276.17   12.00
   0 -10   2  266.87   12.40
   0 -10  -2  264.67   13.20
   0  10   2  262.97   11.20
   0  10  -2  282.87   12.00
  -1 -10  -2   69.49    7.00
   1 -10   2   64.59    6.80
  -1 -10  -2   60.09    5.20
  -1  10  -2   70.69    6.50
   1  10   2   52.99    4.60
  -2 -10  -2    2.40    1.60
  -2 -10  -2    0.50    2.10
   2 -10   2    0.70    2.20
  -2  10  -2    2.10    2.20
   2  10   2    3.00    1.70
   3 -10   2  145.89   11.70
  -3 -10  -2  156.18    5.50
  -3 -10  -2  159.78   11.00
  -3  10  -2  154.58   10.60
   3  10   2  158.98    5.30
  -4 -10  -2   44.10    7.60
   4 -10   2   62.69   10.20
  -4  10  -2   66.49    9.70
  -5 -10  -2   32.40    7.40
   5 -10   2   24.60    6.80
  -5  10  -2   30.40    6.20
  -6 -10  -2  130.09   12.70
   6 -10   2  100.69   14.00
  -6  10  -2   98.89   12.40
   7 -10   2    9.70    5.90
  -7 -10  -2   16.30    5.80
  -7  10  -2   10.50    5.30
  -7 -11   2   44.20    9.20
   7 -11  -2   29.40    8.20
  -7  11   2   36.00    8.00
  -6 -11   2    2.90    2.70
   6 -11  -2    4.60    4.60
  -6 -11   2    2.10    4.00
  -6 -11   2   -4.10    3.70
  -6  11   2    2.60    4.10
  -5 -11   2   13.70    4.50
   5 -11  -2    1.30    3.50
  -5 -11   2    7.50    2.40
  -5  11   2    1.00    3.20
   5  11  -2    3.00    2.40
   4 -11  -2  231.68   15.80
  -4 -11   2  227.98    9.40
  -4 -11   2  233.78   14.10
   4  11  -2  226.78    9.20
  -4  11   2  248.78   14.20
  -3 -11   2   16.90    3.70
   3 -11  -2   12.40    4.70
  -3 -11   2   16.70    4.70
   3  11  -2    8.60    2.80
  -3  11   2    8.90    3.50
   2 -11  -2   81.19    8.30
  -2 -11   2   83.79    7.90
  -2 -11   2   70.99    6.10
  -2  11   2   56.19    7.40
   2  11  -2   74.49    6.10
  -1 -11   2   50.49    5.30
   1 -11  -2   43.80    6.60
  -1 -11   2   46.90    7.60
  -1  11   2   53.89    7.90
   1  11  -2   46.80    5.80
   0 -11   2  153.98   10.90
   0 -11  -2  143.59   11.90
   0 -11   2  160.68   10.10
   0 -11  -2  148.99    9.20
   0  11  -2  148.89    9.00
   0  11   2  152.38    8.80
  -1 -11  -2    1.00    2.10
   1 -11   2   -0.60    1.70
  -1 -11  -2    2.80    1.70
   1  11   2    1.40    1.80
  -1  11  -2    0.30    2.20
  -2 -11  -2  171.88   11.50
   2 -11   2  142.19   10.90
  -2 -11  -2  177.58    7.90
   2  11   2  156.58    6.90
  -2  11  -2  177.58   11.20
  -3 -11  -2   56.39    8.30
   3 -11   2   66.79   10.30
   3  11   2   53.99    3.30
  -3  11  -2   51.69    8.30
   4 -11   2  252.67   16.40
  -4 -11  -2  233.58   14.50
  -4  11  -2  249.58   14.90
   5 -11   2    4.80    4.60
  -5 -11  -2    6.20    3.30
  -5  11  -2    0.80    3.00
  -6 -11  -2    6.60    4.30
   6 -11   2   -2.90    3.50
  -6  11  -2   -2.40    3.50
   7 -11   2   -2.50    4.60
  -7 -11  -2    4.00    5.20
  -7  11  -2    7.90    4.50
   7 -12  -2    5.20    6.50
  -7 -12   2   -3.60    5.20
  -7  12   2    4.90    4.90
   6 -12  -2   94.09   14.90
  -6 -12   2   78.59    5.50
  -6 -12   2   79.79    7.20
  -6 -12   2   80.49   12.10
  -6  12   2   89.89   12.30
  -5 -12   2    7.00    2.90
   5 -12  -2    7.70    4.20
  -5 -12   2   -0.70    3.40
  -5  12   2    7.10    4.00
   5  12  -2    7.50    3.00
   4 -12  -2    2.60    3.60
  -4 -12   2    2.20    3.60
  -4 -12   2    6.30    2.70
   4  12  -2   -0.80    2.50
  -4  12   2    7.00    3.80
  -3 -12   2    4.70    3.10
   3 -12  -2   10.40    4.80
  -3 -12   2    8.50    3.40
   3  12  -2    7.30    3.20
  -3  12   2   11.90    4.20
   2 -12  -2   23.80    5.60
  -2 -12   2   28.10    4.80
  -2 -12   2   21.50    5.20
   2  12  -2   20.00    4.00
  -2  12   2   26.20    6.00
  -1 -12   2    1.10    2.00
  -1 -12   2   -1.70    2.20
   1 -12  -2    1.30    2.30
   1  12  -2    0.40    2.20
  -1  12   2    1.70    2.00
   0 -12   2  428.66   19.20
   0 -12   2  427.76   17.40
   0 -12  -2  406.46   18.40
   0 -12  -2  433.96   16.80
   0  12   2  394.26   15.30
  -1 -12  -2   38.80    5.80
  -1 -12  -2   29.90    6.10
   1 -12   2   51.39    7.50
  -1  12  -2   32.10    5.30
   1  12   2   48.80    5.90
  -2 -12  -2   18.30    5.00
  -2 -12  -2   26.00    4.30
   2 -12   2   21.20    5.50
   2  12   2   19.20    3.30
  -2  12  -2   20.40    5.10
  -3 -12  -2    5.00    1.80
  -3 -12  -2    2.80    2.90
   3 -12   2   -0.40    3.20
  -3  12  -2    3.10    3.30
   3  12   2    3.80    1.90
  -4 -12  -2   87.59   11.30
   4 -12   2   74.89   11.30
  -4  12  -2   91.49   11.60
   5 -12   2    1.60    3.90
  -5 -12  -2   18.50    5.20
  -5  12  -2   -3.00    2.80
  -6 -12  -2    6.70    4.80
   6 -12   2   18.50    6.40
  -6  12  -2   17.20    5.30
  -7 -12  -2   15.00    7.70
   7 -12   2   16.80    7.70
  -7  12  -2   13.60    6.10
   6 -13  -2    9.20    4.90
  -6 -13   2    5.70    4.30
  -6 -13   2    2.90    2.70
  -6  13   2    3.80    3.70
   5 -13  -2   15.10    8.50
  -5 -13   2   22.40    3.70
  -5 -13   2   16.40    6.00
  -5  13   2   22.30    6.00
   5  13  -2   23.50    3.70
  -4 -13   2  202.48   14.00
  -4 -13   2  170.28    9.00
   4 -13  -2  186.78   14.80
   4  13  -2  169.58    8.70
  -4  13   2  174.08   13.00
   3 -13  -2   -3.00    3.00
  -3 -13   2    1.60    2.20
  -3 -13   2   -1.60    2.40
  -3  13   2    2.00    2.50
   3  13  -2   -1.80    2.50
   2 -13  -2    1.70    2.90
  -2 -13   2    4.40    2.70
  -2 -13   2    1.50    2.80
   2  13  -2    1.20    2.40
  -2  13   2    3.10    3.30
  -1 -13   2    2.10    2.40
  -1 -13   2    2.40    3.00
   1 -13  -2    5.90    3.00
  -1  13   2    4.80    3.30
   0 -13  -2   63.49    9.60
   0 -13   2   57.69    9.10
   0 -13   2   69.69    8.90
   0 -13  -2   67.59    7.20
   0  13  -2   64.09    8.40
  -1 -13  -2   60.09    7.50
  -1 -13  -2   72.29   10.10
   1 -13   2   47.70    7.90
   1  13   2   73.69    6.40
  -1  13  -2   57.29    7.90
  -2 -13  -2   51.29    8.80
   2 -13   2   45.90    7.90
  -2 -13  -2   59.49    5.40
  -2  13  -2   42.70    6.40
   2  13   2   49.70    5.00
  -3 -13  -2   27.10    3.80
  -3 -13  -2   21.50    5.60
   3 -13   2   23.50    5.80
   3  13   2   24.80    3.20
  -3  13  -2   27.50    6.40
  -4 -13  -2   47.30    8.60
   4 -13   2   49.90   10.10
  -4  13  -2   48.70    8.90
   5 -13   2   10.30    5.90
  -5 -13  -2    7.50    4.50
  -5  13  -2    1.20    3.70
   6 -13   2    9.20    6.00
  -6 -13  -2   22.50    7.10
  -6  13  -2    4.60    4.20
  -6 -14   2    3.60    5.20
   6 -14  -2   -4.90    5.40
  -6  14   2    1.20    4.30
  -5 -14   2   64.19    6.00
   5 -14  -2   56.29    9.90
  -5 -14   2   55.19    9.40
  -5  14   2   61.69    9.70
  -4 -14   2   22.70    6.60
  -4 -14   2   14.50    3.90
   4 -14  -2    7.20    4.60
  -4  14   2   18.20    5.50
   4  14  -2   27.50    4.40
  -3 -14   2   37.00    7.30
   3 -14  -2   29.40    7.30
  -3 -14   2   35.90    5.50
   3  14  -2   35.20    5.60
  -3  14   2   37.80    7.80
  -2 -14   2    1.00    2.60
  -2 -14   2   -0.30    2.60
   2 -14  -2    1.30    3.60
  -2  14   2    1.90    2.60
  -1 -14   2   12.40    3.80
   1 -14  -2    9.50    4.10
  -1 -14   2   16.30    5.30
  -1  14   2   10.10    4.00
   0 -14  -2   52.79    9.50
   0 -14  -2   43.50    7.20
   0 -14   2   50.09    7.80
   0 -14   2   50.89    9.30
   0  14  -2   62.39    9.10
  -1 -14  -2   70.29    8.40
   1 -14   2   76.89   10.90
  -1 -14  -2   59.59    8.80
  -1  14  -2   50.49    7.60
   1  14   2   74.29    6.80
  -2 -14  -2    1.60    2.10
   2 -14   2    1.80    3.20
  -2 -14  -2   -2.80    2.50
  -2  14  -2   -1.70    2.10
   3 -14   2  187.38   14.40
  -3 -14  -2  183.88    8.30
  -3 -14  -2  192.58   14.40
   3  14   2  180.28    7.80
  -3  14  -2  193.18   13.80
   4 -14   2   11.90    5.60
  -4 -14  -2   22.90    6.90
  -4  14  -2   14.10    5.30
  -5 -14  -2   15.80    5.70
   5 -14   2    3.10    5.70
  -5  14  -2   15.80    5.80
  -6 -14  -2   -2.70    4.90
   6 -14   2    2.60    6.00
  -6  14  -2   -0.20    4.30
  -5 -15   2   12.80    3.90
   5 -15  -2   11.40    5.50
  -5 -15   2   14.00    6.40
  -5  15   2   18.50    6.10
   4 -15  -2   15.80    6.10
  -4 -15   2   23.00    6.30
  -4 -15   2   15.30    4.50
  -4  15   2   21.10    8.50
   4  15  -2    8.40    4.00
  -3 -15   2    4.20    2.90
   3 -15  -2   -3.50    3.00
  -3 -15   2    5.10    4.40
  -3  15   2    3.50    4.20
   2 -15  -2   88.09   12.30
  -2 -15   2   81.49   11.20
  -2 -15   2   90.29    8.20
  -2  15   2   65.19    8.80
  -1 -15   2   28.40    6.80
  -1 -15   2   35.30    6.70
   1 -15  -2   36.50    7.20
  -1  15   2   46.90    8.00
   0 -15   2   87.79    9.40
   0 -15  -2   97.29   12.00
   0 -15  -2  104.29    9.60
   0  15  -2  102.89   10.40
   1 -15   2   32.10    6.70
  -1 -15  -2   32.00    7.70
  -1 -15  -2   37.50    6.60
  -1  15  -2   38.90    8.00
  -2 -15  -2   10.10    3.70
  -2 -15  -2   15.10    5.20
   2 -15   2   23.50    7.00
   2  15   2   25.40    4.50
  -2  15  -2   19.90    6.00
   3 -15   2   39.50    8.50
  -3 -15  -2   48.80    9.80
  -3 -15  -2   29.30    4.70
   3  15   2   47.50    4.90
  -3  15  -2   33.70    7.30
   4 -15   2   17.10    7.10
  -4 -15  -2   36.20    8.60
  -4  15  -2   27.20    7.00
  -5 -15  -2   58.29   10.00
   5 -15   2   53.09   10.70
  -5  15  -2   57.29   10.00
  -5 -16   2   41.90    5.50
  -5 -16   2   40.70    9.50
   5 -16  -2   37.60    9.70
  -5  16   2   26.10    7.40
  -4 -16   2    0.80    5.00
  -4 -16   2   -3.20    3.10
   4 -16  -2   -4.00    4.40
  -4  16   2   -0.60    3.20
  -3 -16   2   19.70    6.40
   3 -16  -2   17.60    5.40
  -2 -16   2   32.80    5.90
  -2 -16   2   12.90    4.90
   2 -16  -2   36.20    8.20
  -2  16   2   10.70    5.00
  -1 -16   2   -1.20    2.90
   1 -16  -2    0.40    3.70
  -1 -16   2    1.90    3.60
  -1  16   2   -1.90    2.50
   0 -16  -2    0.90    2.30
   0 -16  -2    1.60    3.30
   0 -16   2    2.90    3.80
   0  16  -2    2.00    3.60
  -1 -16  -2   96.99    8.40
  -1 -16  -2   83.19   11.60
   1 -16   2   81.79   10.60
  -1  16  -2   73.79    9.90
  -2 -16  -2    6.30    3.10
  -2 -16  -2    0.70    3.20
   2 -16   2    5.90    4.40
  -2  16  -2   -2.90    2.80
   3 -16   2   25.20   12.70
  -3 -16  -2    4.70    3.30
  -3 -16  -2   16.60    6.20
  -3  16  -2   17.60    5.90
   3  16   2   14.30    3.80
   4 -16   2   89.79   12.90
  -4 -16  -2   76.99   12.60
  -4  16  -2   74.39   11.20
  -5 -16  -2    6.10    5.50
   5 -16   2    4.30    5.60
  -5  16  -2   -3.50    4.40
   4 -17  -2   23.10    7.40
  -4 -17   2   42.20    6.10
  -4 -17   2   35.40    8.30
  -4  17   2   49.70   10.10
  -3 -17   2   -0.10    4.00
   3 -17  -2    4.90    4.50
  -3 -17   2    3.80    3.90
  -3  17   2    0.10    3.40
   2 -17  -2   50.39   10.00
  -2 -17   2   43.80    7.60
  -2 -17   2   54.29   10.50
  -2  17   2   40.50    8.10
  -1 -17   2   11.00    6.50
  -1 -17   2    5.10    4.20
   1 -17  -2    7.30    5.30
   0 -17   2    6.70    4.00
   0 -17  -2    3.50    3.90
  -1 -17  -2    2.90    3.40
   1 -17   2    0.20    3.80
  -1 -17  -2    3.10    4.70
  -1  17  -2    6.20    4.30
  -2 -17  -2   85.59   12.10
   2 -17   2   95.79   12.60
  -2 -17  -2  103.29    9.10
  -2  17  -2  114.29   11.80
  -3 -17  -2    3.40    4.20
  -3 -17  -2    3.60    3.30
   3 -17   2    0.00    4.60
  -3  17  -2   -1.70    3.30
  -4 -17  -2   44.60    9.40
   4 -17   2   40.70    9.40
  -4  17  -2   27.80    7.10
   3 -18  -2    5.20    5.00
  -3 -18   2   16.90    7.50
  -3 -18   2   13.00    4.70
  -3  18   2    6.50    4.50
   2 -18  -2   31.30   10.60
  -2 -18   2   16.20    5.30
  -2 -18   2   26.40    8.20
  -2  18   2   27.50    7.30
  -1 -18   2    3.90    3.90
  -1 -18   2    8.30    4.90
   1 -18  -2   12.70    6.00
   1  18  -2    6.90    4.40
  -1  18   2    5.00    4.00
   0 -18  -2   27.80    6.40
   0 -18   2   19.40    6.70
   0  18  -2   22.70    6.60
   0  18   2   33.90    8.60
   1 -18   2   21.00    6.20
  -1 -18  -2   17.00    6.40
  -1 -18  -2    9.70    5.20
  -1  18  -2   31.60    7.10
  -2 -18  -2    6.60    5.00
  -2 -18  -2    1.10    3.90
   2 -18   2   -2.30    4.10
  -2  18  -2    6.80    3.80
   3 -18   2   15.20    6.00
  -3 -18  -2   16.50    4.90
  -3 -18  -2   28.70    7.70
  -3  18  -2   18.00    7.10
  -2 -19   2    5.10    4.30
  -2 -19   2    4.80    5.90
   2 -19  -2    9.90    6.00
  -2  19   2   11.60    5.90
   1 -19  -2   69.19   11.60
  -1 -19   2   76.39   11.50
   1  19  -2   60.49   11.00
  -1  19   2   74.19   11.90
   0 -19  -2    3.60    4.30
   0 -19   2   -2.00    4.00
   0  19   2    1.80    4.10
   0  19  -2   -0.30    3.70
  -1 -19  -2    8.80    5.30
  -1 -19  -2    4.60    4.30
   1 -19   2   11.00    6.40
  -1  19  -2    4.30    4.60
  -2 -19  -2   16.00    7.40
  -2 -19  -2    6.30    4.50
   2 -19   2   -0.30    4.00
  -2  19  -2    4.30    5.80
  -8   0   3    2.40    3.60
  -8   0   3   -4.70    3.40
  -7   0   3   47.30    7.80
  -7   0   3   59.89    8.10
  -6   0   3    1.10    3.00
  -5   0   3  551.84   18.70
  -5   0   3  571.74   17.70
  -5   0   3  564.44   19.30
  -4   0   3    1.00    1.20
  -4   0   3    0.80    1.40
  -4   0   3    1.00    1.70
   4   0  -3   -0.70    1.60
  -3   0   3  230.88    8.70
  -3   0   3  233.58   10.00
   3   0  -3  240.78    8.80
  -3   0   3  243.48    8.90
   2   0  -3    0.40    0.80
   2   0  -3    0.50    0.80
  -2   0   3   -0.40    0.80
  -2   0   3    0.70    0.80
  -1   0   3    1.80    0.90
  -1   0   3    2.60    0.60
   1   0  -3    1.80    1.00
   1   0  -3    2.30    0.60
   0   0  -3   -0.10    0.30
   0   0   3   -0.20    0.40
   0   0  -3   -0.10    0.40
   0   0   3    0.20    0.30
  -1   0  -3 2087.99   31.70
   1   0   3 2071.79   33.20
   1   0   3 2054.69   30.60
  -1   0  -3 2040.20   30.30
   2   0   3    0.30    1.00
  -2   0  -3    1.70    1.10
   2   0   3    2.30    1.00
  -2   0  -3    0.60    1.10
   3   0   3   65.39    4.50
   3   0   3   74.19    5.50
  -3   0  -3   64.49    4.30
  -3   0  -3   60.29    5.20
  -4   0  -3    0.10    1.60
   4   0   3    1.10    2.00
  -4   0  -3    0.10    1.60
   4   0   3   -0.30    1.40
  -5   0  -3    4.60    2.70
   5   0   3    4.20    2.80
  -5   0  -3   10.70    3.80
   6   0   3   -3.20    2.20
  -6   0  -3    1.00    3.20
  -6   0  -3   -1.40    2.30
  -7   0  -3   20.80    6.30
  -8   0  -3   -1.30    3.60
  -8   0  -3    3.50    3.70
  -8  -1   3    0.90    4.20
  -8  -1   3   -1.50    3.70
  -8   1   3    5.70    3.80
  -8   1   3    6.40    3.70
  -7  -1   3   -0.80    2.70
  -7  -1   3    4.90    2.60
  -7   1   3   -1.00    3.10
  -7   1   3    5.60    3.90
  -6  -1   3   46.50    7.40
  -6  -1   3   56.39    6.90
  -6   1   3   39.70    7.00
  -6   1   3   54.59    7.50
  -5  -1   3  393.86   15.90
  -5  -1   3  416.26   16.00
  -5  -1   3  424.16   14.30
  -5   1   3  401.16   15.70
  -5   1   3  397.16   16.50
  -5   1   3  411.46   15.00
  -4  -1   3  226.98    9.30
   4  -1  -3  208.98    9.80
  -4  -1   3  234.68   10.70
  -4  -1   3  221.28   10.00
  -4   1   3  226.68   10.10
  -4   1   3  235.28   13.00
   4   1  -3  222.48   10.10
  -4   1   3  221.88    9.80
  -3  -1   3  144.49    6.60
   3  -1  -3  140.39    6.70
  -3  -1   3  142.29    6.70
  -3  -1   3  146.99    7.60
   3   1  -3  144.69    6.70
  -3   1   3  146.59    8.10
  -3   1   3  145.69    6.80
  -3   1   3  135.69    6.70
   2  -1  -3  239.28    7.20
  -2  -1   3  227.58    7.40
   2   1  -3  236.38    7.20
   2   1  -3  239.28    7.60
  -2   1   3  250.17    9.30
  -2   1   3  231.88    7.90
   1  -1  -3    8.40    1.10
  -1  -1   3    6.40    1.30
  -1  -1   3    8.90    1.20
   1  -1  -3    6.40    1.30
   1   1  -3   10.40    1.90
  -1   1   3    6.50    1.40
   1   1  -3    7.70    1.10
  -1   1   3    8.40    1.20
   0  -1  -3  382.36    7.80
   0  -1   3  392.56    7.00
   0  -1   3  372.76    8.40
   0  -1  -3  380.66    6.90
   0   1  -3  375.36    8.30
   0   1   3  382.96    6.90
   0   1   3  387.46    7.80
   0   1  -3  388.96    7.00
   1  -1   3  213.38    7.30
  -1  -1  -3  201.18    6.30
   1  -1   3  213.08    6.50
  -1  -1  -3  209.48    4.80
  -1   1  -3  214.88    6.50
   1   1   3  209.18    4.90
  -1   1  -3  222.28    7.20
   1   1   3  209.08    7.20
  -2  -1  -3  308.47    9.80
   2  -1   3  287.97    9.40
   2  -1   3  261.27    8.70
  -2  -1  -3  291.27    7.10
   2   1   3  278.17    9.30
   2   1   3  281.07    7.20
  -2   1  -3  275.57    8.60
  -3  -1  -3  176.38    8.60
  -3  -1  -3  167.68    6.30
   3  -1   3  145.69    7.80
   3  -1   3  166.88    7.80
  -3   1  -3  165.28    7.50
   3   1   3  160.38    6.50
   3   1   3  161.88    8.10
   4  -1   3    4.90    2.40
   4  -1   3    3.70    2.40
  -4  -1  -3    0.40    1.70
  -4  -1  -3    3.50    1.80
   4   1   3    2.80    2.30
  -4   1  -3    2.50    1.90
   4   1   3    1.20    1.50
  -4   1  -3    1.60    1.60
  -5  -1  -3   96.09    6.50
  -5  -1  -3   89.39    8.10
   5  -1   3   94.29    7.70
  -5   1  -3   97.59    8.50
   5   1   3   89.69    6.60
  -5   1  -3   97.99    7.40
  -6  -1  -3    5.80    3.10
   6  -1   3   12.90    3.50
  -6  -1  -3   10.90    3.40
  -6  -1  -3    8.90    3.00
  -6   1  -3    4.20    3.20
  -7  -1  -3   31.20    6.60
   7  -1   3   40.70    8.00
  -7  -1  -3   34.10    5.10
  -7   1  -3   22.40    6.70
  -8  -1  -3   -5.20    3.40
  -8  -1  -3    3.90    4.80
  -8   1  -3    1.90    3.50
  -8   1  -3    1.90    3.50
  -8  -2   3   85.99   16.90
  -8  -2   3   74.99    8.00
  -8   2   3   90.19    9.60
  -8   2   3   90.99   16.60
  -7  -2   3    2.50    3.60
  -7  -2   3   -1.10    2.10
  -7   2   3    0.50    2.80
  -7   2   3   -4.00    2.60
  -6  -2   3   49.99    7.20
  -6  -2   3   56.99    6.90
  -6   2   3   52.79    6.90
  -6   2   3   51.09    7.40
  -5  -2   3   33.50    4.90
  -5  -2   3   31.50    5.70
  -5  -2   3   28.40    5.20
  -5   2   3   19.80    4.40
  -5   2   3   25.50    5.00
  -4  -2   3    1.00    1.50
  -4  -2   3   -1.80    1.50
  -4  -2   3    0.10    1.10
  -4   2   3    2.30    1.90
  -4   2   3    2.40    1.60
  -4   2   3   -0.30    2.00
   3  -2  -3  189.38    7.90
  -3  -2   3  173.18    7.10
  -3  -2   3  184.98    8.00
   3  -2  -3  186.58    9.50
  -3   2   3  181.88    9.40
   3   2  -3  183.78    7.20
  -3   2   3  186.58    8.20
  -3   2   3  165.78    7.50
   3   2  -3  182.48    7.80
  -2  -2   3 1587.04   27.10
   2  -2  -3 1650.13   27.20
   2  -2  -3 1617.84   31.30
  -2  -2   3 1581.74   27.10
   2   2  -3 1629.74   27.20
  -2   2   3 1604.54   30.90
  -2   2   3 1638.14   27.30
   2   2  -3 1565.44   26.90
  -1  -2   3  596.94   12.40
   1  -2  -3  570.24   11.00
  -1  -2   3  571.84   11.20
   1   2  -3  583.24   12.10
   1   2  -3  586.84   11.20
  -1   2   3  583.24   11.10
  -1   2   3  585.44   12.60
  -1   2   3  591.54   14.00
   0  -2   3  548.55   11.60
   0  -2  -3  536.05   10.40
   0  -2  -3  544.05   10.10
   0   2   3  558.94   10.30
   0   2  -3  542.45   10.90
   0   2   3  531.35   10.20
   0   2  -3  531.35   10.20
   0   2  -3  530.95   12.40
   1  -2   3 2594.64   39.20
   1  -2   3 2486.95   39.90
  -1  -2  -3 2626.44   34.70
  -1   2  -3 2648.03   41.50
  -1   2  -3 2602.74   39.80
   1   2   3 2546.35   34.70
   1   2   3 2533.05   39.00
   2  -2   3  191.28    7.70
   2  -2   3  200.48    8.00
  -2  -2  -3  193.58    4.50
  -2   2  -3  189.08    7.50
   2   2   3  191.08    7.70
   2   2   3  204.68    5.00
  -2   2  -3  192.18    7.90
   3  -2   3   57.49    5.00
   3  -2   3   53.19    4.90
  -3  -2  -3   49.90    3.00
  -3  -2  -3   57.99    5.10
   3   2   3   65.09    5.30
   3   2   3   59.09    3.50
  -3   2  -3   61.69    4.80
  -3   2  -3   65.79    5.40
  -4  -2  -3  781.52   22.60
  -4  -2  -3  804.72   17.20
   4  -2   3  781.72   21.80
   4  -2   3  813.62   24.40
   4   2   3  770.02   24.50
  -4   2  -3  777.92   20.90
   4   2   3  795.22   18.00
  -4   2  -3  835.62   23.30
   5  -2   3   52.99    7.10
  -5  -2  -3   51.19    4.80
  -5  -2  -3   73.69    9.30
  -5  -2  -3   50.29    3.90
  -5   2  -3   62.59    8.60
  -5   2  -3   63.09    7.40
  -6  -2  -3  287.57   15.60
  -6  -2  -3  244.58   10.80
  -6  -2  -3  255.07   10.00
  -6   2  -3  266.27   15.30
  -7  -2  -3   45.20    5.70
   7  -2   3   54.39    9.20
  -7  -2  -3   56.79    7.00
  -7  -2  -3   54.69    8.60
  -7   2  -3   64.69   10.20
  -8  -2  -3   -0.50    3.60
  -8  -2  -3   -3.10    3.50
  -8   2  -3    0.00    3.40
  -8   2  -3    2.10    3.80
  -8  -3   3   44.10    6.50
  -8  -3   3   47.60   11.80
  -8   3   3   53.29   14.90
  -8   3   3   51.19    8.30
  -7  -3   3   65.99    9.70
  -7  -3   3   55.49    5.80
  -7   3   3   52.89    7.90
  -7   3   3   60.09    8.80
  -6  -3   3   83.69    8.30
  -6  -3   3   95.09    6.80
  -6  -3   3   83.99    7.90
  -6   3   3   76.19    7.60
  -6   3   3   85.79    8.10
   5  -3  -3    2.70    3.00
  -5  -3   3    1.20    2.00
  -5  -3   3    1.40    1.90
  -5   3   3    6.60    3.30
  -5   3   3    3.40    2.30
   4  -3  -3  106.19    8.30
  -4  -3   3   84.89    6.30
  -4  -3   3   89.89    6.70
  -4  -3   3   80.99    5.20
   4  -3  -3   77.49    6.00
  -4   3   3  100.69    7.00
   4   3  -3  103.09    6.80
  -4   3   3   86.09    7.40
   3  -3  -3    5.60    2.70
  -3  -3   3    8.60    1.90
  -3  -3   3    9.80    2.40
   3  -3  -3    6.30    2.00
   3   3  -3    7.20    1.60
   3   3  -3    8.50    2.10
  -3   3   3    5.90    1.90
  -3   3   3    3.50    1.90
  -2  -3   3  250.17    8.20
   2  -3  -3  230.38    7.70
   2  -3  -3  234.78    9.80
  -2  -3   3  235.08    7.50
   2   3  -3  227.68    7.90
   2   3  -3  222.38    7.30
  -2   3   3  224.18    7.80
  -2   3   3  232.18    9.70
  -1  -3   3  147.09    5.50
  -1  -3   3  149.99    5.70
   1  -3  -3  158.48    6.90
  -1   3   3  149.99    5.30
  -1   3   3  153.88    6.70
  -1   3   3  150.08    6.50
   1   3  -3  153.48    5.50
   1   3  -3  146.69    5.50
   0  -3  -3  676.83   13.80
   0  -3   3  689.03   14.60
   0  -3  -3  702.13   14.00
   0   3   3  708.53   13.90
   0   3  -3  722.63   15.80
   0   3  -3  676.83   14.40
   0   3  -3  695.63   13.70
  -1  -3  -3 1799.42   30.30
   1  -3   3 1857.41   31.70
   1  -3   3 1814.02   30.20
  -1   3  -3 1799.72   31.10
   1   3   3 1874.91   25.00
  -1   3  -3 1789.42   30.30
   1   3   3 1833.12   30.30
   1   3   3 1814.42   25.50
  -2  -3  -3  465.95   13.20
   2  -3   3  441.76   13.40
  -2   3  -3  438.96   13.00
   2   3   3  444.36   12.90
  -2   3  -3  474.35   13.40
   3  -3   3  128.79    7.70
  -3  -3  -3  114.39    3.50
  -3  -3  -3  111.99    7.10
  -3  -3  -3  116.59    3.80
  -3   3  -3  108.79    6.80
  -3   3  -3  121.39    7.40
  -4  -3  -3   62.99    3.70
   4  -3   3   70.49    6.70
  -4  -3  -3   63.59    3.40
  -4  -3  -3   68.89    6.40
  -4   3  -3   56.59    5.80
  -4   3  -3   60.39    7.70
  -5  -3  -3   10.00    2.20
  -5  -3  -3    9.60    2.30
   5  -3   3    4.50    2.80
  -5  -3  -3    8.30    3.40
  -5   3  -3   12.60    4.00
   6  -3   3   37.70    7.20
  -6  -3  -3   38.20    4.30
  -6  -3  -3   33.50    4.20
  -6  -3  -3   41.40    7.70
  -6   3  -3   39.70    7.60
  -7  -3  -3   66.39   10.50
  -7  -3  -3   49.60    5.00
  -7  -3  -3   48.10    9.50
   7  -3   3   58.29    9.70
  -7   3  -3   44.10    7.80
   8  -3   3   53.99    9.40
  -8  -3  -3   59.89    9.30
  -8  -3  -3   68.69    6.60
  -8   3  -3   87.49    9.00
  -8   3  -3  101.09   12.90
  -8  -4   3   44.40    6.30
  -8  -4   3   29.00    7.80
  -8   4   3   20.10    6.60
  -8   4   3   42.50    7.60
  -7  -4   3   11.90    4.80
  -7  -4   3   13.20    3.80
  -7   4   3    8.10    4.00
  -7   4   3    6.30    3.50
  -6  -4   3    3.20    4.00
  -6  -4   3   13.00    4.20
  -6  -4   3    9.10    2.80
  -6   4   3    9.10    3.80
  -6   4   3   12.90    4.20
  -5  -4   3   58.49    5.80
  -5  -4   3   71.79    5.40
   5  -4  -3   64.09    8.80
  -4  -4   3   10.30    2.90
  -4  -4   3    9.60    2.30
   4  -4  -3    9.90    3.20
  -4  -4   3    7.40    2.70
   4  -4  -3   12.50    3.60
  -4   4   3   12.90    4.40
   4   4  -3    9.70    2.50
   4   4  -3    7.40    2.30
  -4   4   3   12.80    3.30
   3  -4  -3  128.29    7.00
  -3  -4   3  130.19    6.00
   3  -4  -3  133.99    8.80
  -3  -4   3  131.59    7.20
   3   4  -3  113.79    6.60
  -3   4   3  121.59    8.10
   3   4  -3  124.49    5.90
  -3   4   3  123.29    7.00
  -2  -4   3 1180.38   21.90
   2  -4  -3 1195.58   23.00
  -2  -4   3 1161.18   23.30
   2  -4  -3 1209.38   26.90
   2   4  -3 1148.79   22.90
  -2   4   3 1195.48   26.30
   2   4  -3 1188.08   21.80
  -2   4   3 1136.79   22.90
  -1  -4   3  504.85   12.00
  -1  -4   3  489.25   12.30
   1  -4  -3  513.35   14.00
  -1   4   3  505.35   13.70
   1   4  -3  496.25   12.20
   1   4  -3  487.35   11.80
  -1   4   3  503.95   12.60
  -1   4   3  495.05   11.90
   0  -4   3  202.78    7.70
   0  -4  -3  217.38    7.20
   0  -4  -3  206.48    7.30
   0  -4   3  208.28    7.60
   0   4   3  196.38    7.00
   0   4  -3  214.38    7.70
   0   4  -3  218.68    7.60
   1  -4   3  228.88    8.80
   1  -4   3  205.98    7.60
  -1  -4  -3  204.98    7.80
   1   4   3  194.98    7.60
  -1   4  -3  219.68    8.40
  -1   4  -3  208.78    7.80
   1   4   3  219.18    4.70
   1   4   3  224.18    5.20
   2  -4   3   47.90    4.70
  -2  -4  -3   54.99    4.60
   2  -4   3   46.20    4.20
  -2   4  -3   60.59    5.00
  -2   4  -3   56.29    4.70
  -3  -4  -3  374.86   13.50
   3  -4   3  369.86   14.10
   3  -4   3  339.47   12.90
   3   4   3  349.96   13.00
  -3   4  -3  365.26   13.60
  -3   4  -3  369.36   13.60
  -4  -4  -3  538.05   18.60
   4  -4   3  551.14   19.30
  -4  -4  -3  547.95   10.60
  -4  -4  -3  530.95   10.00
  -4   4  -3  525.95   18.20
  -4   4  -3  546.15   18.90
  -5  -4  -3   17.30    2.40
  -5  -4  -3   12.20    2.40
   5  -4   3    5.90    3.40
  -5  -4  -3   16.30    4.60
  -5   4  -3   14.10    4.20
   6  -4   3  210.88   13.90
  -6  -4  -3  193.58    8.00
  -6  -4  -3  223.98   14.20
  -6  -4  -3  191.38    7.20
  -6   4  -3  204.18   13.70
  -7  -4  -3   17.90    3.10
  -7  -4  -3   16.30    5.20
  -7  -4  -3   18.30    4.30
   7  -4   3   10.50    5.30
  -7   4  -3   16.10    5.50
   8  -4   3    7.30    5.60
  -8  -4  -3    5.80    3.10
  -8  -4  -3    0.20    3.80
  -8   4  -3   13.30    6.10
  -8  -5   3   -4.20    3.70
  -8  -5   3   -1.50    3.30
  -8   5   3   -3.50    3.60
  -7  -5   3  164.08    9.30
  -7  -5   3  158.88   12.40
  -7   5   3  169.08   12.10
  -7   5   3  153.68   12.40
  -6  -5   3   14.20    3.80
  -6  -5   3   19.40    4.60
   6  -5  -3   20.10    5.80
  -6  -5   3   24.40    4.40
  -6   5   3   13.80    4.40
  -5  -5   3   24.90    5.20
  -5  -5   3   23.80    4.90
  -5  -5   3   29.10    4.30
   5  -5  -3   27.00    6.20
  -5   5   3   26.70    5.40
  -4  -5   3    1.60    1.30
   4  -5  -3    4.20    2.20
   4  -5  -3    1.00    2.10
  -4  -5   3    1.80    1.70
  -4   5   3    3.10    2.30
   4   5  -3   -2.00    1.80
   4   5  -3    2.40    1.50
  -3  -5   3  101.89    6.60
  -3  -5   3   98.99    5.20
   3  -5  -3   92.29    6.20
   3  -5  -3   91.69    7.60
   3   5  -3   98.99    5.30
   3   5  -3   90.09    6.20
  -3   5   3   94.69    6.30
  -3   5   3   86.79    7.40
  -2  -5   3   11.10    2.30
   2  -5  -3   10.20    3.10
  -2  -5   3   10.00    2.50
   2  -5  -3   14.00    2.70
   2   5  -3    7.00    2.10
   2   5  -3   11.30    2.10
  -2   5   3   13.40    3.40
  -2   5   3   17.00    3.20
  -1  -5   3 1794.02   30.90
  -1  -5   3 1781.22   31.90
   1  -5  -3 1769.22   33.50
  -1   5   3 1727.03   31.00
   1   5  -3 1801.52   30.50
  -1   5   3 1811.22   33.10
  -1   5   3 1780.02   32.10
   1   5  -3 1822.92   31.90
   0  -5   3  426.36   12.70
   0  -5  -3  420.16   11.40
   0  -5  -3  430.46   12.20
   0  -5   3  424.96   12.20
   0   5   3  411.16   11.80
   0   5   3  408.46   10.90
   0   5  -3  410.66   12.20
   0   5  -3  400.86   11.70
  -1  -5  -3    4.00    1.10
   1  -5   3    4.50    1.80
  -1  -5  -3    2.90    1.50
   1  -5   3    4.50    1.80
  -1   5  -3    3.50    1.70
  -1   5  -3    5.40    2.20
   1   5   3    5.20    1.20
   1   5   3    4.60    1.80
  -2  -5  -3  875.21   21.20
   2  -5   3  891.01   20.90
   2  -5   3  895.61   22.60
  -2   5  -3  874.21   21.20
  -2   5  -3  879.51   21.80
   2   5   3  861.51   20.90
  -3  -5  -3  210.08   10.30
   3  -5   3  188.68    9.70
   3  -5   3  205.28   10.90
   3   5   3  204.58   10.00
  -3   5  -3  209.08   10.40
  -3   5  -3  218.88   10.70
   4  -5   3   44.40    7.20
  -4  -5  -3   33.00    6.90
  -4   5  -3   34.00    6.40
  -5  -5  -3  330.17    7.20
  -5  -5  -3  318.77   15.80
  -5  -5  -3  324.87    7.50
   5  -5   3  327.27   16.30
  -5   5  -3  350.76   16.50
   6  -5   3   33.50    7.00
  -6  -5  -3   21.30    6.00
  -6  -5  -3   21.20    2.70
  -6   5  -3   16.40    5.10
  -7  -5  -3   16.00    3.20
   7  -5   3   20.40    6.60
  -7  -5  -3   22.70    6.80
  -7  -5  -3   19.50    2.80
  -7   5  -3   15.80    4.80
   8  -5   3   -1.10    4.60
  -8  -5  -3    2.50    2.90
  -8  -5  -3    5.90    4.40
  -8   5  -3    0.40    4.10
  -8  -6   3    3.70    4.00
  -8  -6   3    5.20    5.40
  -8   6   3    1.40    4.10
  -8   6   3    3.50    4.10
  -7  -6   3    2.20    2.70
  -7  -6   3    4.50    4.30
  -7   6   3    2.80    4.10
  -7   6   3    3.90    3.70
  -6  -6   3    9.80    4.80
  -6  -6   3   13.90    3.20
   6  -6  -3   24.10    7.10
  -6  -6   3   22.60    4.60
  -6   6   3   17.60    4.30
  -5  -6   3  108.19    9.00
  -5  -6   3  107.29    6.60
  -5  -6   3  111.09    7.40
   5  -6  -3  136.19   11.30
  -5   6   3  122.89    9.40
  -4  -6   3   24.40    4.70
  -4  -6   3   23.70    3.70
   4  -6  -3   31.20    8.20
   4   6  -3   33.50    4.00
  -4   6   3   27.80    4.60
   3  -6  -3   63.79    6.10
   3  -6  -3   68.69    6.90
  -3  -6   3   65.09    4.50
  -3  -6   3   70.79    5.90
  -3   6   3   64.49    6.70
   3   6  -3   68.79    4.50
   3   6  -3   64.79    5.50
  -3   6   3   68.59    5.70
   2  -6  -3  170.78    9.60
  -2  -6   3  155.88    6.90
  -2  -6   3  149.19    7.80
  -2   6   3  152.48    7.70
   2   6  -3  149.49    6.50
  -2   6   3  153.68    8.40
   2   6  -3  171.48    8.20
  -2   6   3  151.88    8.80
  -1  -6   3    9.80    2.30
   1  -6  -3   12.00    3.00
  -1  -6   3    7.80    2.40
   1   6  -3    5.30    1.90
  -1   6   3    7.20    2.30
  -1   6   3   10.30    2.90
  -1   6   3   11.60    2.70
   1   6  -3    6.80    2.20
   0  -6  -3   20.00    3.20
   0  -6   3   25.90    4.20
   0  -6   3   17.20    3.20
   0  -6  -3   19.10    3.20
   0   6  -3   25.80    3.80
   0   6   3   25.80    3.80
   0   6  -3   26.40    4.10
   0   6   3   16.80    2.80
  -1  -6  -3  696.33   14.20
   1  -6   3  742.13   19.40
  -1  -6  -3  690.13   18.10
  -1   6  -3  709.13   18.60
   1   6   3  708.23   17.90
   1   6   3  718.53   14.00
  -1   6  -3  698.33   19.00
  -1   6  -3  695.23   17.80
   2  -6   3  248.38   10.70
  -2  -6  -3  298.37   11.80
   2  -6   3  271.57   12.10
   2   6   3  265.97   11.10
  -2   6  -3  270.17   13.20
   2   6   3  272.57    4.30
  -2   6  -3  257.97   11.00
   3  -6   3  247.18   11.50
  -3  -6  -3  251.17   11.80
   3  -6   3  265.47   13.10
  -3   6  -3  275.27   12.40
  -3   6  -3  262.97   12.40
   3   6   3  267.17   11.90
   4  -6   3    4.70    2.60
  -4  -6  -3    1.20    2.00
  -4   6  -3    8.10    3.50
  -5  -6  -3    8.50    3.40
   5  -6   3    7.20    4.30
  -5   6  -3    6.30    2.70
  -6  -6  -3   10.60    4.80
   6  -6   3   14.30    5.20
  -6   6  -3    0.70    3.90
  -7  -6  -3   65.19   15.90
   7  -6   3   85.89   11.80
   8  -6   3    3.80    5.10
  -8  -6  -3    3.70    4.90
  -8   6  -3    2.10    4.00
  -8  -7   3    6.90    5.30
  -8  -7   3   -1.20    3.50
  -8   7   3    7.20    4.60
  -8   7   3    2.70    4.50
  -7  -7   3  113.99   10.10
  -7  -7   3  130.19    8.10
   7  -7  -3  134.99   13.30
  -7  -7   3  140.59   11.90
  -7   7   3  130.59   11.90
  -7   7   3  133.79   10.90
  -6  -7   3   56.19    8.10
  -6  -7   3   48.10    6.50
   6  -7  -3   34.30    7.30
  -6  -7   3   53.59    4.90
  -6   7   3   37.30    6.80
   5  -7  -3    2.60    3.20
  -5  -7   3    5.60    2.30
  -5  -7   3    4.90    3.30
  -5  -7   3    0.40    2.70
  -5   7   3   -0.20    2.70
  -4  -7   3  105.99    8.30
   4  -7  -3  100.49    9.50
  -4  -7   3  112.89    6.30
   4   7  -3  116.79    6.40
  -4   7   3  116.39    8.30
  -3  -7   3   91.29    6.90
  -3  -7   3   88.49    5.30
   3  -7  -3   77.69    6.40
   3  -7  -3   89.49    8.20
  -3   7   3   75.09    6.30
   3   7  -3   88.09    6.60
   3   7  -3   83.19    5.20
   2  -7  -3  278.07   12.80
  -2  -7   3  271.77    9.90
  -2  -7   3  291.97   11.70
   2   7  -3  294.27    9.90
  -2   7   3  271.57   12.30
  -2   7   3  278.57   11.20
  -2   7   3  283.27   11.80
   2   7  -3  286.57   11.50
  -1  -7   3  426.86   13.10
   1  -7  -3  432.46   14.70
  -1  -7   3  456.15   14.70
   1   7  -3  418.76   12.50
   1   7  -3  404.06   13.70
  -1   7   3  418.76   14.20
  -1   7   3  429.06   14.20
  -1   7   3  438.56   13.80
   0  -7   3    2.00    1.60
   0  -7  -3    1.20    1.10
   0  -7   3    4.20    2.00
   0  -7  -3    3.30    2.10
   0   7   3    2.20    1.10
   0   7  -3    2.10    1.40
   0   7  -3    1.20    1.50
   0   7   3   -0.20    1.40
   1  -7   3    3.60    2.00
  -1  -7  -3   10.50    2.80
   1   7   3    5.50    2.10
  -1   7  -3    4.70    2.10
  -1   7  -3    3.90    2.10
  -1   7  -3    7.40    2.40
   1   7   3    8.20    1.80
  -2  -7  -3   36.60    5.80
   2  -7   3   20.10    3.70
   2  -7   3   27.40    5.00
  -2  -7  -3   29.50    1.90
  -2   7  -3   21.00    4.10
   2   7   3   19.50    3.60
   2   7   3   25.90    1.70
  -2   7  -3   31.00    5.00
  -3  -7  -3   75.79    6.90
   3  -7   3   77.89    7.50
  -3   7  -3   64.09    6.30
  -4  -7  -3   22.00    5.10
   4  -7   3   20.20    5.00
  -4   7  -3   22.00    4.60
   5  -7   3    0.20    3.20
  -5  -7  -3    8.40    3.50
  -5   7  -3    8.10    3.60
  -6  -7  -3   33.40    7.60
   6  -7   3   31.40    6.80
  -6   7  -3   19.20    5.20
  -7  -7  -3   48.40    8.90
   7  -7   3   60.79   10.80
  -7   7  -3   50.29    9.40
   8  -7   3   11.70    5.70
  -8  -7  -3   20.30    7.60
  -8   7  -3   14.20    5.00
  -8  -8   3   37.90    5.60
  -8  -8   3   21.90    6.80
  -8   8   3   33.20    8.10
  -8   8   3   43.80    9.00
  -7  -8   3    9.10    5.50
  -7  -8   3   14.40    3.80
  -7  -8   3    6.10    5.70
  -7   8   3   -1.20    4.30
   6  -8  -3   84.79   12.70
  -6  -8   3   66.99    9.30
  -6  -8   3   82.49    5.90
  -6   8   3   73.19    9.60
   5  -8  -3   29.50    7.70
  -5  -8   3   27.80    4.00
  -5  -8   3   28.20    5.80
  -5   8   3   18.20    4.80
   5   8  -3   29.10    4.20
  -4  -8   3    3.60    3.00
  -4  -8   3    4.70    2.10
   4  -8  -3    0.50    2.00
   4   8  -3    3.30    1.90
  -4   8   3    1.90    2.20
  -3  -8   3   32.60    4.20
   3  -8  -3   28.70    5.90
  -3  -8   3   49.80    6.80
   3   8  -3   39.70    3.80
  -3   8   3   49.30    7.00
  -2  -8   3  555.54   15.30
   2  -8  -3  511.45   18.60
  -2  -8   3  528.75   17.40
   2   8  -3  525.55   17.00
  -2   8   3  474.85   17.40
  -2   8   3  519.85   16.70
   2   8  -3  514.75   14.30
  -2   8   3  510.65   17.40
  -1  -8   3   46.20    4.50
  -1  -8   3   43.00    5.70
   1  -8  -3   36.60    5.30
   1  -8  -3   44.90    6.00
  -1   8   3   34.20    4.50
   1   8  -3   45.90    6.50
   1   8  -3   36.20    4.50
  -1   8   3   40.40    5.20
   0  -8   3  150.18    9.00
   0  -8   3  126.99    7.80
   0  -8  -3  126.59    7.30
   0  -8  -3  142.79    8.50
   0   8  -3  140.79    7.80
   0   8   3  154.48   13.10
   0   8   3  143.69    7.40
  -1  -8  -3    1.40    1.30
  -1  -8  -3    4.50    2.40
   1  -8   3    1.90    1.70
   1   8   3    1.00    1.10
  -1   8  -3   -0.20    1.20
  -1   8  -3   -2.00    1.70
   1   8   3    2.50    2.00
  -1   8  -3    1.80    1.70
   2  -8   3    0.20    1.80
  -2  -8  -3    0.80    1.00
  -2  -8  -3    1.90    1.80
   2   8   3    0.90    0.80
  -2   8  -3    4.10    2.30
  -2   8  -3    1.90    2.00
   2   8   3    3.00    2.40
  -2   8  -3    3.00    2.60
  -4  -8  -3  201.68   12.10
   4  -8   3  193.08   12.50
  -4   8  -3  207.68   12.40
  -5  -8  -3   18.60    4.80
   5  -8   3   14.10    4.60
  -5   8  -3   18.80    5.00
  -6  -8  -3  102.29   10.30
   6  -8   3   83.19   12.50
  -6   8  -3   75.39   10.00
  -7  -8  -3   13.30    6.00
   7  -8   3   12.50    7.00
  -7   8  -3   15.40    5.60
   8  -8   3    0.10    5.60
  -8  -8  -3   -5.10    5.00
  -8   8  -3   -2.10    5.00
  -8  -9   3    5.20    5.10
  -8  -9   3   -0.30    4.20
  -8   9   3   -5.60    4.20
  -8   9   3    6.60    5.20
  -7  -9   3    2.70    4.40
   7  -9  -3    7.50    5.40
  -7  -9   3    6.00    3.20
  -7   9   3   -1.00    4.20
  -6  -9   3   39.50    7.80
   6  -9  -3   43.00    9.10
  -6  -9   3   36.60    7.30
  -6  -9   3   54.59    5.00
  -6   9   3   40.70    7.50
  -5  -9   3    4.00    3.40
  -5  -9   3    6.20    2.10
   5  -9  -3   -0.70    3.20
  -5   9   3    6.60    3.80
   5   9  -3    8.00    2.50
  -4  -9   3  497.45   14.60
  -4  -9   3  512.55   19.70
   4  -9  -3  498.95   22.20
  -4   9   3  464.05   18.60
   4   9  -3  455.85   13.90
  -3  -9   3   38.00    4.90
   3  -9  -3   38.20    6.80
  -3  -9   3   39.80    7.10
  -3   9   3   33.70    5.80
   3   9  -3   45.30    4.30
  -2  -9   3   58.89    5.10
   2  -9  -3   56.19    7.50
  -2  -9   3   82.19    7.00
  -2   9   3   62.89    7.90
  -2   9   3   64.39    6.20
  -2   9   3   49.40    7.00
   2   9  -3   53.59    4.70
  -1  -9   3    1.50    1.90
  -1  -9   3    3.30    2.20
   1  -9  -3    2.70    2.10
  -1   9   3    1.60    1.90
   1   9  -3   -0.30    2.00
  -1   9   3   -0.40    1.70
   1   9  -3    2.70    1.80
  -1   9   3    1.20    1.90
   0  -9  -3  123.39    7.50
   0  -9   3  116.59    8.60
   0  -9   3  117.09    8.00
   0  -9  -3  113.49    8.10
   0   9   3  115.99    8.00
   0   9  -3  115.69    8.20
   0   9   3  105.39    6.80
   0   9  -3  110.39    7.20
   1  -9   3    0.80    1.90
  -1  -9  -3    1.50    1.40
  -1  -9  -3    0.30    1.50
  -1   9  -3    2.20    2.40
   1   9   3    1.80    1.50
  -1   9  -3    1.70    2.40
  -1   9  -3    1.70    2.00
   1   9   3    0.30    1.90
   2  -9   3  734.83   23.70
  -2  -9  -3  699.93   21.90
  -2  -9  -3  723.13   15.20
  -2   9  -3  670.03   21.40
   2   9   3  697.23   14.00
   3  -9   3    7.20    3.50
  -3  -9  -3    6.30    3.10
  -3   9  -3    8.10    3.30
  -4  -9  -3   60.99    9.10
   4  -9   3   68.19    9.80
  -4   9  -3   63.79    9.40
  -5  -9  -3   26.70    6.80
   5  -9   3   26.40    6.70
  -5   9  -3   14.30    4.30
   6  -9   3    7.50    4.50
  -6  -9  -3   19.10    5.50
  -6   9  -3    7.20    4.20
   7  -9   3   -3.40    4.50
  -7  -9  -3    0.40    4.10
  -7   9  -3   -4.40    3.50
  -7 -10   3    2.20    4.50
  -7 -10   3    2.40    3.30
   7 -10  -3    3.40    4.00
  -7  10   3    7.50    4.40
  -6 -10   3   83.29   10.80
  -6 -10   3   92.59    6.40
  -6 -10   3   75.69    7.80
   6 -10  -3   73.89   10.90
  -6  10   3   76.19    9.90
  -5 -10   3  165.28    8.20
  -5 -10   3  166.98   12.60
   5 -10  -3  144.09   13.10
   5  10  -3  166.08    8.20
  -5  10   3  162.98   11.60
  -4 -10   3   15.10    4.60
   4 -10  -3   10.30    4.50
  -4 -10   3   13.80    3.30
   4  10  -3   19.00    3.60
  -4  10   3    9.90    4.40
  -3 -10   3   45.00    4.80
  -3 -10   3   49.60    7.50
   3 -10  -3   43.90    7.40
  -3  10   3   40.80    6.10
   3  10  -3   42.30    4.30
   2 -10  -3  493.75   19.70
  -2 -10   3  484.65   15.70
  -2 -10   3  441.46   19.90
   2  10  -3  471.45   14.60
  -2  10   3  476.35   17.50
   1 -10  -3    5.70    2.40
  -1 -10   3   13.00    4.10
  -1 -10   3   14.60    3.70
   1  10  -3    7.90    2.50
  -1  10   3    8.30    3.40
  -1  10   3    7.20    2.70
   0 -10  -3   31.40    5.70
   0 -10  -3   32.10    5.00
   0 -10   3   25.40    5.10
   0 -10   3   33.00    5.40
   0  10   3   37.70    5.30
   0  10  -3   35.80    6.00
  -1 -10  -3  421.56   13.50
  -1 -10  -3  432.56   17.10
   1 -10   3  408.36   16.70
   1  10   3  388.26   12.40
  -1  10  -3  428.16   16.30
  -2 -10  -3   13.60    4.10
   2 -10   3   25.20    5.80
  -2 -10  -3   20.20    2.90
   2  10   3   18.50    2.60
  -2  10  -3   17.20    4.30
  -3 -10  -3  209.38   12.70
   3 -10   3  217.58   13.80
  -3  10  -3  218.98   12.70
   3  10   3  215.98    4.50
  -4 -10  -3    3.70    3.30
   4 -10   3    1.10    3.00
  -4  10  -3    4.30    3.50
   5 -10   3    6.40    3.70
  -5 -10  -3   -2.90    2.70
  -5  10  -3    1.40    3.30
   6 -10   3   20.20    6.70
   7 -10   3   12.10    7.40
  -7 -10  -3   24.40    6.40
  -7  10  -3   20.60    6.70
  -7 -11   3   27.70    4.30
  -7 -11   3   32.20    7.70
   7 -11  -3   21.00    7.50
  -7  11   3   22.20    7.40
  -6 -11   3    2.90    4.50
  -6 -11   3   14.00    3.50
   6 -11  -3   14.60    6.10
  -6 -11   3   16.40    5.50
  -6  11   3    5.90    4.40
  -5 -11   3  105.99   10.40
   5 -11  -3  120.09   15.30
  -5 -11   3  102.39    6.80
  -5  11   3  101.39   10.00
   5  11  -3  104.49    7.00
  -4 -11   3    2.90    3.00
  -4 -11   3    4.20    2.30
   4 -11  -3    9.10    4.30
  -4  11   3    3.00    3.40
   4  11  -3    1.00    2.20
  -3 -11   3   16.40    4.80
  -3 -11   3   19.60    4.20
   3 -11  -3   18.50    5.90
  -3  11   3   20.30    5.30
  -2 -11   3    4.80    3.10
   2 -11  -3    4.30    3.00
  -2 -11   3    2.90    2.50
   2  11  -3    5.70    2.70
  -2  11   3    4.40    2.60
  -1 -11   3  196.48   10.80
  -1 -11   3  205.98   12.10
   1 -11  -3  194.18   11.60
   1  11  -3  181.88    9.50
  -1  11   3  180.98   10.80
   0 -11  -3   34.00    6.50
   0 -11  -3   35.10    5.40
   0 -11   3   27.30    5.70
   0 -11   3   35.00    6.10
   0  11   3   38.30    5.60
  -1 -11  -3  165.48    8.70
  -1 -11  -3  167.08   11.20
  -1  11  -3  171.58   10.70
   1  11   3  161.18    8.10
  -2 -11  -3   16.80    2.90
   2 -11   3   16.60    4.40
  -2 -11  -3   18.50    5.10
  -2  11  -3   18.00    5.00
   2  11   3   20.70    3.10
  -3 -11  -3    7.50    3.80
  -3 -11  -3    0.90    1.10
   3 -11   3    3.00    3.00
  -3  11  -3    3.50    2.50
   4 -11   3    1.60    2.80
  -4 -11  -3    6.70    3.30
  -4  11  -3    2.00    2.80
  -5 -11  -3  155.68   12.70
   5 -11   3  135.59   12.80
  -5  11  -3  136.09   11.50
   6 -11   3    2.30    4.30
  -6 -11  -3   -0.20    3.50
  -6  11  -3    2.30    3.70
   7 -11   3   -2.10    5.50
  -7 -11  -3   14.90    6.90
  -7  11  -3   13.20    6.50
  -7 -12   3    3.50    5.10
  -7 -12   3    5.60    4.20
   7 -12  -3   -3.00    5.00
  -7  12   3    3.20    5.30
  -6 -12   3   21.50    6.80
   6 -12  -3    9.60    4.90
  -6 -12   3   13.40    6.00
  -6 -12   3   16.30    3.60
  -6  12   3   18.60    5.80
  -5 -12   3   54.59    5.70
  -5 -12   3   62.09    9.50
   5 -12  -3   51.19    9.20
  -5  12   3   61.39    9.80
   5  12  -3   60.59    9.40
   4 -12  -3   28.50    6.60
  -4 -12   3   43.10    5.40
  -4 -12   3   42.30    7.70
   4  12  -3   42.30    5.20
  -4  12   3   41.20    7.70
  -3 -12   3  133.29   10.50
   3 -12  -3  149.88   12.50
  -3 -12   3  135.99    8.70
   3  12  -3  128.39    8.00
  -3  12   3  125.59   10.10
  -2 -12   3   24.20    5.40
   2 -12  -3   24.30    5.40
  -2 -12   3   31.50    5.50
  -2  12   3   22.30    5.10
   2  12  -3   25.20    4.50
   1 -12  -3   26.50    6.20
  -1 -12   3   23.70    5.30
  -1 -12   3    9.60    3.70
  -1  12   3   17.00    4.00
   0 -12   3   28.20    6.40
   0 -12  -3   39.30    6.30
   0 -12  -3   23.40    5.60
   0 -12   3   26.80    7.00
   0  12  -3   14.10    3.40
   0  12   3   30.80    5.60
  -1 -12  -3  511.85   16.80
  -1 -12  -3  533.65   21.00
   1 -12   3  522.45   21.00
  -1  12  -3  516.25   19.70
   1  12   3  442.06   14.90
  -2 -12  -3    2.60    2.60
   2 -12   3    2.40    3.00
  -2 -12  -3    5.00    2.00
  -2  12  -3    4.20    3.30
   2  12   3    4.20    2.00
  -3 -12  -3   38.50    3.20
   3 -12   3   49.70    9.10
  -3 -12  -3   51.79    8.40
  -3  12  -3   45.40    7.40
  -4 -12  -3   27.90    6.20
   4 -12   3   31.70    6.80
  -4  12  -3   45.10    8.30
   5 -12   3   29.20    8.20
  -5 -12  -3   27.50    6.80
  -5  12  -3   28.10    7.20
   6 -12   3    8.50    5.30
  -6 -12  -3    6.60    4.40
  -6  12  -3    3.10    4.10
  -6 -13   3   28.60    8.00
   6 -13  -3   16.30    6.90
  -6 -13   3   22.70    4.40
  -6  13   3   17.10    6.10
   5 -13  -3   13.10    6.10
  -5 -13   3    7.70    3.70
  -5 -13   3    7.30    5.10
  -5  13   3    8.00    3.60
  -4 -13   3   12.90    3.40
  -4 -13   3    6.60    4.20
   4 -13  -3   11.50    5.20
  -4  13   3   12.10    4.60
   4  13  -3   11.40    3.80
   3 -13  -3   10.10    3.80
  -3 -13   3   14.70    5.20
  -3 -13   3    9.30    3.10
   3  13  -3   12.40    3.70
  -3  13   3   11.80    3.80
  -2 -13   3  146.79   11.60
  -2 -13   3  140.39    9.60
   2 -13  -3  131.99   11.30
  -2  13   3  154.08   11.30
  -1 -13   3  111.99   10.50
  -1 -13   3  120.69   10.60
   1 -13  -3  114.09   10.00
  -1  13   3  118.99    9.90
   0 -13  -3    3.10    2.90
   0 -13   3    4.30    3.20
   0 -13  -3    4.20    3.00
   0  13  -3    1.30    2.00
   1 -13   3    3.60    3.50
  -1 -13  -3    7.00    2.60
  -1 -13  -3    7.20    3.90
  -1  13  -3    6.80    2.90
   1  13   3    9.60    3.00
   2 -13   3   12.60    4.70
  -2 -13  -3   15.40    3.40
  -2 -13  -3   28.50    6.00
   2  13   3   21.30    3.60
  -2  13  -3   17.30    5.30
  -3 -13  -3   -0.80    2.90
  -3 -13  -3    0.80    2.00
   3 -13   3   -0.90    3.00
  -3  13  -3   -0.70    2.50
   3  13   3    1.30    1.60
  -4 -13  -3    5.80    3.40
   4 -13   3   11.90    5.10
  -4  13  -3    4.40    4.30
  -5 -13  -3   55.79   10.60
   5 -13   3   30.70    7.80
  -5  13  -3   30.90    6.60
  -6 -13  -3   11.30    6.00
   6 -13   3   10.40    5.30
  -6  13  -3    2.20    5.00
  -6 -14   3   24.50    4.60
   6 -14  -3   23.80    7.10
  -6 -14   3   20.20    6.40
  -6  14   3   27.10    7.10
   5 -14  -3    4.80    4.70
  -5 -14   3    2.40    4.20
  -5 -14   3   -0.30    3.40
  -5  14   3    0.50    3.90
  -4 -14   3   -2.40    2.70
  -4 -14   3   -8.40    3.20
   4 -14  -3   -3.80    2.80
   4  14  -3   -6.20    2.90
  -4  14   3   -0.40    3.20
  -3 -14   3   -0.10    2.80
   3 -14  -3    1.00    3.70
  -3 -14   3   -3.50    2.30
  -3  14   3    3.20    3.30
   2 -14  -3  136.59   11.90
  -2 -14   3  108.89   10.60
  -2  14   3  137.49   11.30
   1 -14  -3    5.30    3.50
  -1 -14   3    4.10    2.90
  -1 -14   3    1.20    3.20
  -1  14   3    1.10    2.50
   0 -14   3  107.49    9.50
   0 -14  -3   93.59    9.80
   0  14  -3  118.29   10.50
  -1 -14  -3    3.60    2.80
  -1 -14  -3    2.50    3.40
   1 -14   3    2.40    3.00
   1  14   3    0.90    2.80
  -1  14  -3    1.80    2.80
  -2 -14  -3   26.50    4.60
  -2 -14  -3   35.10    7.60
   2 -14   3   21.50    5.60
  -2  14  -3   27.30    6.70
   2  14   3   36.90    4.80
  -3 -14  -3   22.10    5.90
  -3 -14  -3   36.30    4.20
   3 -14   3   29.10    7.10
  -3  14  -3   27.70    7.30
   3  14   3   30.70    3.70
  -4 -14  -3   38.50    9.40
   4 -14   3   23.90    7.60
  -4  14  -3   29.40    7.30
   5 -14   3    5.00    5.80
  -5 -14  -3    2.90    4.50
  -5  14  -3   -4.00    3.10
   6 -14   3   20.60    7.80
  -6 -14  -3    8.50    6.00
  -6  14  -3   17.50    6.60
  -5 -15   3    5.00    4.40
   5 -15  -3   13.50    6.30
  -5 -15   3   10.40    4.00
  -5  15   3    9.00    5.10
  -4 -15   3   26.60    8.10
  -4 -15   3   26.20    4.60
   4 -15  -3   38.30    8.80
   3 -15  -3   30.90    7.50
  -3 -15   3   36.30    7.80
  -3  15   3   30.80    7.10
  -2 -15   3   51.99    9.10
  -2 -15   3   41.20    7.10
   2 -15  -3   48.00    8.80
  -2  15   3   52.79    9.20
  -1 -15   3   29.40    6.90
   1 -15  -3   27.70    5.80
  -1 -15   3   29.60    6.50
  -1  15   3   32.90    6.80
   0 -15  -3   23.50    6.30
   0 -15   3   27.80    6.60
   0 -15  -3   37.50    8.30
   0  15  -3   41.70    8.10
  -1 -15  -3   33.00    7.10
   1 -15   3   44.90    8.30
  -1 -15  -3   48.70    7.40
  -1  15  -3   39.20    7.60
   2 -15   3   83.39   11.60
  -2 -15  -3   90.39   12.20
  -2 -15  -3   83.19    6.80
   2  15   3   87.09    6.90
  -2  15  -3   73.69   10.60
  -3 -15  -3    4.80    2.50
  -3 -15  -3    4.40    4.00
   3 -15   3    2.20    3.10
  -3  15  -3    4.20    3.90
   3  15   3    6.20    2.60
   4 -15   3   -0.70    4.10
  -4 -15  -3    3.70    4.20
  -4  15  -3    0.60    4.00
   5 -15   3   12.80    5.70
  -5 -15  -3    5.00    4.30
  -5  15  -3   -1.50    3.90
  -5 -16   3   56.99    7.00
  -5 -16   3   58.69   11.20
   5 -16  -3   41.50    9.50
  -5  16   3   32.10    7.60
  -4 -16   3   -1.50    3.80
   4 -16  -3   -2.80    4.30
  -4 -16   3    2.50    3.90
  -4  16   3   -0.60    3.80
  -3 -16   3   29.50    5.60
  -3 -16   3   26.20    7.60
   3 -16  -3   25.20    7.30
   2 -16  -3   42.00    7.90
  -2 -16   3   38.90    8.50
  -2  16   3   41.60    8.10
   1 -16  -3    1.90    3.80
  -1 -16   3    4.80    4.40
  -1 -16   3    3.20    4.70
  -1  16   3   -2.10    2.80
   0 -16  -3  188.68   12.80
   0 -16   3  211.68   14.10
   0 -16  -3  184.18   14.80
   0  16  -3  183.78   14.00
   1 -16   3   54.89    9.10
  -1 -16  -3   60.19    8.20
  -1 -16  -3   70.39   10.90
  -1  16  -3   57.49    9.50
   2 -16   3    1.00    3.90
  -2 -16  -3    6.20    3.50
  -2 -16  -3   -2.30    2.90
   2  16   3    5.00    3.50
  -2  16  -3   10.60    4.40
  -3 -16  -3   45.70   10.20
   3 -16   3   55.19   10.30
  -3 -16  -3   49.40    5.40
   3  16   3   47.00    5.00
  -3  16  -3   47.00    8.70
   4 -16   3   33.20    8.80
  -4 -16  -3   23.70    7.70
  -4  16  -3   25.40    7.10
   5 -16   3   -8.50    5.70
  -5 -16  -3  -11.90    4.00
  -5  16  -3   -1.40    4.70
  -4 -17   3   -1.10    3.90
  -4 -17   3   -5.30    4.20
   4 -17  -3    0.90    4.80
  -4  17   3   -4.60    3.40
   3 -17  -3   28.40    8.40
  -3 -17   3   27.70    7.30
  -3 -17   3   25.90    6.10
  -3  17   3   28.20    6.90
  -2 -17   3   11.50    5.40
  -2 -17   3    8.10    5.60
   2 -17  -3   13.10    5.10
  -2  17   3   23.20    6.10
  -1 -17   3   77.99   15.10
  -1 -17   3   50.79    8.80
   1 -17  -3   67.49    9.90
   0 -17  -3    6.60    4.40
   0 -17   3    0.40    4.10
  -1 -17  -3   81.49    8.60
  -1 -17  -3   83.69   12.00
   1 -17   3   81.69   11.60
  -1  17  -3   64.09   10.10
  -2 -17  -3   -0.50    3.60
  -2 -17  -3    2.20    3.80
  -2  17  -3    2.50    2.90
   3 -17   3   32.00    8.00
  -3 -17  -3   33.50    4.70
  -3 -17  -3   34.10    8.10
  -3  17  -3   26.10    6.70
   4 -17   3   -3.30    4.60
  -4 -17  -3    0.60    5.60
  -4  17  -3   -1.00    4.50
   3 -18  -3   72.29   12.90
  -3 -18   3   77.09   12.10
  -3 -18   3   60.99    8.90
  -3  18   3   53.29    9.20
  -2 -18   3   28.40    7.60
  -2 -18   3   40.10    7.50
  -2  18   3   33.00    7.60
   1 -18  -3   -1.20    3.70
  -1 -18   3   -0.20    4.00
  -1 -18   3   -1.00    4.10
   1  18  -3    1.00    3.50
  -1  18   3    1.00    3.80
   0 -18   3    9.10    4.40
   0 -18  -3   17.60    5.50
   0  18  -3   13.00    5.60
   0  18   3   17.60    5.20
  -1 -18  -3   61.29    8.40
   1 -18   3   53.39   13.70
  -1 -18  -3   73.69   10.60
  -1  18  -3   51.89    9.00
   2 -18   3   -1.20    4.60
  -2 -18  -3   -3.60    3.70
  -2  18  -3    4.80    4.40
  -3 -18  -3   65.99    6.80
   3 -18   3   59.99   11.50
  -3 -18  -3   76.99   12.60
  -3  18  -3   68.89   12.40
  -2 -19   3   10.40    5.10
  -2 -19   3    5.10    4.50
   2 -19  -3    0.60    4.30
  -2  19   3    1.40    4.10
   1 -19  -3   31.90    8.00
  -1 -19   3   45.70    9.00
  -1  19   3   36.00    8.90
   1  19  -3   47.30   11.00
   0 -19  -3   -7.50    4.10
   0  19   3   -4.50    3.60
   0  19  -3    0.60    4.30
  -1 -19  -3   -4.70    3.70
  -1 -19  -3    6.50    4.80
   1 -19   3    4.50    5.70
  -1  19  -3    6.40    4.70
   2 -19   3   94.69   12.90
  -2 -19  -3   94.09   13.70
  -2 -19  -3   98.19   10.70
  -2  19  -3  136.89   14.40
  -8   0   4   96.79   12.60
  -8   0   4   89.99   10.60
  -7   0   4   -1.40    2.80
  -7   0   4    2.00    2.50
  -6   0   4  200.38   11.00
  -6   0   4  178.98   11.20
  -5   0   4    2.50    2.90
  -5   0   4    2.40    2.00
  -5   0   4    2.40    1.80
  -4   0   4  103.79    6.70
   4   0  -4   94.29    6.40
  -4   0   4   93.19    6.50
  -3   0   4    0.30    0.90
   3   0  -4    0.30    1.00
  -3   0   4    0.40    1.60
  -3   0   4    0.30    1.00
  -2   0   4  545.65   13.30
  -2   0   4  538.25   11.50
   2   0  -4  539.55   13.20
   2   0  -4  537.25   12.70
   1   0  -4    1.60    0.50
  -1   0   4    1.50    1.10
  -1   0   4    0.90    0.40
   1   0  -4    2.40    1.00
   0   0   4  402.06    9.20
   0   0   4  414.66    7.20
   0   0  -4  415.36    7.20
   0   0  -4  426.56   10.30
   1   0   4   -0.70    0.50
   1   0   4   -0.40    0.70
  -1   0  -4   -0.10    0.60
  -1   0  -4    0.00    0.80
  -2   0  -4  555.14   12.20
   2   0   4  548.75   14.10
  -2   0  -4  557.84   14.30
  -3   0  -4    2.10    1.70
   3   0   4    0.00    1.50
   3   0   4    1.60    1.30
  -3   0  -4    2.30    1.50
  -4   0  -4  215.78   11.10
  -4   0  -4  217.08    9.00
   4   0   4  214.78    9.50
   5   0   4    1.40    2.10
  -5   0  -4    3.30    2.40
  -5   0  -4    0.70    2.20
  -6   0  -4   35.90    7.20
  -6   0  -4   39.60    5.70
   6   0   4   34.20    5.80
  -7   0  -4   -1.00    2.40
  -7   0  -4    0.90    2.60
  -8   0  -4   -3.90    3.30
  -8   0  -4    1.80    3.90
  -8  -1   4   12.50    4.60
  -8  -1   4   18.60    5.70
  -8   1   4   11.80    5.10
  -8   1   4   30.70    7.20
  -7  -1   4    0.70    2.60
  -7  -1   4    0.70    2.60
  -7   1   4    1.20    2.50
  -7   1   4   -0.40    2.70
  -6  -1   4    3.00    2.50
  -6   1   4    3.40    2.60
  -6   1   4   -0.30    2.30
  -5  -1   4   20.10    4.40
  -5  -1   4   17.70    4.20
  -5  -1   4   15.90    3.70
  -5   1   4   20.20    3.90
  -5   1   4   21.50    4.50
   4  -1  -4 1055.79   24.30
  -4  -1   4 1060.69   24.70
  -4  -1   4 1102.79   24.30
  -4  -1   4 1109.19   27.20
   4   1  -4 1082.79   24.70
  -4   1   4 1092.59   25.20
  -4   1   4 1099.19   24.90
  -4   1   4 1105.59   27.90
   3  -1  -4  239.88    8.60
  -3  -1   4  230.68    8.60
  -3  -1   4  242.78    9.10
  -3   1   4  246.38    8.80
  -3   1   4  241.28   10.90
   3   1  -4  246.68    9.00
   3   1  -4  234.28    8.60
  -3   1   4  240.68    9.40
  -2  -1   4    2.90    0.90
  -2  -1   4    4.00    1.40
   2  -1  -4    6.90    1.50
  -2   1   4    4.60    1.00
   2   1  -4    5.40    1.50
  -2   1   4    4.00    1.70
   2   1  -4    5.30    1.60
  -2   1   4    3.10    1.30
   1  -1  -4  103.69    4.60
   1  -1  -4   96.09    2.80
  -1  -1   4   94.39    4.40
  -1  -1   4   92.09    2.90
  -1   1   4   97.29    2.90
   1   1  -4   87.29    4.20
  -1   1   4   98.29    4.50
   1   1  -4   95.09    2.90
   0  -1   4  336.57    6.60
   0  -1  -4  330.37    6.50
   0  -1  -4  337.57    7.80
   0  -1   4  340.07    8.70
   0   1  -4  347.47    6.70
   0   1   4  326.97    6.50
   0   1  -4  317.67    8.30
   0   1   4  320.87    7.70
  -1  -1  -4  111.59    5.40
  -1  -1  -4  107.49    3.70
   1  -1   4  105.89    4.60
  -1   1  -4  109.99    4.70
   1   1   4  113.39    4.70
  -1   1  -4  109.39    5.40
   1   1   4  106.89    3.80
  -2  -1  -4  143.99    4.80
   2  -1   4  140.59    6.20
  -2  -1  -4  122.99    6.20
   2  -1   4  138.69    6.50
   2   1   4  138.29    5.00
  -2   1  -4  136.99    5.90
  -2   1  -4  135.99    6.50
   2   1   4  142.29    6.60
   3  -1   4  312.77   11.00
   3  -1   4  304.27   11.70
  -3  -1  -4  332.27    9.10
  -3  -1  -4  329.67   12.30
   3   1   4  330.37    9.60
  -3   1  -4  326.77   12.30
   3   1   4  293.77   11.50
  -3   1  -4  322.07   10.60
   4  -1   4   36.20    5.10
  -4  -1  -4   29.60    4.60
  -4  -1  -4   45.90    4.10
   4   1   4   37.20    3.90
  -4   1  -4   39.30    5.10
  -4   1  -4   46.40    6.60
  -5  -1  -4   68.79    5.40
  -5  -1  -4   71.79    7.40
   5  -1   4   67.09    6.50
  -5   1  -4   70.89    8.80
  -5   1  -4   56.89    6.00
   5   1   4   68.99    5.90
   6  -1   4   29.90    5.30
  -6  -1  -4   36.10    5.40
  -6  -1  -4   42.60    8.20
  -6   1  -4   40.60    7.80
   6   1   4   33.50    5.70
  -7  -1  -4    3.80    2.80
   7  -1   4    0.80    3.70
  -7  -1  -4    7.70    3.20
  -7   1  -4    5.10    3.70
  -8  -1  -4   -0.70    3.70
  -8  -1  -4    9.00    4.70
  -8   1  -4   12.50    4.50
  -8   1  -4   15.40    5.90
  -8  -2   4   22.20    5.80
  -8  -2   4   28.80    5.90
  -8   2   4   19.20    5.60
  -8   2   4   30.50    7.00
  -7  -2   4   31.20    6.70
  -7  -2   4   32.70    5.90
  -7   2   4   24.20    5.40
  -7   2   4   41.00    7.50
  -6  -2   4   61.39    6.10
  -6  -2   4   51.99    7.60
  -6   2   4   68.49    7.20
  -6   2   4   62.79    8.20
  -5  -2   4  232.88   12.00
  -5  -2   4  223.48   10.30
  -5  -2   4  239.98   11.80
  -5   2   4  257.27   12.00
  -5   2   4  248.78   11.90
  -4  -2   4   43.70    5.90
  -4  -2   4   37.50    4.60
   4  -2  -4   42.00    4.40
  -4  -2   4   43.10    5.80
  -4   2   4   42.30    5.60
   4   2  -4   34.00    4.80
  -4   2   4   44.80    4.80
  -4   2   4   33.30    5.30
  -3  -2   4  610.44   15.50
   3  -2  -4  597.34   15.20
  -3  -2   4  644.94   15.60
   3   2  -4  623.24   15.50
  -3   2   4  660.53   15.90
  -3   2   4  610.04   16.60
   3   2  -4  622.34   15.50
  -3   2   4  612.74   18.70
   2  -2  -4  544.15   12.00
  -2  -2   4  528.75   12.20
  -2  -2   4  537.05   13.00
  -2   2   4  525.05   12.10
   2   2  -4  543.45   13.10
   2   2  -4  538.25   12.10
  -2   2   4  528.05   13.70
  -2   2   4  532.55   15.60
  -1  -2   4   10.40    1.50
  -1  -2   4    9.50    1.90
   1   2  -4    6.30    1.40
  -1   2   4    9.10    1.30
  -1   2   4    8.50    2.10
  -1   2   4    6.80    1.40
   1   2  -4    8.60    1.40
  -1   2   4   13.60    2.30
   0  -2   4 1795.82   29.50
   0  -2  -4 1790.72   27.70
   0  -2  -4 1866.81   27.50
   0   2  -4 1856.41   29.70
   0   2   4 1851.91   28.00
   0   2   4 1804.72   27.20
   0   2  -4 1801.72   27.30
   0   2  -4 1842.92   28.30
  -1  -2  -4   20.90    1.50
   1  -2   4   22.80    2.30
   1  -2   4   24.80    3.20
  -1  -2  -4   23.30    2.40
  -1   2  -4   18.90    2.50
   1   2   4   20.80    2.20
   1   2   4   23.70    1.60
  -1   2  -4   18.30    2.30
  -2  -2  -4   38.30    3.50
   2  -2   4   45.40    3.80
  -2  -2  -4   42.40    2.10
   2  -2   4   40.90    3.70
  -2   2  -4   48.50    3.90
   2   2   4   44.20    2.40
  -2   2  -4   54.09    4.10
   2   2   4   40.10    3.60
  -3  -2  -4   10.00    2.80
  -3  -2  -4   10.40    1.80
   3  -2   4   14.50    3.50
   3  -2   4   12.30    2.70
   3   2   4   13.90    2.30
  -3   2  -4    9.10    2.50
   3   2   4    7.00    2.70
  -3   2  -4   12.60    3.00
   4  -2   4   96.59    7.20
  -4  -2  -4   78.69    6.90
  -4  -2  -4   84.49    4.80
  -4   2  -4   79.89    6.30
   4   2   4   87.29    5.10
  -4   2  -4   94.29    7.50
  -5  -2  -4    0.50    2.60
   5  -2   4   -0.40    1.80
  -5  -2  -4    2.90    2.00
   5   2   4   -0.50    1.70
  -5   2  -4    1.90    2.70
  -5   2  -4    2.10    2.60
  -6  -2  -4   18.40    4.70
  -6  -2  -4   17.10    3.60
  -6  -2  -4   18.20    3.00
  -6   2  -4   23.60    5.50
  -7  -2  -4  169.48    9.60
   7  -2   4  189.68   13.20
  -7  -2  -4  168.28    8.60
  -7  -2  -4  175.58   13.50
  -7   2  -4  171.68   13.70
  -8  -2  -4    8.30    5.00
  -8  -2  -4    0.60    3.60
  -8   2  -4   -0.50    3.30
  -8   2  -4    8.80    5.00
  -8  -3   4    9.60    6.70
  -8  -3   4    8.30    4.60
  -8   3   4    1.50    4.60
  -8   3   4   -1.00    4.10
  -7  -3   4  140.59    9.40
  -7  -3   4  139.69   11.30
  -7   3   4  132.69   11.00
  -7   3   4  156.48   11.50
  -6  -3   4    2.60    2.30
  -6  -3   4   -2.10    2.00
  -6   3   4    8.70    3.30
  -6   3   4   -0.50    2.40
  -5  -3   4   24.70    4.10
  -5  -3   4   24.80    4.60
  -5  -3   4   22.80    4.50
  -5   3   4   30.70    5.10
  -5   3   4   24.70    6.60
  -4  -3   4   40.00    5.70
  -4  -3   4   47.90    4.30
  -4  -3   4   38.30    5.30
  -4   3   4   51.29    6.50
   4   3  -4   48.20    6.40
  -4   3   4   38.50    5.80
  -4   3   4   42.70    5.60
   4   3  -4   50.89    4.40
  -3  -3   4  301.57   10.50
   3  -3  -4  292.07   13.00
   3  -3  -4  306.77   10.40
  -3  -3   4  290.97    9.80
  -3   3   4  279.67   10.10
  -3   3   4  316.77   13.10
   3   3  -4  301.27   10.50
   3   3  -4  310.57   10.20
  -3   3   4  309.57   11.50
  -2  -3   4    3.70    1.50
   2  -3  -4    3.10    1.30
  -2  -3   4    2.50    1.30
   2  -3  -4    5.10    2.10
  -2   3   4    2.90    1.30
  -2   3   4    3.10    1.40
  -2   3   4    5.10    2.30
   2   3  -4    1.60    1.30
   2   3  -4    3.30    1.30
  -1  -3   4  855.51   16.50
  -1  -3   4  889.61   17.80
  -1   3   4  887.91   19.60
  -1   3   4  863.81   17.60
  -1   3   4  919.01   16.20
   1   3  -4  864.01   17.60
   1   3  -4  876.21   16.40
   0  -3  -4   28.00    2.50
   0  -3   4   28.90    3.50
   0   3  -4   34.40    2.60
   0   3  -4   24.90    2.50
   0   3   4   28.00    2.20
   0   3   4   30.50    2.70
   0   3  -4   29.40    2.80
   1  -3   4    3.40    1.40
  -1  -3  -4    4.30    0.90
   1  -3   4    5.40    1.90
  -1  -3  -4    6.60    1.70
   1   3   4    3.50    0.80
   1   3   4    4.90    1.50
  -1   3  -4    4.00    1.30
  -1   3  -4    4.40    1.50
  -2  -3  -4    2.60    1.30
  -2  -3  -4    4.00    0.50
   2  -3   4    3.50    1.70
   2  -3   4    3.20    1.70
  -2   3  -4    2.40    1.10
   2   3   4    4.10    0.70
   2   3   4    2.10    1.40
  -2   3  -4    3.60    1.80
  -3  -3  -4  224.18    5.20
   3  -3   4  229.18   10.40
   3  -3   4  219.98   11.40
  -3  -3  -4  241.38   10.70
   3   3   4  223.18   11.50
  -3   3  -4  224.68    9.90
  -3   3  -4  240.28   10.70
   3   3   4  220.98    5.80
  -4  -3  -4    3.00    1.10
  -4  -3  -4    6.40    2.50
   4  -3   4    2.70    2.00
  -4  -3  -4    8.50    3.40
  -4   3  -4    7.20    3.00
  -4   3  -4    2.10    2.60
  -5  -3  -4  533.15   20.20
  -5  -3  -4  487.75   12.50
   5  -3   4  505.65   19.20
  -5  -3  -4  497.45   12.00
  -5   3  -4  519.15   20.10
  -6  -3  -4    3.50    3.00
   6  -3   4    4.00    3.30
  -6  -3  -4   -0.30    1.70
  -6  -3  -4    3.20    2.50
  -6   3  -4    2.20    2.60
  -7  -3  -4   -2.40    2.60
  -7  -3  -4    0.30    2.30
   7  -3   4   10.20    5.10
  -7  -3  -4    2.60    3.50
  -7   3  -4    0.00    2.80
  -8  -3  -4    0.40    3.30
  -8  -3  -4   -3.30    3.30
   8  -3   4    3.00    5.20
  -8   3  -4   -3.30    3.80
  -8  -4   4   24.60    8.10
  -8  -4   4   18.90    4.70
  -8   4   4    4.80    8.40
  -8   4   4   13.60    5.30
  -7  -4   4    6.30    3.80
  -7  -4   4    4.10    2.80
  -7   4   4   -5.00    3.30
  -7   4   4   13.10    4.40
  -6  -4   4   50.59    7.80
  -6  -4   4   53.89    5.40
  -6   4   4   47.80    7.10
  -6   4   4   61.89    8.70
  -5  -4   4  795.42   23.60
  -5  -4   4  709.43   21.40
  -5  -4   4  767.72   19.90
  -5   4   4  799.32   23.30
  -5   4   4  750.12   23.30
   4  -4  -4   36.40    6.70
  -4  -4   4   27.20    4.00
  -4  -4   4   25.40    4.50
   4  -4  -4   29.00    4.50
  -4   4   4   24.30    4.50
   4   4  -4   23.30    3.70
   4   4  -4   29.00    4.10
  -3  -4   4  100.79    6.10
   3  -4  -4  115.39    8.30
  -3  -4   4  118.69    6.10
   3  -4  -4  113.19    6.40
   3   4  -4  107.99    6.40
  -3   4   4  108.29    6.40
  -3   4   4  110.59    9.00
   3   4  -4  117.99    6.10
  -2  -4   4 1792.62   31.20
  -2  -4   4 1756.52   31.40
   2  -4  -4 1815.82   36.30
   2  -4  -4 1784.52   30.90
  -2   4   4 1795.42   35.70
   2   4  -4 1809.82   31.30
   2   4  -4 1800.42   31.20
  -2   4   4 1822.22   31.30
  -1  -4   4    1.90    1.20
   1  -4  -4    2.60    1.50
  -1  -4   4    2.20    1.20
  -1   4   4    1.70    1.10
   1   4  -4    4.70    1.70
  -1   4   4    3.10    1.30
   1   4  -4    2.00    1.20
  -1   4   4    1.80    1.20
   0  -4   4   40.10    3.60
   0  -4  -4   41.20    3.20
   0   4  -4   40.10    3.30
   0   4   4   36.40    3.00
   0   4  -4   39.30    3.10
   0   4   4   39.50    3.20
   0   4  -4   43.50    3.50
  -1  -4  -4  915.41   19.60
   1  -4   4  915.71   19.30
   1  -4   4  964.20   21.10
   1   4   4  941.91   15.70
  -1   4  -4  933.91   19.60
  -1   4  -4  928.51   20.30
   1   4   4  952.60   14.90
   1   4   4  924.61   19.50
   2  -4   4   31.60    4.50
   2  -4   4   33.60    5.00
  -2  -4  -4   31.90    4.50
  -2   4  -4   26.10    4.00
   2   4   4   28.10    3.90
  -2   4  -4   29.30    4.40
  -3  -4  -4    4.40    2.40
   3  -4   4    3.20    2.30
   3  -4   4    4.20    2.20
  -3   4  -4    3.30    1.80
  -3   4  -4    4.20    1.90
   3   4   4    7.60    2.80
  -4  -4  -4  237.18    5.40
  -4  -4  -4  233.98    5.20
  -4  -4  -4  249.78   12.40
   4  -4   4  268.27   13.20
  -4   4  -4  234.38   11.70
  -4   4  -4  241.18   12.30
  -5  -4  -4   17.30    4.50
  -5  -4  -4   20.20    2.90
  -5  -4  -4   16.90    2.00
  -5   4  -4   19.00    4.40
  -6  -4  -4   18.30    5.80
  -6  -4  -4   22.20    2.70
  -6  -4  -4   26.30    3.50
   6  -4   4   22.60    6.00
  -6   4  -4   26.10    6.10
   7  -4   4   91.69   11.90
  -7  -4  -4   75.09   10.30
  -7  -4  -4   97.19    5.40
  -7  -4  -4   97.59    6.30
  -7   4  -4  112.49   11.40
   8  -4   4   18.50    6.40
  -8  -4  -4   23.10    3.70
  -8  -4  -4   16.40    6.50
  -8   4  -4   20.60    6.70
  -8  -5   4    8.90    4.10
  -8  -5   4    4.90    4.60
  -8   5   4    6.30    4.20
  -8   5   4   10.10    4.70
  -7  -5   4   39.90    6.60
  -7  -5   4   34.10    6.80
  -7   5   4   41.30    7.40
  -7   5   4   36.40    7.50
  -6  -5   4  193.98   11.50
  -6  -5   4  204.98   10.10
  -6  -5   4  208.48   12.60
  -6   5   4  219.78   13.20
  -6   5   4  222.08   13.10
  -5  -5   4   82.49    7.30
  -5  -5   4   87.19    6.30
   5  -5  -4   68.29    9.40
  -5  -5   4   82.49    7.40
  -5   5   4   72.09    7.20
   4  -5  -4  153.78    8.70
   4  -5  -4  151.68   11.20
  -4  -5   4  160.48    7.70
  -4  -5   4  170.18    9.50
   4   5  -4  155.08    8.90
   4   5  -4  165.88    7.90
  -4   5   4  173.88    9.50
  -3  -5   4    0.80    1.30
   3  -5  -4    0.40    1.70
  -3  -5   4   -0.10    1.50
   3  -5  -4    0.20    1.40
  -3   5   4    0.80    1.30
   3   5  -4    1.80    1.50
  -3   5   4    0.10    1.60
   3   5  -4   -0.70    1.40
  -2  -5   4  239.78    8.80
  -2  -5   4  263.07    9.70
   2  -5  -4  252.97   11.60
   2   5  -4  255.87    8.90
  -2   5   4  262.87   11.40
   2   5  -4  252.57    9.40
  -2   5   4  249.68    9.20
  -2   5   4  255.97   10.10
   1  -5  -4    2.70    1.50
  -1  -5   4    2.70    1.30
  -1  -5   4    3.60    1.70
  -1   5   4    0.30    0.90
   1   5  -4    5.10    1.80
  -1   5   4    4.50    1.80
   1   5  -4    3.80    1.60
  -1   5   4    3.60    1.60
   0  -5  -4   20.20    3.20
   0  -5  -4   21.30    3.10
   0  -5   4   25.10    3.60
   0   5   4   22.10    3.30
   0   5   4   18.40    2.90
   0   5  -4   14.40    2.60
   0   5  -4   16.80    2.80
   0   5  -4   19.90    3.00
  -1  -5  -4  193.38    8.20
   1  -5   4  184.68    7.80
   1  -5   4  187.28    8.70
  -1   5  -4  173.48    8.20
   1   5   4  197.38    5.70
  -1   5  -4  196.08    8.20
   1   5   4  193.08    5.20
   1   5   4  185.48    7.90
  -2  -5  -4  663.63   18.00
   2  -5   4  656.53   19.00
   2  -5   4  665.73   17.60
  -2   5  -4  642.44   18.20
  -2   5  -4  642.44   17.70
   2   5   4  634.64   17.50
   3  -5   4    6.70    2.90
  -3  -5  -4    4.60    2.20
   3  -5   4    5.90    2.30
  -3   5  -4    8.30    2.90
   3   5   4    5.40    2.30
  -3   5  -4    2.40    1.80
  -4  -5  -4   56.09    8.70
   4  -5   4   51.79    7.40
  -4   5  -4   59.89    9.20
  -5  -5  -4    6.90    3.20
   5  -5   4    0.30    2.60
  -5   5  -4    6.40    3.50
  -6  -5  -4  150.88    4.30
  -6  -5  -4  157.08   12.20
   6  -5   4  137.29   11.70
  -6  -5  -4  152.48    4.50
  -6   5  -4  147.19   11.90
   7  -5   4   12.10    4.90
  -7  -5  -4    6.30    1.70
  -8  -5  -4  124.59   12.70
   8  -5   4   98.99   12.80
  -8   5  -4  102.69   13.20
  -8  -6   4  166.88   14.10
  -8  -6   4  153.08   10.30
  -8   6   4  122.49   12.50
  -8   6   4  141.59   12.80
  -7  -6   4    3.70    3.10
  -7  -6   4    5.50    4.00
  -7   6   4    7.60    3.90
  -7   6   4    5.70    4.10
   6  -6  -4   44.50    8.40
  -6  -6   4   52.79    5.40
  -6  -6   4   50.19    8.10
  -6  -6   4   39.20    6.10
  -6   6   4   49.10    7.40
  -6   6   4   48.00    7.70
   5  -6  -4    3.70    3.40
  -5  -6   4    8.60    3.60
  -5  -6   4    4.60    3.20
  -5  -6   4   13.30    3.20
  -5   6   4   10.10    3.70
  -4  -6   4   12.70    3.60
   4  -6  -4   11.60    5.00
   4  -6  -4    1.60    2.30
  -4  -6   4    9.30    2.50
  -4   6   4    5.20    2.60
   4   6  -4    5.80    2.40
   3  -6  -4   14.80    3.90
  -3  -6   4   11.00    3.00
  -3  -6   4   11.00    2.60
   3   6  -4   11.10    2.60
  -3   6   4   11.70    3.80
   3   6  -4   13.10    3.50
  -3   6   4   16.30    3.60
  -2  -6   4  548.45   15.70
   2  -6  -4  527.85   17.90
  -2  -6   4  525.95   14.20
  -2   6   4  533.85   16.10
  -2   6   4  510.85   16.90
  -2   6   4  508.85   14.70
   2   6  -4  504.95   13.80
   2   6  -4  505.25   14.90
   1  -6  -4   12.70    2.80
  -1  -6   4   14.50    3.00
   1  -6  -4   16.50    3.60
  -1  -6   4   16.90    3.30
  -1   6   4   14.60    3.10
   1   6  -4   11.70    2.40
  -1   6   4   13.80    2.80
  -1   6   4   21.50    3.80
   1   6  -4   11.20    2.50
   0  -6   4  472.25   14.70
   0  -6   4  468.65   14.30
   0  -6  -4  481.75   14.20
   0  -6  -4  481.65   13.40
   0   6  -4  466.15   13.80
   0   6  -4  475.45   14.30
   0   6  -4  453.95   13.30
   0   6   4  485.15   13.00
   0   6   4  472.85   13.70
  -1  -6  -4    3.30    1.80
  -1  -6  -4    4.90    1.40
   1  -6   4    6.00    2.40
  -1   6  -4    7.20    2.70
  -1   6  -4    2.30    1.40
  -1   6  -4    4.40    2.00
   1   6   4    4.20    1.30
   1   6   4    4.40    1.90
   2  -6   4  188.58   10.10
  -2  -6  -4  184.58    9.30
  -2   6  -4  177.98    9.50
  -2   6  -4  168.48    8.90
   3  -6   4   10.00    3.40
   3  -6   4    9.50    3.70
  -3  -6  -4   11.60    3.20
  -3   6  -4    7.80    2.90
   3   6   4   10.90    3.60
  -3   6  -4    6.20    3.20
  -4  -6  -4  290.47   14.00
  -4   6  -4  256.47   13.40
   5  -6   4   -0.60    2.30
  -5  -6  -4    5.20    3.10
  -5   6  -4    3.00    2.60
   6  -6   4  104.99   10.60
  -6  -6  -4  119.79   11.00
  -6   6  -4  115.19   10.70
  -7  -6  -4    5.90    3.90
   7  -6   4    4.40    4.30
  -7   6  -4   -5.50    2.70
  -8  -6  -4    1.60    5.10
   8  -6   4    6.60    5.50
  -8   6  -4   14.30    6.30
  -8  -7   4    0.40    3.60
  -8  -7   4    2.10    4.30
  -8   7   4    3.80    4.70
  -8   7   4   -8.60    3.50
  -7  -7   4   78.39   10.60
  -7  -7   4   83.59    7.20
  -7   7   4   90.39   12.00
  -7   7   4   98.29   10.30
  -6  -7   4   49.60    4.90
   6  -7  -4   44.50    9.30
  -6  -7   4   42.10    7.00
  -6  -7   4   51.79    8.40
  -6   7   4   53.99    8.40
  -5  -7   4  134.19    9.80
   5  -7  -4  106.29   10.90
  -5  -7   4  141.49    7.80
   5   7  -4  126.79    8.70
  -5   7   4  134.49    9.90
  -4  -7   4  245.28    9.80
   4  -7  -4  232.08   14.30
  -4  -7   4  248.68   12.30
  -4   7   4  241.38   11.90
   4   7  -4  219.18    9.40
  -3  -7   4  179.48    8.10
   3  -7  -4  159.98    8.90
  -3  -7   4  156.28    9.10
   3  -7  -4  187.98   11.80
  -3   7   4  173.18   10.20
  -3   7   4  167.98    9.20
   3   7  -4  162.38    7.80
   3   7  -4  165.48    9.20
  -2  -7   4   25.80    4.60
  -2  -7   4   23.80    3.90
   2  -7  -4   18.00    4.00
  -2   7   4   18.50    4.00
  -2   7   4   20.90    3.70
   2   7  -4   23.30    3.60
  -2   7   4   14.90    4.10
   2   7  -4   25.00    4.10
  -1  -7   4  762.72   19.20
   1  -7  -4  759.72   20.80
  -1  -7   4  738.93   20.00
   1  -7  -4  767.02   20.70
   1   7  -4  755.12   18.50
  -1   7   4  758.62   20.20
  -1   7   4  761.62   19.80
   1   7  -4  763.22   19.60
   0  -7  -4  135.89    7.10
   0  -7   4  152.68    8.50
   0  -7  -4  143.89    7.90
   0  -7   4  125.19    7.60
   0   7  -4  130.19    7.70
   0   7  -4  123.99    7.10
   0   7  -4  148.89    7.60
   0   7   4  124.89    7.20
   0   7   4  141.09    7.00
  -1  -7  -4   23.00    4.10
   1  -7   4   27.30    4.80
   1   7   4   24.10    3.80
   1   7   4   25.40    2.60
  -1   7  -4   27.20    4.70
  -1   7  -4   19.70    3.40
  -2  -7  -4   76.29    6.30
   2  -7   4   70.89    6.70
   2  -7   4   67.09    5.90
   2   7   4   77.39    2.30
   2   7   4   66.59    5.80
  -2   7  -4   64.79    6.10
   2   7   4   77.59    2.30
  -2   7  -4   72.19    6.10
   3  -7   4  378.96   16.50
  -3  -7  -4  352.66   14.90
  -3   7  -4  369.16   15.10
  -4  -7  -4   58.09    8.00
   4  -7   4   51.89    8.10
  -4   7  -4   61.79    8.40
   5  -7   4   74.89   10.80
  -5  -7  -4   87.39   11.10
  -5   7  -4   61.79    8.60
  -6  -7  -4   19.00    5.30
   6  -7   4    3.70    4.10
  -6   7  -4    2.50    3.10
  -7  -7  -4   16.70    5.70
   7  -7   4   11.20    6.10
  -7   7  -4   11.80    5.20
  -8  -7  -4   31.50    8.40
   8  -7   4   61.69   11.10
  -8   7  -4   42.40    9.20
  -8  -8   4    7.80    5.50
  -8   8   4   16.90    6.50
  -8   8   4    9.80    4.70
  -7  -8   4   12.30    3.70
  -7  -8   4   11.70    4.70
  -7   8   4   14.50    5.30
  -7   8   4   16.90    6.30
  -6  -8   4  100.19    9.70
  -6  -8   4   92.89    6.80
   6  -8  -4   74.59   10.50
  -6  -8   4   85.59    9.00
  -6   8   4   98.39    9.90
  -5  -8   4  120.09    9.50
  -5  -8   4  111.59    7.00
   5  -8  -4  118.19   11.60
   5   8  -4  111.89    7.70
  -5   8   4  120.89    9.90
  -4  -8   4   22.60    5.20
  -4  -8   4   20.20    3.80
   4  -8  -4   27.30    6.30
  -4   8   4   21.40    4.40
   4   8  -4   23.90    4.00
  -3  -8   4   88.99    7.20
   3  -8  -4   73.99    7.90
  -3  -8   4   83.89    5.90
  -3   8   4   69.19    7.20
   3   8  -4   69.89    5.10
  -3   8   4   77.29    6.70
  -2  -8   4   70.39    6.40
   2  -8  -4   70.39    6.80
  -2  -8   4   75.59    5.60
   2   8  -4   80.89    6.50
  -2   8   4   68.99    6.00
  -2   8   4   76.09    6.90
  -2   8   4   79.79    6.30
   2   8  -4   74.49    5.30
  -1  -8   4   32.00    5.40
   1  -8  -4   28.00    4.60
  -1  -8   4   45.50    5.70
   1  -8  -4   45.80    6.50
   1   8  -4   47.80    7.00
  -1   8   4   34.60    4.90
   1   8  -4   38.70    5.00
   0  -8  -4    6.50    2.60
   0  -8   4   13.60    3.30
   0  -8   4    7.80    2.60
   0  -8  -4    8.00    2.80
   0   8   4   14.10    3.10
   0   8  -4    5.00    1.90
   0   8  -4    8.10    3.20
   1  -8   4  241.98   11.80
  -1  -8  -4  225.08   10.90
  -1  -8  -4  221.08    8.20
  -1   8  -4  234.78   11.40
   1   8   4  231.78    8.00
  -1   8  -4  225.08   10.80
  -1   8  -4  229.38   10.60
   1   8   4  214.38   10.20
  -2  -8  -4   21.00    4.30
   2  -8   4   26.30    5.20
   2   8   4   21.30    1.70
  -2   8  -4   23.40    5.40
   2   8   4   19.00    3.70
  -2   8  -4   23.20    4.60
  -3  -8  -4  431.36   17.20
   3  -8   4  418.36   18.30
  -3   8  -4  431.46   17.00
   4  -8   4    7.70    3.50
  -4  -8  -4    8.40    3.70
  -4   8  -4    8.90    4.10
   5  -8   4   37.50    7.70
  -5  -8  -4   34.90    6.50
  -5   8  -4   40.80    7.80
  -6  -8  -4   10.90    4.90
   6  -8   4    6.40    5.00
  -6   8  -4   12.60    4.70
  -7  -8  -4   21.80    6.30
  -7   8  -4   44.20    7.90
   7  -9  -4   67.09   12.20
  -7  -9   4   89.39   16.50
  -7  -9   4   79.29    6.60
  -7   9   4   96.39   13.10
  -6  -9   4    2.30    3.10
  -6  -9   4   -1.20    2.70
   6  -9  -4   -0.80    2.70
  -6  -9   4    2.40    4.10
  -6   9   4   -2.20    2.90
  -5  -9   4   64.69    5.60
  -5  -9   4   66.39    9.40
   5  -9  -4   48.10    8.30
  -5   9   4   66.89    9.30
   5   9  -4   53.99    5.50
  -4  -9   4    2.10    2.20
   4  -9  -4    0.90    2.50
  -4  -9   4    3.00    2.60
  -4   9   4    2.90    2.70
   4   9  -4    2.00    2.50
   3  -9  -4   96.79    8.80
  -3  -9   4   98.89    6.80
  -3  -9   4  100.69    8.00
  -3   9   4  100.59    7.90
   3   9  -4  104.59    6.60
  -2  -9   4   18.00    4.20
  -2  -9   4   20.80    4.00
   2  -9  -4   16.40    4.70
  -2   9   4   15.90    4.10
   2   9  -4   13.10    3.20
   2   9  -4   15.00    4.60
  -2   9   4   14.60    3.50
   1  -9  -4   54.39    5.60
  -1  -9   4   56.59    7.30
  -1  -9   4   56.49    5.50
   1  -9  -4   62.19    6.60
   1   9  -4   53.79    6.40
  -1   9   4   61.79    5.90
  -1   9   4   55.09    5.30
   1   9  -4   56.09    7.00
  -1   9   4   47.00    6.00
   0  -9   4   64.19    6.10
   0  -9  -4   56.99    5.80
   0  -9  -4   55.79    5.10
   0  -9   4   72.89    8.90
   0   9   4   56.79    6.90
   0   9  -4   50.99    5.00
   0   9  -4   49.80    6.70
   0   9  -4   50.79    5.40
   0   9   4   44.70    4.70
   1  -9   4  165.48   10.10
  -1  -9  -4  169.48    7.70
  -1  -9  -4  161.18    9.80
  -1   9  -4  162.78    9.60
  -1   9  -4  170.88    9.60
   1   9   4  159.78    7.20
   1   9   4  155.58    9.20
  -1   9  -4  154.18    9.80
   2  -9   4   25.40    5.40
  -2  -9  -4   32.10    6.10
  -2  -9  -4   22.40    2.40
   2   9   4   24.10    2.50
  -2   9  -4   34.30    6.10
   3  -9   4  190.08   12.40
  -3  -9  -4  173.38   11.20
  -3   9  -4  169.28   10.70
   4  -9   4   39.10    7.80
  -4  -9  -4   49.00    8.60
  -4   9  -4   38.10    6.90
   5  -9   4  132.49   12.10
  -5  -9  -4  110.59   10.70
  -5   9  -4  108.89   10.20
   6  -9   4    2.70    3.90
  -6  -9  -4    3.70    3.30
  -6   9  -4    6.80    4.00
  -7  -9  -4   -0.70    4.30
   7  -9   4   11.20    5.90
  -7   9  -4    3.30    4.70
  -7 -10   4    4.40    4.60
   7 -10  -4    8.90    5.90
  -7 -10   4    2.60    3.50
  -7  10   4    1.90    4.10
  -6 -10   4   43.90    7.00
  -6 -10   4   44.10    7.30
   6 -10  -4   27.60    7.20
  -6 -10   4   37.50    5.40
  -6  10   4   24.20    6.50
  -5 -10   4   43.30    5.40
   5 -10  -4   32.70    7.20
  -5 -10   4   34.30    6.40
   5  10  -4   33.70    4.60
  -5  10   4   37.70    6.60
   4 -10  -4   53.89   10.00
  -4 -10   4   21.70    4.10
  -4 -10   4   26.70    6.10
  -4  10   4   21.80    4.90
   4  10  -4   26.80    4.50
  -3 -10   4   84.89   10.10
   3 -10  -4   51.19    7.80
  -3 -10   4   81.09    6.50
   3  10  -4   77.09    6.00
  -3  10   4   71.59    7.40
  -2 -10   4  221.58   10.50
   2 -10  -4  209.38   12.70
  -2 -10   4  219.18   12.30
  -2  10   4  194.68   11.10
   2  10  -4  218.08    9.90
   1 -10  -4   82.09    7.80
  -1 -10   4   81.39    7.40
   1 -10  -4   82.89    7.40
  -1 -10   4   73.89    6.60
  -1  10   4   72.89    6.50
  -1  10   4   65.29    6.20
   1  10  -4   68.29    6.00
   0 -10   4   63.79    8.30
   0 -10   4   67.69    9.20
   0 -10  -4   67.59    6.60
   0 -10  -4   52.79    5.30
   0  10  -4   59.19    6.20
   0  10  -4   46.70    6.10
   0  10   4   50.79    5.10
   1 -10   4   89.99    7.90
  -1 -10  -4  114.59    8.80
  -1 -10  -4  114.09    6.80
   1  10   4  101.99    6.10
  -1  10  -4  115.49    8.40
  -2 -10  -4    6.70    2.30
  -2 -10  -4    3.30    2.30
   2 -10   4    7.50    3.40
   2  10   4    3.90    1.60
  -2  10  -4    4.90    2.60
  -3 -10  -4  310.47   15.40
   3 -10   4  275.27   15.80
  -3  10  -4  271.77   14.40
  -4 -10  -4  131.79   11.10
   4 -10   4  117.89   11.40
  -4  10  -4  133.59   10.90
   5 -10   4   14.50    5.50
  -5 -10  -4   30.50    7.30
  -5  10  -4   21.70    5.30
  -6 -10  -4    3.10    3.90
   6 -10   4   -0.20    4.80
  -6  10  -4    2.90    3.80
  -7 -10  -4   34.30    8.10
   7 -10   4   28.60    7.80
  -7  10  -4   15.90    6.50
  -7 -11   4   21.50    6.80
  -7 -11   4   26.30    5.00
   7 -11  -4   18.00    6.70
  -7  11   4   25.00    7.60
   6 -11  -4    3.30    4.00
  -6 -11   4    5.50    5.20
  -6 -11   4    4.60    3.40
  -6 -11   4    7.80    4.50
  -6  11   4   10.40    4.90
  -5 -11   4   -1.10    3.10
   5 -11  -4    0.70    3.30
  -5 -11   4    7.10    2.90
   5  11  -4   -4.00    3.00
  -5  11   4    0.50    2.70
  -4 -11   4  353.46   13.60
   4 -11  -4  365.66   20.20
  -4 -11   4  370.86   17.80
   4  11  -4  356.56   13.20
  -4  11   4  382.16   17.70
  -3 -11   4   19.00    4.30
  -3 -11   4   14.90    4.30
   3 -11  -4   16.90    4.70
   3  11  -4   16.50    3.70
  -3  11   4   19.20    4.80
  -2 -11   4   43.90    6.50
   2 -11  -4   36.60    7.20
  -2 -11   4   48.60    7.80
  -2  11   4   39.60    6.40
   2  11  -4   42.40    5.90
  -1 -11   4   20.60    5.10
   1 -11  -4   14.60    4.00
  -1 -11   4   28.90    5.30
  -1  11   4   19.60    4.00
   1  11  -4   14.00    4.00
   0 -11  -4  221.68   11.20
   0 -11  -4  200.78   12.40
   0 -11   4  240.78   12.60
   0  11  -4  225.18   12.30
   0  11   4  212.68   10.60
   1 -11   4   11.10    4.00
  -1 -11  -4    6.90    3.40
  -1 -11  -4   12.00    3.20
   1  11   4   13.30    3.10
  -1  11  -4    7.40    2.80
  -2 -11  -4  139.79    6.70
  -2 -11  -4  152.58   10.90
   2 -11   4  154.48   11.50
  -2  11  -4  153.68   10.70
   2  11   4  139.19    6.10
  -3 -11  -4    9.90    3.60
   3 -11   4   12.40    4.70
  -3  11  -4    5.10    2.80
   4 -11   4   -1.10    3.20
  -4 -11  -4    0.10    3.30
  -4  11  -4    2.20    2.90
   5 -11   4    1.20    3.60
  -5 -11  -4   -1.00    2.90
  -5  11  -4    2.10    2.50
  -6 -11  -4   64.89   10.90
   6 -11   4   49.20    9.30
  -6  11  -4   63.69   10.40
  -7 -11  -4    0.40    4.80
   7 -11   4    2.20    5.60
  -7  11  -4   -2.40    4.00
  -7 -12   4    6.00    5.40
   7 -12  -4   -5.10    5.80
  -7 -12   4    6.50    3.90
  -7  12   4    1.60    5.10
  -6 -12   4    5.00    4.70
   6 -12  -4   10.70    4.60
  -6 -12   4    8.90    3.50
  -6  12   4   11.50    5.30
   5 -12  -4   22.90    7.40
  -5 -12   4   13.90    3.80
  -5 -12   4   17.00    5.50
   5  12  -4   14.40    4.00
  -5  12   4   19.40    6.00
  -4 -12   4    1.40    2.30
   4 -12  -4    3.80    3.20
  -4 -12   4   -1.10    2.90
   4  12  -4    7.00    2.90
  -4  12   4    8.10    3.00
  -3 -12   4   87.39    9.10
  -3 -12   4   85.49    7.20
   3 -12  -4   74.69   11.00
   3  12  -4   77.59    6.70
  -3  12   4   92.99    9.00
  -2 -12   4   15.60    4.10
  -2 -12   4   23.90    5.70
   2 -12  -4   24.60    5.80
  -2  12   4   28.50    6.00
  -1 -12   4    1.00    2.20
   1 -12  -4    3.90    3.00
  -1 -12   4    2.10    2.30
  -1  12   4   -2.10    1.70
   0 -12   4  247.78   13.70
   0 -12  -4  264.77   13.10
   0 -12  -4  259.97   14.50
   0  12  -4  279.67   14.40
   0  12   4  224.98   11.50
  -1 -12  -4  274.87   12.00
   1 -12   4  300.37   15.70
  -1 -12  -4  268.77   14.90
  -1  12  -4  265.27   14.20
   1  12   4  269.37   11.00
   2 -12   4   10.00    4.30
  -2 -12  -4   13.40    2.80
  -2 -12  -4   10.00    4.40
   2  12   4   13.40    2.80
  -2  12  -4   10.40    3.50
   3 -12   4   27.10    7.00
  -3 -12  -4   19.10    5.80
   3  12   4   24.90    1.70
  -3  12  -4   19.90    5.30
   3  12   4   24.10    1.60
   4 -12   4  175.88   14.30
  -4 -12  -4  173.78   13.40
  -4  12  -4  182.28   13.30
  -5 -12  -4   -0.70    3.40
   5 -12   4    2.10    4.70
  -5  12  -4   -2.80    3.00
  -6 -12  -4   55.19    9.20
   6 -12   4   43.70    9.90
  -6  12  -4   70.79   11.70
  -6 -13   4   24.30    5.00
  -6 -13   4   21.40    6.40
   6 -13  -4   17.30    6.90
  -6  13   4   14.60    5.90
  -5 -13   4   16.30    5.20
   5 -13  -4   15.30    5.50
  -5 -13   4   19.80    4.40
  -5  13   4   13.30    5.00
   5  13  -4    6.40    4.30
  -4 -13   4   88.19    7.70
   4 -13  -4  108.39   11.20
  -4 -13   4  105.09   10.70
  -4  13   4   82.19   10.60
   3 -13  -4    7.00    4.50
  -3 -13   4    6.60    3.20
  -3 -13   4    8.70    4.30
  -3  13   4   14.30    4.70
  -2 -13   4   17.30    4.70
   2 -13  -4    4.80    4.00
  -2 -13   4   14.50    4.70
  -2  13   4   15.10    4.60
  -1 -13   4  129.49    9.70
   1 -13  -4  127.89   10.20
  -1 -13   4  110.59   10.30
  -1  13   4  127.69   10.30
   0 -13  -4   29.90    5.60
   0 -13  -4   27.80    6.30
   0 -13   4   21.40    5.30
   0  13  -4   37.30    7.20
  -1 -13  -4   43.70    8.10
   1 -13   4   41.80    7.90
  -1 -13  -4   47.60    6.40
  -1  13  -4   41.30    7.30
   1  13   4   33.90    5.00
  -2 -13  -4   73.49    5.50
  -2 -13  -4   84.79   11.50
   2 -13   4   65.39   10.20
  -2  13  -4   66.99    9.70
   2  13   4   64.89    5.10
  -3 -13  -4   15.40    5.20
   3 -13   4   20.00    6.00
   3  13   4   14.90    1.90
  -3  13  -4   16.00    4.50
  -4 -13  -4    4.70    3.80
   4 -13   4    3.80    4.00
  -4  13  -4    0.10    2.80
  -5 -13  -4   39.80    8.80
   5 -13   4   51.39   10.90
  -5  13  -4   46.40    8.20
  -6 -13  -4   21.70    6.70
   6 -13   4   23.10    7.30
  -6  13  -4   25.40    7.00
  -6 -14   4   10.30    5.90
   6 -14  -4   19.50    7.00
  -6 -14   4   18.50    5.40
  -6  14   4   21.80    7.10
  -5 -14   4  154.28   13.90
   5 -14  -4  163.78   15.60
  -5 -14   4  138.19    9.10
  -5  14   4  139.79   13.00
  -4 -14   4   13.00    5.60
   4 -14  -4   13.60    5.50
  -4 -14   4   12.20    3.80
  -4  14   4   14.80    5.50
  -3 -14   4   53.29    8.40
   3 -14  -4   70.09   11.60
  -3  14   4   78.69   11.30
   2 -14  -4   23.00    6.70
  -2 -14   4   16.10    4.40
  -2 -14   4   11.80    4.80
  -2  14   4   28.70    6.80
  -1 -14   4   44.50    7.70
  -1 -14   4   49.40    9.30
   1 -14  -4   37.30    7.30
  -1  14   4   56.19    9.10
   0 -14  -4   -1.00    2.20
   0 -14  -4   -1.70    2.50
   0 -14   4    1.90    2.60
   0  14  -4   -1.10    2.40
   1 -14   4  265.27   16.00
  -1 -14  -4  278.57   13.20
  -1 -14  -4  318.57   17.50
   1  14   4  273.37   12.20
  -1  14  -4  278.17   15.70
   2 -14   4    2.00    3.30
  -2 -14  -4    4.00    3.80
  -2 -14  -4    4.70    2.70
   2  14   4   -1.20    2.10
  -2  14  -4    4.00    4.00
  -3 -14  -4   34.80    6.80
   3 -14   4   44.10    8.50
  -3  14  -4   30.40    6.20
   3  14   4   37.30    3.90
  -5 -14  -4    6.00    4.60
   5 -14   4    1.10    4.90
  -5  14  -4   -2.30    3.10
   6 -14   4   -1.90    5.30
  -6 -14  -4   -3.60    4.50
  -6  14  -4    5.40    5.20
  -5 -15   4    2.30    3.80
   5 -15  -4  -15.20    4.90
  -5 -15   4  -11.50    3.70
  -5  15   4    3.40    4.60
  -4 -15   4    3.60    6.30
  -4 -15   4   -1.10    4.20
   4 -15  -4    3.50    4.40
  -4  15   4    9.40    6.40
  -3 -15   4    6.50    3.50
  -3 -15   4   11.20    4.20
   3 -15  -4   17.10    5.80
  -3  15   4   13.50    5.30
  -2 -15   4    0.70    3.80
  -2 -15   4    2.60    3.40
   2 -15  -4   10.00    4.90
  -2  15   4    0.00    3.00
   1 -15  -4   95.79   12.00
  -1 -15   4  106.99   10.80
  -1 -15   4   96.59    9.30
  -1  15   4   93.79    9.60
   0 -15   4   70.39   10.20
   0 -15  -4   71.59   11.20
   0 -15  -4   62.19    8.30
   0  15  -4   64.99   10.20
  -1 -15  -4   18.40    4.30
  -1 -15  -4   26.30    6.90
   1 -15   4   16.50    4.40
  -1  15  -4   24.80    5.80
  -2 -15  -4   28.40    5.00
  -2 -15  -4   42.10    8.30
   2 -15   4   37.60    8.70
   2  15   4   40.40    5.60
  -2  15  -4   21.00    5.60
  -3 -15  -4   24.70    7.30
   3 -15   4   18.30    6.40
   3  15   4   26.10    3.20
  -3  15  -4   16.60    5.60
  -4 -15  -4   -0.10    3.80
   4 -15   4   -0.60    3.90
  -4  15  -4    6.00    4.20
   5 -15   4   60.39   11.60
  -5 -15  -4   63.99   10.30
  -5  15  -4   49.90    9.40
  -5 -16   4   18.90    7.30
   5 -16  -4   12.00    7.10
  -5 -16   4   17.70    6.00
  -5  16   4    1.10    3.40
  -4 -16   4   -6.20    3.50
   4 -16  -4    2.50    5.10
  -4 -16   4    8.30    4.50
  -4  16   4    0.90    3.90
   3 -16  -4   66.49   11.10
  -3 -16   4   72.79    9.40
  -3 -16   4   65.99   12.20
  -2 -16   4   39.70    7.10
   2 -16  -4   41.30    8.00
  -2 -16   4   46.00    9.00
  -2  16   4   45.80    8.80
  -1 -16   4   23.80    6.50
   1 -16  -4   25.30    6.50
  -1 -16   4   29.00    7.00
  -1  16   4   24.90    6.20
   0 -16   4   48.90    8.90
   0 -16  -4   27.60    6.20
   0 -16  -4   19.90    6.30
   0  16  -4   32.00    6.40
   1 -16   4   54.79    8.80
  -1 -16  -4   37.70    8.50
  -1  16  -4   47.80    8.80
   2 -16   4   14.40    5.90
  -2 -16  -4   19.80    4.30
  -2 -16  -4   12.90    6.10
   2  16   4   17.40    4.30
  -2  16  -4   10.60    5.70
   3 -16   4   40.70    9.30
  -3 -16  -4   23.40    6.90
   3  16   4   32.30    3.70
  -3  16  -4   13.50    4.70
  -4 -16  -4   75.99   12.20
   4 -16   4   49.40   10.50
  -4  16  -4   61.59   10.40
  -5 -16  -4   -5.30    5.50
   5 -16   4   -0.90    5.10
  -5  16  -4   -0.80    5.00
  -4 -17   4   41.40    6.90
  -4 -17   4   23.20    6.40
   4 -17  -4   32.20    8.70
  -4  17   4   42.70    9.40
   3 -17  -4   17.60    6.80
  -3 -17   4   10.90    5.40
  -3 -17   4    6.20    4.70
  -3  17   4   13.50    5.80
   2 -17  -4   -0.30    3.90
  -2 -17   4    3.00    3.80
  -2 -17   4    8.40    5.10
  -2  17   4    0.60    3.70
  -1 -17   4    2.70    3.40
   1 -17  -4   -1.90    3.60
  -1 -17   4   -1.50    3.40
  -1  17   4   -2.30    4.00
   1  17  -4    2.00    4.70
   0 -17  -4  169.58   12.50
   0 -17   4  191.88   14.40
   0  17   4  234.28   30.60
   0  17  -4  183.88   23.50
   1 -17   4    2.80    4.00
  -1 -17  -4    6.10    3.60
  -1 -17  -4    9.80    4.90
  -1  17  -4   10.80    5.50
  -2 -17  -4   90.29    8.10
   2 -17   4   95.69   13.20
  -2 -17  -4  111.49   14.10
  -2  17  -4   83.59   12.00
   3 -17   4    0.20    4.50
  -3 -17  -4    1.90    4.30
  -3  17  -4   -0.30    4.60
   4 -17   4   13.90    6.70
  -4 -17  -4   13.30    6.30
  -4  17  -4    6.40    5.30
  -3 -18   4    0.00    4.70
  -3 -18   4   -3.30    4.20
   3 -18  -4    1.00    4.80
  -3  18   4    0.00    4.00
  -2 -18   4   60.19   11.60
  -2 -18   4  101.69   12.40
  -2  18   4   70.49   10.80
   1 -18  -4   20.10    5.60
  -1 -18   4   47.50    8.80
  -1  18   4   40.10    8.90
   1  18  -4   55.99   10.90
   0 -18  -4    5.20    3.90
   0 -18   4    5.60    4.70
   0  18  -4   10.70    5.60
   0  18   4    6.70    5.00
   1 -18   4   51.19    9.00
  -1 -18  -4   43.60    8.90
  -1 -18  -4   53.99    8.70
  -1  18  -4   65.69   11.40
  -2 -18  -4   13.20    6.40
  -2 -18  -4   10.30    4.30
   2 -18   4   14.80    5.90
  -2  18  -4   14.10    5.40
   3 -18   4   19.60    8.00
  -3 -18  -4   12.30    6.10
   3  18   4    8.90    3.70
  -3  18  -4   20.10    6.90
   2 -19  -4    5.50    5.20
  -2 -19   4    1.30    5.20
  -2 -19   4    3.80    5.00
  -2  19   4    3.60    5.30
  -1 -19   4   37.30    8.60
   1 -19  -4   42.50    9.00
   1  19  -4   26.50    7.00
  -1  19   4   54.09   10.40
   0 -19  -4   10.10    5.70
   0 -19   4   17.80    6.10
   0  19   4    3.90    4.70
   0  19  -4    7.80    5.60
  -1 -19  -4   14.70    5.40
   1 -19   4   12.20    7.30
  -1 -19  -4    2.50    4.50
  -1  19  -4    3.20    4.40
  -2 -19  -4    6.20    5.70
   2 -19   4    7.20    5.70
  -2 -19  -4    4.90    6.10
  -2  19  -4    7.60    5.40
  -8   0   5   -0.90    3.50
  -8   0   5    1.70    4.00
  -7   0   5    3.30    3.60
  -7   0   5    7.60    3.90
  -6   0   5   -0.70    2.30
  -6   0   5    2.10    2.50
   5   0  -5  642.84   19.50
  -5   0   5  672.43   20.10
  -5   0   5  659.33   19.90
  -4   0   5    0.70    1.60
   4   0  -5   -0.20    1.40
  -4   0   5    0.80    1.60
  -4   0   5   -0.60    1.90
  -3   0   5   26.90    3.80
  -3   0   5   33.50    3.30
  -3   0   5   28.30    4.60
   3   0  -5   30.90    3.10
  -2   0   5   -0.40    0.60
   2   0  -5    2.80    1.30
  -2   0   5    1.30    1.10
   2   0  -5    0.50    0.70
  -1   0   5  236.88    4.00
  -1   0   5  246.78    7.90
   1   0  -5  243.98    7.90
   0   0   5    1.80    1.00
   0   0  -5    0.70    0.70
   0   0   5    2.00    0.70
   0   0  -5    1.10    0.70
   1   0   5 4023.90   57.29
  -1   0  -5 3952.00   56.79
  -2   0  -5    0.20    0.90
   2   0   5   -0.10    1.10
   2   0   5    0.60    0.90
  -2   0  -5    1.60    1.20
  -3   0  -5  217.08    8.10
   3   0   5  226.68   10.10
  -3   0  -5  234.48   10.40
   3   0   5  228.98    8.80
   4   0   5   -0.50    1.10
  -4   0  -5   -3.90    1.60
  -4   0  -5    0.10    1.90
   5   0   5  113.09    7.70
  -5   0  -5  101.59    9.20
  -5   0  -5  106.29    7.30
   6   0   5   -0.20    2.90
  -6   0  -5    3.00    3.70
  -6   0  -5    5.80    2.80
  -7   0  -5   54.99    9.80
  -8   0  -5    6.50    3.80
  -8   0  -5   -5.20    3.70
  -8  -1   5   -0.70    3.80
  -8  -1   5   16.80    4.80
  -8   1   5    3.60    4.40
  -8   1   5    3.80    4.60
  -7  -1   5   72.29   10.10
  -7  -1   5   70.89    7.40
  -7   1   5   50.69    7.60
  -7   1   5   65.49    8.70
  -6  -1   5    2.20    2.40
  -6  -1   5    0.30    2.40
  -6   1   5    0.00    2.40
  -6   1   5    0.90    2.30
   5  -1  -5   13.30    3.60
  -5  -1   5   17.60    4.00
  -5  -1   5   14.10    3.40
   5   1  -5   11.70    3.30
  -5   1   5   20.90    4.60
  -5   1   5   15.00    4.00
  -4  -1   5   29.90    4.30
   4  -1  -5   27.60    3.80
  -4  -1   5   31.80    4.60
  -4  -1   5   38.70    6.00
   4   1  -5   30.50    4.30
  -4   1   5   33.80    5.20
  -4   1   5   40.90    5.10
  -4   1   5   45.50    5.90
   3  -1  -5  219.78    8.00
  -3  -1   5  210.28    8.70
  -3  -1   5  213.08    8.00
   3   1  -5  204.98    7.80
  -3   1   5  213.78    9.20
   3   1  -5  220.48    8.90
  -3   1   5  216.48   10.50
  -3   1   5  223.58    8.20
   2  -1  -5   20.80    2.70
   2  -1  -5   20.20    3.00
  -2  -1   5   16.20    2.80
  -2  -1   5   19.70    2.30
  -2   1   5   20.50    3.30
   2   1  -5   24.20    3.40
  -2   1   5   21.00    2.40
  -1  -1   5  447.06    7.80
   1  -1  -5  430.66   11.10
  -1  -1   5  442.56   11.30
  -1   1   5  443.96   11.30
   1   1  -5  436.36   11.20
  -1   1   5  457.55    7.50
   1   1  -5  449.86    7.70
  -1   1   5  440.36    7.70
   0  -1  -5  541.85   11.60
   0  -1   5  549.15    9.70
   0  -1   5  543.65   12.50
   0  -1  -5  532.85    9.60
   0   1  -5  540.15   12.30
   0   1  -5  547.25    9.80
   0   1   5  534.25    9.60
   1  -1   5  369.76   10.10
  -1  -1  -5  385.26    9.70
  -1  -1  -5  386.76    9.90
   1  -1   5  378.46    9.60
  -1   1  -5  359.16    9.70
   1   1   5  366.76    8.70
  -1   1  -5  403.76   10.10
   1   1   5  372.26    9.60
  -2  -1  -5  610.04   12.90
   2  -1   5  593.74   15.10
  -2  -1  -5  582.24   15.20
   2  -1   5  585.14   14.60
  -2   1  -5  578.04   15.20
   2   1   5  584.64   15.10
   2   1   5  597.34   12.80
  -2   1  -5  591.24   14.20
   3  -1   5   35.70    5.10
  -3  -1  -5   41.70    5.70
  -3  -1  -5   33.50    3.00
   3  -1   5   40.90    4.20
   3   1   5   38.20    3.30
  -3   1  -5   37.30    3.70
  -3   1  -5   43.50    5.50
   3   1   5   35.10    5.10
   4  -1   5   51.19    5.00
  -4  -1  -5   53.69    4.20
  -4  -1  -5   44.80    6.20
  -4   1  -5   45.40    6.10
  -4   1  -5   54.09    4.90
   4   1   5   56.79    4.40
   5  -1   5  573.24   19.10
  -5  -1  -5  560.84   15.60
  -5  -1  -5  532.45   20.50
  -5   1  -5  526.95   17.00
   5   1   5  578.64   17.00
  -5   1  -5  556.24   21.00
   6  -1   5   21.30    5.30
  -6  -1  -5   19.10    5.10
   6   1   5   12.60    3.80
  -6   1  -5   17.70    5.10
  -7  -1  -5   12.40    4.50
  -7  -1  -5   15.20    3.70
  -7  -1  -5   20.30    5.70
   7  -1   5   11.00    4.30
  -7   1  -5   12.60    5.40
  -8  -1  -5   26.90    6.70
  -8  -1  -5   23.00    6.00
  -8   1  -5   29.80    6.00
  -8   1  -5   29.30    5.90
  -8  -2   5   14.30    5.00
  -8  -2   5   20.10    4.90
  -8   2   5    6.20    4.50
  -8   2   5   14.90    5.70
  -7  -2   5   24.10    5.40
  -7  -2   5   36.20    6.20
  -7   2   5   47.00    7.40
  -7   2   5   17.10    4.50
  -6  -2   5    6.20    3.40
  -6  -2   5    7.30    3.30
  -6   2   5    4.10    2.80
  -6   2   5   20.10    5.30
  -5  -2   5  149.39   10.20
  -5  -2   5  180.98    9.40
  -5  -2   5  171.68    9.90
   5  -2  -5  173.88   11.20
  -5   2   5  185.28   10.20
  -4  -2   5   49.50    4.70
   4  -2  -5   43.90    4.30
  -4  -2   5   42.20    4.20
  -4   2   5   45.90    4.60
  -4   2   5   41.70    5.90
   4   2  -5   38.80    4.80
  -4   2   5   55.19    7.70
  -3  -2   5    4.30    1.70
  -3  -2   5    2.20    1.30
   3  -2  -5    4.00    1.60
  -3   2   5    3.40    1.90
  -3   2   5    2.90    2.10
  -3   2   5    3.30    1.60
   3   2  -5    3.60    1.70
   3   2  -5    6.70    1.80
  -2  -2   5  440.46   12.30
   2  -2  -5  445.46   10.30
  -2   2   5  475.25   11.90
  -2   2   5  434.16   12.70
   2   2  -5  461.45   10.60
   2   2  -5  444.66   12.30
  -2   2   5  454.25   14.70
  -1  -2   5  275.67    6.70
  -1  -2   5  272.07    8.80
   1  -2  -5  280.37    8.60
  -1   2   5  271.37    6.20
   1   2  -5  277.17    8.60
   1   2  -5  278.87    6.50
  -1   2   5  271.47    6.60
  -1   2   5  278.37    8.70
   0  -2   5   90.79    3.60
   0  -2   5   82.79    4.60
   0  -2  -5   96.69    4.20
   0  -2  -5   95.29    3.70
   0   2   5   98.39    3.70
   0   2  -5   94.29    4.80
   0   2  -5   92.49    3.70
  -1  -2  -5 2239.38   35.50
   1  -2   5 2256.07   37.10
  -1  -2  -5 2257.37   32.80
   1  -2   5 2216.68   35.50
   1   2   5 2219.78   32.80
  -1   2  -5 2238.48   36.50
  -1   2  -5 2242.68   35.70
   1   2   5 2196.48   35.40
   2  -2   5   42.90    4.00
   2  -2   5   42.60    3.80
  -2  -2  -5   40.90    3.80
  -2  -2  -5   38.10    2.30
   2   2   5   42.10    3.80
  -2   2  -5   43.80    3.80
  -2   2  -5   40.90    3.70
   2   2   5   43.60    2.60
   3  -2   5   91.29    6.40
   3  -2   5   86.89    7.50
  -3  -2  -5  115.69    7.30
  -3   2  -5  105.99    7.00
  -3   2  -5   87.19    5.90
   3   2   5   99.49    4.60
  -4  -2  -5  748.83   15.80
   4  -2   5  775.62   21.90
  -4  -2  -5  757.92   22.60
   4   2   5  726.83   16.80
  -4   2  -5  733.13   20.20
  -4   2  -5  728.13   22.40
   5  -2   5    5.90    2.70
  -5  -2  -5   14.60    3.00
  -5  -2  -5    6.10    3.40
   5   2   5   11.40    2.90
  -5   2  -5   15.80    4.50
  -5   2  -5    7.70    3.30
  -6  -2  -5   29.20    6.50
  -6  -2  -5   33.60    4.40
  -6  -2  -5   32.90    4.30
  -6   2  -5   37.60    7.00
   7  -2   5   80.59   10.70
  -7  -2  -5   68.99    5.90
  -7  -2  -5   59.09    6.80
  -7  -2  -5   72.29   10.90
  -7   2  -5   46.60    7.70
  -8  -2  -5    9.90    4.50
   8  -2   5   11.90    5.60
  -8  -2  -5    2.80    3.60
  -8   2  -5    4.80    4.00
  -8  -3   5    7.60    4.00
  -8  -3   5    3.40    4.30
  -8   3   5    3.90    4.20
  -8   3   5    4.90    3.90
  -7  -3   5   10.00    4.20
  -7  -3   5    9.40    3.70
  -7   3   5    5.60    3.80
  -7   3   5    9.10    4.30
  -6  -3   5  320.17   15.20
  -6  -3   5  321.17   15.80
  -6   3   5  302.87   14.90
  -6   3   5  312.77   15.30
  -5  -3   5   67.49    6.30
  -5  -3   5   74.19    6.10
  -5  -3   5   58.19    7.40
  -5   3   5   68.49    6.60
  -5   3   5   74.59    7.10
  -4  -3   5  725.93   18.90
  -4  -3   5  740.33   19.60
   4  -3  -5  724.83   19.20
  -4   3   5  748.63   21.10
  -4   3   5  697.23   23.40
   4   3  -5  724.53   19.00
  -4   3   5  764.42   20.00
   4   3  -5  742.33   21.30
  -3  -3   5  252.57    9.40
  -3  -3   5  262.37    9.70
   3  -3  -5  265.77    9.40
   3   3  -5  266.67    9.80
   3   3  -5  256.87    9.40
  -3   3   5  255.57   10.70
  -3   3   5  260.27    9.40
  -2  -3   5   10.90    2.10
  -2  -3   5    8.40    2.10
   2  -3  -5    8.70    1.60
  -2   3   5    6.90    2.00
   2   3  -5    8.80    1.90
  -2   3   5    6.90    2.50
  -2   3   5    7.50    1.70
   2   3  -5   11.60    2.30
  -1  -3   5    2.00    1.00
  -1  -3   5    3.60    1.50
  -1   3   5    2.80    1.60
  -1   3   5    2.60    1.20
  -1   3   5    2.30    1.40
  -1   3   5    3.80    1.10
   1   3  -5    2.10    1.20
   1   3  -5    1.40    1.00
   0  -3  -5  817.62   15.50
   0  -3  -5  811.02   15.60
   0  -3   5  817.02   17.80
   0   3  -5  792.32   17.30
   0   3   5  811.02   17.00
   0   3  -5  812.22   15.60
   0   3   5  784.12   15.30
   0   3  -5  839.82   16.50
   1  -3   5   30.90    3.00
   1  -3   5   25.00    3.60
  -1  -3  -5   25.70    1.80
  -1  -3  -5   28.30    2.80
   1   3   5   22.70    1.80
   1   3   5   30.80    2.80
  -1   3  -5   19.40    2.70
  -1   3  -5   24.40    3.40
   2  -3   5  753.32   18.50
  -2  -3  -5  812.62   19.20
  -2  -3  -5  808.22   12.60
   2  -3   5  804.72   19.90
  -2   3  -5  786.72   19.20
  -2   3  -5  756.92   18.80
   2   3   5  810.12   19.10
   2   3   5  804.32   13.10
   3  -3   5   87.29    6.60
   3  -3   5   77.49    6.10
  -3  -3  -5   84.69    3.10
  -3  -3  -5   77.39    6.20
  -3   3  -5   87.49    6.20
   3   3   5   80.49    6.10
   3   3   5   87.29    3.60
   4  -3   5    3.10    2.00
  -4  -3  -5    0.70    1.70
  -4   3  -5   -0.50    1.40
   4   3   5    1.50    1.20
  -4   3  -5   -1.20    2.10
  -5  -3  -5    2.50    1.30
  -5  -3  -5   -1.40    2.10
  -5  -3  -5   -0.60    1.60
   5  -3   5   -1.20    2.00
  -5   3  -5    2.60    2.60
   6  -3   5   27.80    6.10
  -6  -3  -5   45.80    4.00
  -6  -3  -5   42.60    7.70
  -6  -3  -5   39.70    4.30
  -6   3  -5   39.60    7.70
  -7  -3  -5   34.10    4.10
  -7  -3  -5   27.90    4.50
  -7  -3  -5   22.80    5.50
   7  -3   5   25.30    6.80
  -7   3  -5   32.60    7.60
   8  -3   5   11.70    5.80
  -8  -3  -5    9.00    4.70
  -8  -3  -5    9.60    3.40
  -8   3  -5   10.10    4.60
  -8  -4   5   78.29    8.00
  -8   4   5   75.39   13.30
  -7  -4   5   31.60    6.00
  -7  -4   5   38.60    6.00
  -7   4   5   45.80    7.80
  -7   4   5   31.60    7.00
  -6  -4   5   47.70    7.40
  -6  -4   5   52.89    6.60
  -6   4   5   44.40    7.40
  -6   4   5   48.10    7.30
  -5  -4   5   11.40    4.20
  -5  -4   5    7.30    2.70
  -5  -4   5    6.70    2.50
  -5   4   5   10.30    3.50
  -5   4   5    7.40    3.40
  -4  -4   5  108.69    7.10
  -4  -4   5  103.89    6.40
   4  -4  -5   97.09    6.60
   4   4  -5  101.59    6.80
   4   4  -5   93.89    6.30
  -4   4   5   96.09    7.20
  -4   4   5   96.99    6.80
   3  -4  -5  195.48    8.30
  -3  -4   5  205.38    8.70
  -3  -4   5  193.28    8.50
  -3   4   5  199.58    9.60
   3   4  -5  195.48    8.50
   3   4  -5  187.78    8.20
  -3   4   5  218.08   11.50
  -3   4   5  199.18   11.90
  -2  -4   5  564.44   14.10
   2  -4  -5  559.54   13.60
  -2  -4   5  550.74   14.50
  -2   4   5  544.55   17.10
   2   4  -5  561.74   13.80
  -2   4   5  584.94   13.90
  -2   4   5  561.84   15.50
   2   4  -5  562.34   14.60
  -1  -4   5   33.80    3.40
  -1  -4   5   39.60    3.20
  -1   4   5   33.10    2.80
  -1   4   5   28.20    4.10
   1   4  -5   33.50    2.90
   1   4  -5   34.60    3.40
  -1   4   5   35.50    3.20
  -1   4   5   29.20    2.90
   0  -4   5  506.25   14.00
   0  -4  -5  502.85   12.50
   0   4   5  507.45   13.10
   0   4  -5  513.05   13.50
   0   4   5  525.75   12.40
   0   4  -5  530.15   13.20
   0   4  -5  529.85   12.50
   0   4   5  529.75   11.90
   1  -4   5    3.80    1.90
  -1  -4  -5    2.90    1.50
   1  -4   5    4.10    1.60
   1   4   5    1.90    1.30
  -1   4  -5    2.40    1.20
  -1   4  -5    5.10    2.10
   1   4   5    3.30    1.10
   1   4   5    2.70    0.80
  -2  -4  -5  228.48    9.70
   2  -4   5  234.48   10.30
   2  -4   5  243.78    9.80
  -2   4  -5  229.98    9.90
   2   4   5  235.98    4.10
  -2   4  -5  234.18    9.80
   2   4   5  241.98    9.80
   2   4   5  242.58    4.30
   3  -4   5  235.48   10.80
   3  -4   5  256.27   11.80
  -3  -4  -5  216.38   10.50
  -3   4  -5  239.28   12.30
   3   4   5  239.48   11.00
  -3   4  -5  247.88   11.30
  -4  -4  -5  146.59    3.30
  -4  -4  -5  140.69    3.30
   4  -4   5  137.69    9.70
  -4   4  -5  148.29    9.20
  -5  -4  -5   19.40    2.10
  -5  -4  -5    9.50    3.90
  -5  -4  -5   16.00    1.80
   5  -4   5   15.60    5.60
  -5   4  -5   13.20    4.30
  -6  -4  -5    4.20    1.90
   6  -4   5    0.20    3.10
  -6  -4  -5    3.40    3.00
  -6   4  -5    5.90    4.40
  -7  -4  -5   11.40    2.60
  -7  -4  -5   10.70    3.20
   7  -4   5    2.80    3.80
  -7  -4  -5   10.40    7.60
  -8  -4  -5   -2.50    2.60
  -8  -4  -5    7.60    6.00
   8  -4   5    0.40    4.90
  -8   4  -5   -1.00    3.90
  -8  -5   5   -0.20    4.00
  -8  -5   5    2.30    3.90
  -8   5   5    1.40    4.40
  -8   5   5    5.00    4.30
  -7  -5   5  220.98   14.20
  -7  -5   5  230.18   11.70
  -7   5   5  230.58   14.70
  -7   5   5  227.98   14.20
  -6  -5   5   13.80    4.10
  -6  -5   5   15.00    3.50
  -6   5   5   11.00    4.00
  -6   5   5    8.80    3.40
  -5  -5   5   25.20    4.10
  -5  -5   5   36.20    6.20
  -5   5   5   19.50    4.60
  -4  -5   5   69.59    5.40
   4  -5  -5   72.59    7.80
  -4  -5   5   65.19    5.70
   4  -5  -5   53.69    5.50
  -4   5   5   64.69    6.50
   4   5  -5   65.89    5.80
   4   5  -5   71.59    5.70
  -4   5   5   63.29    5.70
   3  -5  -5  195.68    8.60
   3  -5  -5  211.28   11.90
  -3  -5   5  226.78    9.10
  -3  -5   5  226.18    9.70
   3   5  -5  221.98    9.10
  -3   5   5  202.28   11.40
  -3   5   5  217.38    9.40
   3   5  -5  219.38    9.40
   2  -5  -5   19.40    4.20
  -2  -5   5   23.20    3.60
  -2  -5   5   22.70    3.50
  -2   5   5   32.70    5.40
   2   5  -5   23.60    3.70
  -2   5   5   25.50    3.70
  -2   5   5   25.90    3.80
   2   5  -5   20.60    3.10
   1  -5  -5 1788.12   34.80
  -1  -5   5 1719.03   31.80
   1  -5  -5 1729.53   32.20
  -1  -5   5 1831.12   32.80
  -1   5   5 1762.92   31.40
   1   5  -5 1797.42   31.50
  -1   5   5 1778.92   34.30
   1   5  -5 1771.32   32.00
   0  -5  -5   33.70    3.40
   0  -5   5   37.40    4.00
   0   5  -5   35.30    3.60
   0   5   5   39.20    3.70
   0   5   5   38.40    3.00
   0   5  -5   39.70    3.50
   0   5  -5   37.80    3.80
   0   5   5   39.50    3.50
  -1  -5  -5    5.80    1.80
   1  -5   5    4.10    2.00
   1  -5   5    3.90    1.70
  -1   5  -5    2.20    1.40
   1   5   5    5.30    1.20
   1   5   5    0.80    1.30
   1   5   5    5.70    1.30
  -1   5  -5    5.30    2.20
  -2  -5  -5  340.57   12.40
   2  -5   5  328.47   11.90
   2  -5   5  324.27   13.00
   2   5   5  310.57   11.80
  -2   5  -5  346.27   12.50
  -2   5  -5  328.37   12.60
   3  -5   5  681.83   20.10
  -3  -5  -5  709.53   20.90
   3  -5   5  734.63   22.00
  -3   5  -5  664.43   20.30
  -3   5  -5  731.63   21.10
   3   5   5  716.93   20.70
  -4  -5  -5    0.30    2.10
   4  -5   5   -1.40    2.20
  -4   5  -5    3.90    2.70
   5  -5   5  211.78   13.50
  -5  -5  -5  228.88   13.50
  -5   5  -5  217.48   13.40
   6  -5   5    8.00    4.10
  -6  -5  -5    7.80    3.30
  -6   5  -5    9.80    4.80
   7  -5   5   17.20    5.70
  -7  -5  -5   33.20    7.80
  -7   5  -5   18.60    5.60
  -8  -5  -5    0.40    4.30
   8  -5   5   29.20    8.40
  -8   5  -5    8.50    5.10
  -8  -6   5   -1.30    3.80
  -8  -6   5    4.50    4.30
  -8   6   5    7.90    4.30
  -8   6   5    4.70    4.90
  -7  -6   5   44.40    7.90
  -7  -6   5   33.70    5.60
  -7   6   5   23.50    5.60
  -7   6   5   36.50    6.70
  -6  -6   5   35.50    5.50
  -6  -6   5   37.30    7.00
  -6   6   5   31.70    6.10
  -6   6   5   33.30    6.30
  -5  -6   5  197.08    9.80
   5  -6  -5  203.28   14.20
  -5  -6   5  216.48   11.90
   5   6  -5  208.38   10.00
  -5   6   5  208.78   11.70
  -5   6   5  221.58   12.70
   4  -6  -5    1.80    2.00
  -4  -6   5   -0.10    1.20
   4  -6  -5   -1.40    2.00
  -4  -6   5    0.40    1.50
   4   6  -5    0.10    2.10
   4   6  -5    0.50    2.00
  -4   6   5    2.10    1.90
  -3  -6   5  152.98    7.80
   3  -6  -5  161.48   10.70
   3  -6  -5  156.08    8.30
  -3  -6   5  160.38    8.70
  -3   6   5  138.39    9.70
  -3   6   5  153.08    8.20
   3   6  -5  166.48   10.20
   3   6  -5  160.68    7.60
  -2  -6   5   20.10    3.60
  -2  -6   5   18.90    3.10
   2  -6  -5   31.20    5.70
  -2   6   5   21.10    3.80
   2   6  -5   25.60    4.10
  -2   6   5   27.50    4.10
   2   6  -5   23.10    3.70
   1  -6  -5   47.10    4.80
  -1  -6   5   43.00    4.20
   1  -6  -5   46.60    4.50
  -1  -6   5   48.70    4.50
   1   6  -5   37.10    3.80
  -1   6   5   44.10    4.10
   1   6  -5   44.90    5.10
  -1   6   5   45.50    5.80
   0  -6  -5  124.19    6.60
   0  -6   5  130.79    7.50
   0  -6  -5  134.09    7.00
   0   6  -5  136.59    7.30
   0   6   5  129.49    6.50
   0   6   5  133.09    6.80
   0   6  -5  129.39    7.00
   0   6  -5  129.79    6.70
   1  -6   5  343.07   13.20
  -1  -6  -5  366.86   12.50
  -1   6  -5  369.26   12.40
   1   6   5  364.86    8.60
   1   6   5  356.06   12.10
  -1   6  -5  342.37   12.70
  -1   6  -5  354.76   13.20
  -2  -6  -5 1021.30   24.60
   2  -6   5 1043.50   26.30
   2  -6   5  982.40   23.80
  -2   6  -5 1023.90   24.70
   2   6   5  972.60   24.10
  -2   6  -5  970.50   24.80
   3  -6   5  162.98   10.40
  -3  -6  -5  169.68    9.90
  -3   6  -5  174.78   10.00
   4  -6   5   28.00    6.10
  -4  -6  -5   37.00    6.70
  -4   6  -5   25.70    5.50
  -5  -6  -5   18.60    5.40
   5  -6   5   12.90    4.10
  -5   6  -5   18.90    5.40
  -6  -6  -5    1.50    3.10
   6  -6   5    4.10    3.60
  -6   6  -5    2.90    2.80
  -7  -6  -5   12.80    5.30
   7  -6   5   23.30    6.90
  -7   6  -5   21.50    8.00
   8  -6   5    3.90    5.50
  -8  -6  -5   -3.70    5.20
  -8   6  -5   -4.90    4.10
  -8  -7   5    0.90    4.40
  -8  -7   5   -1.50    3.60
  -8   7   5    6.50    4.10
  -8   7   5   -3.10    3.30
  -7  -7   5    4.70    3.40
  -7  -7   5   21.80    5.80
  -7   7   5   16.20    5.40
  -7   7   5    7.80    4.70
  -6  -7   5   89.19    6.90
  -6  -7   5   91.19    8.90
  -6   7   5   72.29    8.90
  -6   7   5   97.29    9.60
  -5  -7   5    1.00    2.50
   5  -7  -5    1.80    2.90
  -5  -7   5    1.30    1.60
  -5   7   5    3.70    3.30
   5   7  -5    1.40    2.50
  -4  -7   5  227.08   10.20
  -4  -7   5  244.18   12.00
   4  -7  -5  214.88   14.00
  -4   7   5  233.48   11.60
   4   7  -5  205.48   10.80
   3  -7  -5  473.25   18.90
  -3  -7   5  430.96   15.50
  -3  -7   5  461.05   14.30
  -3   7   5  420.86   16.10
  -3   7   5  457.85   15.40
   3   7  -5  450.25   15.40
   3   7  -5  431.26   13.70
  -2  -7   5   78.99    6.30
  -2  -7   5   87.29    5.90
   2  -7  -5   78.49    7.00
  -2   7   5   86.39    7.20
   2   7  -5   88.99    5.90
  -2   7   5   89.89    6.60
  -2   7   5   75.49    5.80
   2   7  -5   80.09    6.00
  -1  -7   5 1385.86   29.60
  -1  -7   5 1424.16   29.30
   1  -7  -5 1400.26   30.30
   1  -7  -5 1438.96   31.30
  -1   7   5 1361.26   30.10
  -1   7   5 1374.76   29.10
   1   7  -5 1380.56   28.50
   1   7  -5 1401.46   29.30
   0  -7  -5   58.09    4.90
   0  -7   5   69.09    5.80
   0  -7  -5   57.39    5.10
   0   7  -5   58.59    4.80
   0   7  -5   50.29    5.20
   0   7   5   56.69    5.00
   0   7  -5   64.09    5.20
   0   7   5   62.39    4.70
   1  -7   5   33.50    5.00
  -1  -7  -5   31.00    4.80
   1   7   5   34.10    2.90
  -1   7  -5   27.30    4.30
   1   7   5   33.60    2.70
   1   7   5   25.70    4.10
  -1   7  -5   23.00    4.80
  -1   7  -5   39.40    5.30
   2  -7   5  532.05   17.20
  -2  -7  -5  541.45   17.60
   2  -7   5  573.44   19.30
   2   7   5  555.04    8.50
   2   7   5  530.75   17.30
  -2   7  -5  565.84   18.60
  -2   7  -5  562.24   17.80
  -3  -7  -5  520.95   18.30
   3  -7   5  509.05   19.50
  -3   7  -5  478.95   17.80
   4  -7   5    9.60    3.70
  -4  -7  -5    4.10    2.80
  -4   7  -5    5.20    2.80
  -5  -7  -5  101.09    9.70
   5  -7   5   86.99   11.10
  -5   7  -5   85.39   10.60
  -6  -7  -5   18.40    5.70
   6  -7   5    9.00    4.30
  -6   7  -5    7.80    4.10
   7  -7   5    8.20    5.00
  -7  -7  -5   -0.20    3.60
  -7   7  -5    2.00    4.60
  -8  -7  -5    1.00    4.80
   8  -7   5   14.10    7.50
  -8   7  -5   11.30    6.30
  -8  -8   5   49.60    8.70
  -8  -8   5   53.79    7.10
  -8   8   5   35.70    7.80
  -8   8   5   27.50    6.80
  -7  -8   5    0.90    3.70
  -7  -8   5    2.10    3.80
  -7   8   5    5.20    4.30
  -7   8   5   -0.20    3.00
  -6  -8   5   64.09    6.20
   6  -8  -5   58.99   10.70
  -6  -8   5   48.70    7.80
  -6   8   5   49.00    7.60
  -6   8   5   74.99   10.80
  -5  -8   5    0.70    2.30
  -5  -8   5    2.70    2.10
   5  -8  -5   -0.80    2.50
   5   8  -5    0.50    2.50
  -5   8   5    3.70    2.90
   4  -8  -5   -0.40    1.80
  -4  -8   5    2.10    2.00
  -4  -8   5   -0.20    2.10
   4   8  -5    0.60    2.20
  -3  -8   5    3.00    2.60
  -3  -8   5   -0.20    1.40
   3   8  -5   -0.10    1.90
  -3   8   5    3.00    2.50
  -3   8   5    2.40    2.00
  -2  -8   5  148.49    8.20
  -2  -8   5  168.28    9.40
   2  -8  -5  174.58   10.80
  -2   8   5  169.98    9.10
  -2   8   5  167.98    9.60
   2   8  -5  151.18    8.10
   2   8  -5  178.18    9.30
  -2   8   5  141.69    9.60
   1  -8  -5  340.17   14.00
  -1  -8   5  340.07   13.50
  -1  -8   5  368.96   13.60
   1  -8  -5  354.56   14.10
  -1   8   5  335.57   13.40
  -1   8   5  360.96   17.10
   1   8  -5  353.56   15.00
   0  -8  -5  166.08    9.30
   0  -8   5  166.48    9.40
   0  -8  -5  165.58    8.50
   0   8  -5  175.68    9.50
   0   8   5  163.38    8.00
   0   8  -5  157.08    8.70
   0   8  -5  157.38    8.70
   1  -8   5    2.30    2.00
  -1  -8  -5    0.70    1.90
  -1  -8  -5    3.70    1.50
  -1   8  -5   -0.50    1.80
  -1   8  -5   -0.30    1.20
   1   8   5    2.90    1.50
  -1   8  -5    2.70    2.10
   1   8   5    0.90    1.80
   2  -8   5   70.49    7.20
  -2  -8  -5   70.69    6.70
   2   8   5   74.49    2.70
   2   8   5   70.79    2.90
  -2   8  -5   72.29    6.40
   3  -8   5  168.88   11.50
  -3  -8  -5  173.38   10.60
  -3   8  -5  176.88   10.80
  -4  -8  -5   51.09    7.40
   4  -8   5   63.79    9.60
  -4   8  -5   44.20    6.90
   5  -8   5   33.70    7.10
  -5  -8  -5   46.50    7.90
  -5   8  -5   37.50    7.50
   6  -8   5   43.10    8.60
  -6  -8  -5   58.99    9.80
  -6   8  -5   43.50    7.70
  -7  -8  -5   20.80    5.60
   7  -8   5    9.30    6.30
  -7   8  -5   14.00    5.70
  -7   9   5    8.00    4.80
  -7   9   5    4.40    4.90
  -6  -9   5   45.90    6.00
  -6  -9   5   41.60    7.10
   6  -9  -5   49.40    9.10
  -6   9   5   30.30    6.70
  -5  -9   5   14.80    3.60
  -5  -9   5   16.50    4.90
   5  -9  -5   11.80    4.60
   5   9  -5    9.00    3.60
  -5   9   5   11.60    4.30
  -4  -9   5   72.29    6.20
  -4  -9   5   72.69    7.40
   4  -9  -5   78.09   10.80
   4   9  -5   77.59    6.10
  -4   9   5   67.69    7.00
  -3  -9   5    0.20    2.10
  -3  -9   5    1.40    2.20
   3  -9  -5    8.20    3.30
   3   9  -5    1.30    2.00
  -3   9   5   -0.70    1.60
   2  -9  -5  126.49    9.70
  -2  -9   5  131.89    8.00
  -2  -9   5  124.69    8.70
   2   9  -5  123.19    7.60
  -2   9   5  134.99    9.00
  -2   9   5  134.09    8.60
   2   9  -5  117.29    8.20
   1  -9  -5    8.30    2.70
  -1  -9   5    8.40    2.80
   1  -9  -5   10.10    3.40
  -1  -9   5   10.50    2.90
   1   9  -5    6.30    2.50
   1   9  -5   11.00    3.50
  -1   9   5   10.70    3.10
  -1   9   5   16.30    3.80
   0  -9  -5  323.37   12.70
   0  -9  -5  325.57   13.90
   0  -9   5  339.97   14.20
   0   9   5  313.47   12.00
   0   9   5  308.97   13.10
   0   9  -5  323.87   13.80
   0   9  -5  336.47   13.60
   0   9  -5  313.27   13.00
   1  -9   5   29.70    5.50
  -1  -9  -5   29.20    4.20
  -1  -9  -5   27.90    5.40
   1   9   5   32.70    6.40
   1   9   5   31.60    3.90
  -1   9  -5   25.80    5.00
   2  -9   5  872.91   27.20
  -2  -9  -5  839.22   25.10
  -2   9  -5  843.42   27.80
   2   9   5  827.62   15.10
   2   9   5  870.21   15.00
   3  -9   5   21.80    6.10
  -3  -9  -5   17.40    4.80
  -3   9  -5    5.00    3.10
  -4  -9  -5    9.50    4.10
   4  -9   5   13.70    4.90
  -4   9  -5   10.70    4.30
  -5  -9  -5   15.40    4.70
   5  -9   5    6.10    3.40
  -5   9  -5    4.20    3.10
  -6  -9  -5  109.29   16.60
   6  -9   5   96.39   13.10
  -6   9  -5  119.79   17.90
  -7  -9  -5   -0.50    4.90
   7  -9   5  -10.50    3.90
  -7   9  -5    3.90    4.50
  -7 -10   5   -3.90    3.80
  -7 -10   5   -7.80    3.60
  -7  10   5    6.00    5.30
  -7  10   5    2.40    4.00
   6 -10  -5   61.59   12.20
  -6 -10   5   48.90    8.60
  -6 -10   5   49.80    6.50
  -6  10   5   51.69    8.80
   5 -10  -5   78.59   11.00
  -5 -10   5   97.59    7.20
  -5 -10   5   94.49    9.60
  -5  10   5  105.79    9.80
   5  10  -5   89.69    7.40
   4 -10  -5    9.90    3.90
  -4 -10   5    2.80    2.90
  -4 -10   5    0.50    2.30
   4  10  -5   -1.90    2.30
  -4  10   5    2.50    3.00
   3 -10  -5   33.20    6.90
  -3 -10   5   32.70    5.20
  -3 -10   5   34.00    5.90
  -3  10   5   42.90    6.70
   3  10  -5   44.60    5.80
   2 -10  -5  130.39   10.40
  -2 -10   5  133.59    9.70
  -2 -10   5  138.29    8.90
   2  10  -5  140.69    8.40
  -2  10   5  135.79    9.10
  -1 -10   5    2.60    2.70
  -1 -10   5    3.00    2.50
   1 -10  -5    2.80    1.70
   1 -10  -5    7.50    3.30
   1  10  -5    1.50    2.20
  -1  10   5    6.20    2.80
  -1  10   5    7.60    3.20
   0 -10  -5  110.39    8.50
   0 -10   5  102.89    8.20
   0 -10  -5  114.19    7.90
   0  10   5  121.99    7.70
   0  10  -5  119.49    8.30
  -1 -10  -5  189.98    8.80
  -1 -10  -5  201.18   11.50
  -1  10  -5  188.78   11.50
   1  10   5  186.48    8.30
   2 -10   5   84.69    8.40
  -2 -10  -5   85.99    8.10
  -2  10  -5   78.29    7.40
   2  10   5   83.79    4.10
   3 -10   5    5.10    3.40
  -3 -10  -5    2.20    2.20
  -3  10  -5    0.80    2.20
   4 -10   5   27.80    6.70
  -4 -10  -5   29.60    6.90
  -4  10  -5   21.60    5.60
  -5 -10  -5   47.60    8.40
   5 -10   5   78.09   12.30
  -5  10  -5   44.90    8.00
  -6 -10  -5   12.60    5.20
  -6  10  -5    6.70    4.80
  -7 -10  -5   24.50    6.90
   7 -10   5   35.90    9.70
  -7  10  -5   18.60    6.80
   7 -11  -5   15.20    5.30
  -7 -11   5    8.70    4.20
  -7 -11   5    9.10    5.70
  -7  11   5    6.30    5.70
  -7  11   5   24.00    6.90
  -6 -11   5    9.30    3.30
  -6 -11   5    5.40    4.40
   6 -11  -5   12.50    5.60
  -6  11   5    2.70    4.30
   5 -11  -5    6.40    5.00
  -5 -11   5    4.70    3.10
  -5 -11   5    3.70    3.60
  -5  11   5    1.90    3.00
  -4 -11   5    7.50    3.90
   4 -11  -5   15.20    5.50
  -4 -11   5   14.00    3.80
  -4  11   5    9.20    3.60
   4  11  -5   21.00    4.30
   3 -11  -5  233.48   15.50
  -3 -11   5  248.48   12.00
  -3 -11   5  249.88   14.00
   3  11  -5  233.68   11.00
  -3  11   5  244.98   13.30
  -2 -11   5   19.30    5.00
   2 -11  -5   35.30    6.70
  -2 -11   5   35.70    5.70
  -2  11   5   33.60    6.10
   1 -11  -5  126.59   10.10
  -1 -11   5  141.49   10.30
   1 -11  -5  111.29    9.10
  -1 -11   5  136.39    9.20
  -1  11   5  138.99    9.60
   0 -11  -5   28.60    5.60
   0 -11  -5   52.39    7.10
   0  11   5   49.40    6.40
   0  11  -5   51.09    7.90
  -1 -11  -5    5.40    2.50
  -1 -11  -5    3.40    2.50
   1 -11   5    3.00    2.20
   1  11   5    4.60    2.30
  -1  11  -5    1.50    2.50
   2 -11   5    8.30    3.70
  -2 -11  -5    6.60    3.50
  -2  11  -5   11.10    3.80
   2  11   5    9.00    1.90
  -3 -11  -5   19.50    5.30
   3 -11   5   12.70    4.60
  -3  11  -5   18.40    4.30
  -4 -11  -5    4.50    3.30
   4 -11   5    6.50    3.70
  -4  11  -5    2.00    3.30
   5 -11   5  111.49   11.90
  -5 -11  -5  108.39   11.20
  -5  11  -5  103.29   10.90
   6 -11   5    2.20    4.70
  -6 -11  -5   23.20    6.40
  -6  11  -5   21.80    6.80
   7 -11   5   -3.30    5.40
  -7 -11  -5   -0.90    4.70
  -7  11  -5   -7.20    5.10
  -7 -12   5   26.60    8.10
   7 -12  -5   20.50    8.50
  -7 -12   5   21.70    5.30
  -7  12   5   12.60    5.70
  -7  12   5   21.40    7.30
  -6 -12   5    9.50    4.90
   6 -12  -5   10.00    5.20
  -6 -12   5    9.60    4.00
  -5 -12   5  104.29   10.60
  -5 -12   5   91.29    7.70
   5 -12  -5   78.89   11.90
  -5  12   5   84.69   11.10
  -4 -12   5   -1.50    2.30
   4 -12  -5   -4.10    3.00
  -4 -12   5   -3.90    2.10
  -4  12   5    2.40    3.10
  -3 -12   5   33.20    5.80
  -3 -12   5   28.20    6.20
   3 -12  -5   21.70    6.10
  -3  12   5   30.60    6.70
   2 -12  -5  144.89   11.60
  -2 -12   5  141.29    9.80
  -2 -12   5  148.09   11.20
  -2  12   5  148.69   10.80
  -1 -12   5    9.30    4.00
  -1 -12   5    7.30    3.70
   1 -12  -5    2.70    3.00
  -1  12   5   16.50    4.60
   0 -12  -5   55.49    8.50
   0 -12  -5   39.10    6.50
   0 -12   5   28.00    5.50
   0  12  -5   42.50    7.20
   0  12   5   40.60    6.00
  -1 -12  -5  249.68   11.30
  -1 -12  -5  249.08   14.30
   1 -12   5  246.78   14.50
   1  12   5  245.98   10.40
  -1  12  -5  250.27   13.80
  -2 -12  -5   38.90    4.70
  -2 -12  -5   40.80    7.60
   2 -12   5   28.10    6.30
   2  12   5   32.30    4.00
  -2  12  -5   30.50    6.70
   3 -12   5   20.90    5.60
  -3 -12  -5   21.90    5.40
  -3  12  -5   21.60    5.90
   4 -12   5   37.60    8.30
  -4 -12  -5   41.20    7.80
  -4  12  -5   35.30    7.10
  -5 -12  -5   24.40   10.00
  -5  12  -5   30.00   10.40
   6 -12   5   -2.60    4.20
  -6 -12  -5    4.00    4.70
  -6  12  -5   -0.90    4.00
   6 -13  -5    9.10    5.60
  -6 -13   5    5.60    5.20
  -6 -13   5   18.40    5.00
  -6  13   5   27.80    7.80
  -5 -13   5   -1.90    3.10
   5 -13  -5    1.40    4.20
  -5 -13   5    3.80    3.30
  -5  13   5    4.50    3.50
  -4 -13   5   93.79    8.20
   4 -13  -5   85.79   12.10
  -4 -13   5   87.89   11.80
  -4  13   5   92.69    9.40
   3 -13  -5    7.90    3.40
  -3 -13   5    5.40    3.40
  -3  13   5    3.00    3.10
  -2 -13   5   13.90    4.40
   2 -13  -5    2.90    3.60
  -2 -13   5    7.10    3.10
  -2  13   5   10.80    4.30
   1 -13  -5  100.29    9.30
  -1 -13   5  100.19    9.60
  -1 -13   5  115.89    9.60
  -1  13   5  104.69    9.30
   0 -13  -5   74.19    9.80
   0 -13   5   74.89   10.00
   0 -13  -5   67.99    8.60
   0  13  -5   78.89    9.90
  -1 -13  -5   57.69    7.00
   1 -13   5   84.59   11.10
  -1 -13  -5   70.49    9.50
  -1  13  -5   60.39    9.00
   2 -13   5   93.29   12.30
  -2 -13  -5   99.49   10.10
  -2 -13  -5   89.39    6.10
   2  13   5   90.69    5.60
  -2  13  -5   99.09    9.40
   3 -13   5   13.20    5.20
  -3 -13  -5   23.50    6.20
  -3  13  -5   14.50    3.90
   4 -13   5    0.10    3.40
  -4 -13  -5    3.40    3.40
  -4  13  -5   -1.30    2.80
   5 -13   5    4.10    5.60
  -5 -13  -5   -0.10    3.80
  -5  13  -5    3.10    3.90
   6 -13   5   49.99   10.10
  -6 -13  -5   43.30    8.80
  -6  13  -5   48.70    9.90
  -6 -14   5   24.80    8.00
   6 -14  -5   17.40    7.90
  -6 -14   5   26.70    5.70
  -6  14   5   23.50    7.20
  -5 -14   5    1.60    4.20
  -5 -14   5    0.30    6.30
   5 -14  -5    6.80    6.20
  -5  14   5   -0.40    4.20
  -4 -14   5   28.30    5.70
  -4 -14   5   26.00    6.90
   4 -14  -5   24.40    6.70
  -4  14   5   12.10    5.40
   3 -14  -5   -0.10    3.20
  -3 -14   5    3.20    3.40
  -3 -14   5   -1.60    3.00
  -3  14   5   -0.60    2.30
  -2 -14   5  140.39   10.60
  -2 -14   5  101.59   10.60
   2 -14  -5  125.19   11.40
  -2  14   5  133.49   11.10
  -1 -14   5    0.10    3.40
  -1 -14   5    2.20    3.10
   1 -14  -5    7.80    4.00
  -1  14   5    4.60    3.70
   0 -14   5   27.00    6.10
   0 -14  -5   30.50    6.10
   0 -14  -5   28.70    6.50
   0  14  -5   28.30    5.90
  -1 -14  -5  146.69   12.10
   1 -14   5  134.89   11.20
  -1 -14  -5  125.79    8.70
   1  14   5  137.39    8.60
  -1  14  -5  134.89   10.60
  -2 -14  -5    5.20    3.80
  -2 -14  -5    4.60    2.50
   2 -14   5   -3.20    2.60
  -2  14  -5    4.80    2.60
   2  14   5   -1.60    2.20
  -3 -14  -5    0.80    3.30
   3 -14   5    3.30    3.90
  -3  14  -5   -0.70    2.30
  -4 -14  -5   29.40    7.70
   4 -14   5   39.30    8.90
  -4  14  -5   28.50    6.90
   5 -14   5    3.00    5.30
  -5 -14  -5    4.80    4.40
  -5  14  -5    3.40    4.20
   5 -15  -5    2.80    4.80
  -5 -15   5   -1.80    3.90
  -5 -15   5    4.10    3.90
  -5  15   5    1.00    4.10
   4 -15  -5   46.10   10.80
  -4 -15   5   25.20    5.70
  -4  15   5   38.20   10.20
   3 -15  -5   34.10    8.00
  -3 -15   5   32.90    7.60
  -3 -15   5   24.30    5.40
  -3  15   5   22.10    5.80
  -2 -15   5    8.70    4.60
  -2 -15   5   30.20    6.50
   2 -15  -5   27.20    6.90
  -2  15   5   13.20    4.90
  -1 -15   5   62.19   10.00
  -1 -15   5   61.89    9.80
   1 -15  -5   42.20    8.10
  -1  15   5   59.09    9.80
   0 -15  -5   17.00    5.00
   0 -15  -5   28.10    6.60
   0 -15   5   20.80    5.60
   0  15  -5   21.00    5.80
  -1 -15  -5   -1.30    2.70
   1 -15   5    2.00    3.60
  -1 -15  -5    2.70    3.00
  -1  15  -5    3.60    2.90
  -2 -15  -5  103.09    7.30
  -2 -15  -5   94.79   12.70
   2 -15   5   87.39   12.90
  -2  15  -5   85.09   11.20
   2  15   5   91.09    6.30
   3 -15   5   12.00    7.60
  -3 -15  -5   15.20    8.20
   3  15   5   10.40    1.70
   3  15   5   10.30    1.60
   4 -15   5    5.50    5.10
  -4 -15  -5    8.10    4.40
  -4  15  -5    4.50    4.20
   5 -15   5    6.40    6.50
  -5 -15  -5   12.40    6.00
  -5  15  -5    9.20    5.40
  -5 -16   5   32.20    8.30
  -5 -16   5   37.60    6.50
   5 -16  -5   25.00    7.40
  -5  16   5   28.60    7.70
   4 -16  -5    4.60    4.70
  -4 -16   5    6.40    4.50
  -4 -16   5   13.80    5.90
  -4  16   5    8.00    4.20
  -3 -16   5    2.80    3.60
   3 -16  -5    0.00    3.80
  -3 -16   5    3.80    5.00
  -2 -16   5  107.29   10.10
  -2 -16   5  108.69   14.30
   2 -16  -5  111.69   11.30
  -2  16   5   75.69   10.50
   1 -16  -5   -2.40    3.40
  -1 -16   5    4.50    4.00
  -1 -16   5    1.20    3.50
   1  16  -5   10.30    4.60
  -1  16   5    1.80    3.30
   0 -16   5    4.90    3.60
   0 -16  -5    2.00    3.70
   0 -16  -5    6.60    4.60
   0  16  -5    7.90    4.00
  -1 -16  -5    4.70    4.60
   1 -16   5    0.40    4.30
  -1 -16  -5    0.50    3.10
  -1  16  -5   -0.40    3.40
  -2 -16  -5    2.10    3.50
   2 -16   5    7.20    4.10
  -3 -16  -5    7.40    4.70
   3 -16   5    4.20    5.10
  -3  16  -5    2.70    3.80
   3  16   5    0.40    2.40
  -4 -16  -5   40.10    9.00
   4 -16   5   46.10   10.40
  -4  16  -5   50.89    9.00
  -4 -17   5    7.10    5.00
  -4 -17   5    7.60    5.40
   4 -17  -5   -2.60    5.30
  -4  17   5    2.40    4.00
  -3 -17   5   46.80    8.60
   3 -17  -5   53.79   11.00
  -3 -17   5   51.69    9.00
  -3  17   5   39.20    7.60
   2 -17  -5    6.70    5.60
  -2 -17   5    7.00    4.30
  -2 -17   5   11.30    6.20
  -2  17   5   18.90    6.00
   1 -17  -5  107.29   11.20
  -1 -17   5  104.99   10.30
  -1  17   5  134.39   20.80
   1  17  -5  109.69   15.20
   0 -17  -5    9.40    4.10
   0 -17   5   24.20    7.50
   0 -17  -5   24.10    9.40
   0  17  -5    1.70    4.30
  -1 -17  -5   -2.00    3.30
   1 -17   5    2.70    3.80
  -1 -17  -5    2.10    3.40
  -1  17  -5    1.60    3.80
  -2 -17  -5    6.90    4.50
   2 -17   5    5.70    5.00
  -2 -17  -5    1.80    3.30
  -2  17  -5    0.90    4.10
  -3 -17  -5   20.30    7.30
   3 -17   5    8.30    5.70
  -3  17  -5   18.00    6.40
  -4 -17  -5   -4.50    5.10
   4 -17   5    6.20    5.10
  -4  17  -5    4.30    6.40
  -3 -18   5   11.60    4.30
  -3 -18   5    9.20    6.00
   3 -18  -5   11.10    6.10
  -3  18   5   11.10    6.00
  -2 -18   5   36.20    9.60
  -2 -18   5   50.69    8.60
  -2  18   5   53.79   10.20
   1 -18  -5   21.60    6.20
  -1 -18   5   28.90    6.80
   1  18  -5   21.00    7.20
  -1  18   5   39.00    7.90
   0 -18  -5   22.00    6.30
   0 -18   5   10.40    5.70
   0  18   5    8.90    6.20
   0  18  -5    9.60    5.60
  -1 -18  -5   30.60    7.80
  -1 -18  -5   41.60    7.50
   1 -18   5   46.90    9.60
  -1  18  -5   31.60    7.00
   2 -18   5    8.50    5.50
  -2 -18  -5   -1.80    4.00
  -2  18  -5   -4.90    3.60
   3 -18   5   21.40    7.00
  -3 -18  -5   14.50    7.70
  -3  18  -5   27.50    7.20
   2 -19  -5   -3.40    5.00
  -2 -19   5   -3.70    4.20
  -2 -19   5   -0.40    5.60
  -2  19   5    5.00    4.60
   1 -19  -5    1.70    4.90
   1  19  -5    6.60    4.80
  -1  19   5   -6.10    3.60
   0 -19  -5   18.40    5.10
   0 -19   5   38.10    9.60
   0  19   5   22.00    6.70
   0  19  -5   21.40    7.10
   1 -19   5    5.40    4.90
  -1 -19  -5   -0.60    4.30
  -1 -19  -5   -2.40    4.40
  -1  19  -5    8.00    4.50
  -8   0   6   95.19    9.50
  -8   0   6   93.99    9.50
  -7   0   6    9.00    4.20
  -7   0   6    2.00    3.20
  -6   0   6   10.20    3.40
  -6   0   6   11.10    3.60
  -5   0   6    1.50    1.80
  -5   0   6    5.30    2.60
   5   0  -6    3.60    2.40
  -4   0   6  536.95   16.80
   4   0  -6  520.95   15.00
  -4   0   6  518.75   15.10
  -4   0   6  493.75   18.00
   3   0  -6    1.60    1.40
  -3   0   6    2.10    1.30
   3   0  -6    2.30    1.70
  -3   0   6    1.60    1.50
  -2   0   6 1280.87   20.60
  -2   0   6 1283.27   25.50
   2   0  -6 1287.97   20.50
   2   0  -6 1279.97   25.50
  -1   0   6    0.70    0.80
   1   0  -6    0.60    1.00
   0   0   6    7.20    1.70
   0   0  -6    8.40    1.70
   0   0   6   12.40    1.20
  -1   0  -6    2.20    1.00
   1   0   6    1.00    0.80
  -1   0  -6    2.00    1.10
   1   0   6    3.70    1.40
   2   0   6  145.69    6.40
  -2   0  -6  137.29    5.80
  -2   0  -6  130.89    6.70
   2   0   6  124.89    6.40
   3   0   6    0.30    1.00
   3   0   6   -0.60    2.00
  -3   0  -6    0.90    1.30
  -3   0  -6    1.50    1.30
  -4   0  -6  522.05   14.70
  -4   0  -6  515.55   18.40
   4   0   6  534.75   16.00
   5   0   6    0.50    2.20
  -5   0  -6   -2.20    2.10
  -5   0  -6    2.40    2.80
  -6   0  -6   50.89    5.90
  -6   0  -6   34.40    6.40
   6   0   6   50.39    7.10
  -7   0  -6    2.40    3.90
   7   0   6   -3.70    5.80
  -8   0  -6   39.10    7.90
  -8   0  -6   53.89    7.10
  -8  -1   6    2.70    3.60
  -8  -1   6    1.30    3.70
  -8   1   6   -2.60    3.10
  -8   1   6   -2.50    3.40
  -7  -1   6    6.70    3.70
  -7  -1   6    6.60    3.50
  -7   1   6    7.70    4.30
  -7   1   6    6.70    3.70
  -6  -1   6    3.30    2.20
  -6  -1   6    9.30    3.50
  -6   1   6    6.00    3.10
  -6   1   6    6.30    3.10
   5  -1  -6   10.20    3.10
  -5  -1   6   13.60    3.20
  -5  -1   6   12.50    3.60
  -5   1   6   14.70    3.70
   5   1  -6   11.80    3.30
  -4  -1   6  587.44   19.90
   4  -1  -6  632.64   16.90
  -4  -1   6  618.04   16.90
  -4  -1   6  634.54   18.20
   4   1  -6  606.34   16.60
  -4   1   6  616.74   18.60
  -4   1   6  631.34   17.00
  -4   1   6  596.94   20.70
  -3  -1   6  200.78    7.50
  -3  -1   6  201.28    8.90
   3  -1  -6  207.38    7.50
  -3   1   6  202.78    9.30
   3   1  -6  195.18    7.40
  -3   1   6  200.88   10.60
  -3   1   6  203.58    7.50
   3   1  -6  207.58    9.00
   2  -1  -6   64.09    3.10
  -2  -1   6   67.09    3.20
  -2  -1   6   75.59    5.00
   2  -1  -6   79.19    5.10
  -2   1   6   73.39    3.30
   2   1  -6   68.29    3.20
  -2   1   6   65.49    4.80
   2   1  -6   66.49    4.80
  -1  -1   6  382.66   11.10
   1  -1  -6  371.36   10.70
  -1  -1   6  390.36    6.90
   1   1  -6  397.36    6.60
  -1   1   6  399.46   11.10
  -1   1   6  397.26    6.30
  -1   1   6  399.66    6.30
   1   1  -6  382.46   11.00
   0  -1   6  135.89    4.10
   0  -1  -6  137.89    4.10
   0  -1   6  141.59    6.10
   0  -1  -6  141.39    5.60
   0   1   6  140.79    4.10
   0   1   6  139.09    5.60
   0   1  -6  127.89    5.70
   0   1  -6  136.09    4.10
  -1  -1  -6   27.80    2.40
   1  -1   6   26.70    2.50
  -1  -1  -6   22.60    2.40
   1  -1   6   27.70    2.90
  -1   1  -6   22.70    3.10
   1   1   6   28.90    2.60
  -1   1  -6   25.60    2.50
   1   1   6   24.40    2.50
   2  -1   6  201.58    8.20
  -2  -1  -6  186.58    8.10
   2  -1   6  185.38    7.80
  -2  -1  -6  193.38    6.40
  -2   1  -6  183.68    7.30
   2   1   6  186.98    6.70
   2   1   6  187.48    8.00
  -2   1  -6  181.28    8.10
   3  -1   6   97.99    6.80
   3  -1   6   92.99    6.10
  -3  -1  -6   94.19    4.80
  -3  -1  -6   99.29    6.80
   3   1   6   87.69    5.10
  -3   1  -6   88.79    5.60
   3   1   6   84.59    6.40
  -3   1  -6   94.59    6.80
   4  -1   6   67.39    5.80
  -4  -1  -6   60.89    6.20
  -4  -1  -6   65.39    4.80
   4   1   6   61.09    4.80
  -4   1  -6   44.70    6.00
  -4   1  -6   56.89    5.30
  -5  -1  -6   67.39    5.50
  -5  -1  -6   84.19   10.50
   5  -1   6   73.69    7.20
   5   1   6   65.49    5.60
  -5   1  -6   77.79    6.50
  -5   1  -6   66.59    8.70
   6  -1   6  180.48   11.50
  -6  -1  -6  167.68   12.50
   6   1   6  160.88    9.50
  -6   1  -6  160.08   12.30
  -7  -1  -6   -1.00    2.60
   7  -1   6    1.70    3.40
  -7  -1  -6   -4.70    4.20
  -7  -1  -6   -2.20    3.40
  -7   1  -6   -4.60    3.10
  -8  -1  -6   41.80    8.30
  -8  -1  -6   56.59   10.40
  -8   1  -6   47.70    9.20
  -8   1  -6   43.70    6.90
  -8  -2   6   44.60    7.90
  -8  -2   6   53.39    7.70
  -8   2   6   55.89    9.00
  -8   2   6   62.69    9.90
  -7  -2   6   27.80    5.70
  -7  -2   6   28.70    5.80
  -7   2   6   34.60    6.40
  -7   2   6   25.90    5.50
  -6  -2   6   13.30    3.90
  -6  -2   6   11.70    4.10
  -6   2   6   20.40    4.70
  -6   2   6   12.20    4.30
  -5  -2   6  327.67   13.50
  -5  -2   6  321.47   13.20
   5  -2  -6  310.07   12.80
   5   2  -6  299.47   12.80
  -5   2   6  328.27   13.50
  -5   2   6  325.37   14.50
   4  -2  -6   38.30    4.90
  -4  -2   6   31.20    4.40
  -4  -2   6   26.40    4.00
  -4   2   6   30.60    4.30
  -4   2   6   28.60    4.70
   4   2  -6   27.80    4.40
  -4   2   6   30.70    6.70
   4   2  -6   32.00    4.50
  -3  -2   6  349.87   12.10
  -3  -2   6  356.06   10.60
   3  -2  -6  364.36   10.50
  -3   2   6  343.27   10.40
   3   2  -6  342.27   10.40
  -3   2   6  370.46   18.80
   3   2  -6  352.26   12.00
  -3   2   6  336.67   12.50
  -2  -2   6    7.50    2.10
  -2  -2   6    8.30    1.60
  -2   2   6    6.90    2.40
   2   2  -6    7.60    1.50
   2   2  -6    4.40    1.50
  -2   2   6    7.50    1.50
  -2   2   6    6.00    2.10
  -1  -2   6  834.72   18.40
  -1  -2   6  850.51   14.50
   1  -2  -6  838.32   17.90
   1   2  -6  829.92   14.00
   1   2  -6  853.61   18.10
  -1   2   6  813.22   13.80
  -1   2   6  829.72   18.00
  -1   2   6  825.62   13.70
   0  -2  -6    2.80    1.00
   0  -2  -6    2.60    1.10
   0  -2   6    4.90    1.20
   0   2   6    1.90    0.90
   0   2  -6    1.90    1.10
   0   2  -6    2.70    0.90
   0   2   6    4.90    1.20
  -1  -2  -6   15.50    2.10
  -1  -2  -6   15.20    2.50
   1  -2   6   17.70    2.50
   1  -2   6    9.30    2.10
   1   2   6   12.50    2.40
  -1   2  -6   16.10    2.60
  -1   2  -6   15.70    2.70
   1   2   6   15.80    2.10
  -2  -2  -6  532.15   14.90
   2  -2   6  531.55   15.10
   2  -2   6  543.55   14.80
   2   2   6  524.65   14.60
  -2   2  -6  517.15   14.80
   2   2   6  552.94   11.70
  -2   2  -6  537.65   14.50
  -3  -2  -6  199.68    9.80
   3  -2   6  182.18    9.00
  -3  -2  -6  181.58    6.00
   3  -2   6  171.78    9.00
  -3   2  -6  172.98    9.30
   3   2   6  178.78    9.20
  -3   2  -6  197.38    8.80
  -4  -2  -6   37.50    5.80
  -4  -2  -6   39.50    3.50
   4  -2   6   37.90    5.70
   4   2   6   41.50    3.70
  -4   2  -6   47.80    6.80
  -5  -2  -6   48.30    4.40
   5  -2   6   47.30    6.90
  -5  -2  -6   34.00    6.00
  -5   2  -6   49.90    8.10
   5   2   6   38.60    4.70
  -5   2  -6   42.30    5.40
  -6  -2  -6   -0.50    2.50
   6  -2   6    3.60    3.40
  -6  -2  -6    2.20    2.70
   6   2   6    1.20    2.10
  -6   2  -6    5.10    3.60
  -7  -2  -6   64.29   11.20
   7  -2   6  101.29   10.10
  -7  -2  -6   82.19    6.10
  -7   2  -6   99.69   13.70
  -8  -2  -6   22.40    6.50
   8  -2   6   15.20    5.30
  -8  -2  -6   26.90    4.90
  -8   2  -6   19.50    5.70
  -8  -3   6    1.20    3.90
  -8  -3   6   -5.40    3.40
  -8   3   6    4.80    4.80
  -8   3   6    1.40    3.90
  -7  -3   6  128.79    9.40
  -7  -3   6  141.49   10.80
  -7   3   6  104.09   10.10
  -7   3   6  139.79   10.80
  -6  -3   6    4.50    2.90
  -6  -3   6    0.70    2.70
  -6   3   6    0.90    2.20
  -6   3   6    4.70    2.90
  -5  -3   6    3.50    1.40
  -5  -3   6    4.40    2.10
   5  -3  -6    4.90    3.00
  -5   3   6    6.40    2.80
  -5   3   6    3.10    2.60
  -4  -3   6   17.30    3.40
   4  -3  -6   16.50    3.20
  -4  -3   6   10.30    2.90
   4   3  -6   14.90    3.30
  -4   3   6   18.00    3.60
  -4   3   6   16.10    3.80
   4   3  -6    7.70    2.80
   3  -3  -6   79.39    4.90
  -3  -3   6   82.09    5.10
  -3  -3   6   90.19    6.00
   3   3  -6   72.29    5.40
   3   3  -6   76.89    5.00
  -3   3   6   77.09    6.00
  -3   3   6   83.79    7.10
  -3   3   6   83.79    5.10
   2  -3  -6  248.38    7.60
  -2  -3   6  251.87    8.00
  -2  -3   6  262.87    9.60
   2   3  -6  260.57    7.90
  -2   3   6  250.27    7.70
  -2   3   6  251.27   11.10
   2   3  -6  247.88    9.20
  -2   3   6  245.88    9.70
  -1  -3   6  317.97   10.50
  -1  -3   6  315.07    8.50
  -1   3   6  317.77   11.50
  -1   3   6  321.67   10.10
  -1   3   6  335.67    8.20
  -1   3   6  316.97    7.90
   1   3  -6  316.77   10.30
   0  -3  -6   17.30    2.60
   0  -3  -6   22.00    2.70
   0  -3   6   27.40    4.00
   0   3   6   23.70    2.40
   0   3   6   25.10    2.30
   0   3  -6   23.80    3.50
   0   3  -6   21.00    2.60
  -1  -3  -6   51.39    3.80
   1  -3   6   57.09    4.00
   1  -3   6   52.79    4.60
  -1   3  -6   55.49    4.00
  -1   3  -6   51.29    4.30
   1   3   6   53.99    3.00
   1   3   6   54.99    3.90
  -2  -3  -6   43.40    2.30
   2  -3   6   46.80    4.70
   2  -3   6   45.90    4.20
  -2  -3  -6   48.00    4.20
  -2   3  -6   52.89    4.60
   2   3   6   41.90    2.50
  -2   3  -6   46.60    4.40
   2   3   6   42.80    4.20
  -3  -3  -6  267.87    6.40
   3  -3   6  256.97   11.60
   3  -3   6  256.27   11.20
  -3  -3  -6  267.27   11.70
  -3   3  -6  272.97   11.90
   3   3   6  266.97    7.10
  -3   3  -6  259.07   10.90
   3   3   6  265.27   11.40
  -4  -3  -6    1.20    3.00
   4  -3   6    5.30    2.60
  -4  -3  -6   -1.90    1.70
   4   3   6    3.60    1.50
  -4   3  -6    0.90    2.40
  -5  -3  -6   86.59    8.50
   5  -3   6   96.79    8.50
  -5  -3  -6   90.99    4.60
  -5   3  -6  105.89    9.20
  -6  -3  -6    9.60    2.30
  -6  -3  -6    7.50    3.70
   6  -3   6   11.40    4.90
  -6  -3  -6    7.70    2.60
  -6   3  -6    5.30    3.30
  -7  -3  -6   -0.60    3.40
   7  -3   6    3.20    4.00
  -7  -3  -6    2.30    2.40
  -7   3  -6    6.70    7.40
  -8  -3  -6    0.50    3.20
  -8  -3  -6    1.30    4.60
   8  -3   6    0.60    5.20
  -8   3  -6   -1.30    4.60
  -8  -4   6   -3.30    3.80
  -8  -4   6    1.00    3.40
  -8   4   6    2.50    4.40
  -8   4   6    4.70    4.10
  -7  -4   6    3.10    3.10
  -7  -4   6    5.70    3.90
  -7   4   6    9.90    4.00
  -7   4   6    9.30    4.40
  -6  -4   6   54.59    7.40
  -6  -4   6   44.20    6.20
  -6   4   6   49.00    7.60
  -6   4   6   39.50    6.60
  -5  -4   6   62.49    6.30
  -5  -4   6   58.99    5.70
  -5   4   6   71.79    6.50
  -5   4   6   64.29    6.90
  -4  -4   6  317.27   12.20
  -4  -4   6  325.87   12.30
  -4   4   6  297.37   11.80
   4   4  -6  281.27   11.50
  -4   4   6  309.17   13.50
   4   4  -6  294.47   13.40
  -3  -4   6  260.97   10.30
   3  -4  -6  233.18    8.90
  -3  -4   6  238.48    9.30
  -3   4   6  249.18   12.50
  -3   4   6  245.58   10.90
   3   4  -6  240.98    9.30
   3   4  -6  230.98    9.70
  -3   4   6  236.18    9.20
  -2  -4   6  400.96   12.50
  -2  -4   6  392.56   11.20
   2   4  -6  393.36   12.30
  -2   4   6  401.76   13.00
   2   4  -6  405.26   11.10
  -2   4   6  379.16   14.50
  -2   4   6  379.06   11.40
  -2   4   6  411.86   11.00
  -1  -4   6   32.20    3.00
  -1  -4   6   23.80    3.30
   1   4  -6   30.00    2.80
  -1   4   6   30.00    3.90
  -1   4   6   24.60    2.50
  -1   4   6   29.30    2.80
   1   4  -6   33.00    3.40
  -1   4   6   27.60    4.20
   0  -4   6    1.60    1.50
   0  -4  -6    0.00    0.90
   0   4  -6    0.10    1.30
   0   4   6    1.50    1.20
   0   4   6    1.90    1.50
   0   4   6    0.60    0.80
   0   4  -6    2.50    1.10
   0   4  -6    1.70    1.10
  -1  -4  -6 1497.65   28.10
   1  -4   6 1524.25   30.70
   1  -4   6 1504.65   28.00
   1   4   6 1525.85   24.20
  -1   4  -6 1525.95   29.80
   1   4   6 1535.75   28.30
  -1   4  -6 1537.15   28.50
   2  -4   6  146.39    8.20
  -2  -4  -6  137.09    3.70
   2  -4   6  129.19    7.20
  -2  -4  -6  154.98    8.00
   2   4   6  134.49    7.30
  -2   4  -6  138.39    7.80
   2   4   6  137.29    3.90
  -2   4  -6  141.89    7.70
   3  -4   6    2.80    2.60
   3  -4   6    1.60    1.80
  -3  -4  -6    2.70    1.80
  -3   4  -6    2.50    1.50
  -3   4  -6    0.00    1.70
   3   4   6    2.20    2.00
   3   4   6    2.00    0.50
   4  -4   6  176.68   10.70
  -4  -4  -6  184.18    3.70
  -4  -4  -6  177.78    3.70
  -4  -4  -6  198.58   11.40
  -4   4  -6  185.08   11.00
   5  -4   6   31.90    6.40
  -5  -4  -6   26.20    1.90
  -5  -4  -6   28.80    6.40
  -5  -4  -6   24.50    2.00
  -5   4  -6   25.90    5.90
  -6  -4  -6    4.20    3.30
  -6  -4  -6    5.00    1.70
   6  -4   6    8.80    4.60
  -6   4  -6    4.20    3.20
  -7  -4  -6   80.89    4.60
  -7  -4  -6   96.89   13.70
   7  -4   6   67.39   10.50
  -7   4  -6   72.59   10.40
   8  -4   6   12.30    5.70
  -8  -4  -6   14.90    5.70
  -8   4  -6   16.30    6.60
  -8  -5   6   -0.60    3.80
  -8  -5   6   -1.20    4.20
  -8   5   6    3.30    4.60
  -7  -5   6   46.10    6.40
  -7  -5   6   57.29    8.20
  -7   5   6   77.39   10.40
  -7   5   6   73.49    9.80
  -6  -5   6  168.58   11.40
  -6  -5   6  183.98   11.60
  -6   5   6  177.18   11.50
  -6   5   6  158.08   11.50
  -5  -5   6   58.59    5.80
  -5  -5   6   71.49    8.50
   5   5  -6   54.19    8.20
  -5   5   6   61.09    8.50
  -5   5   6   65.09    6.50
  -4  -5   6   79.59    6.20
  -4  -5   6   84.99    6.50
   4  -5  -6   68.99    6.00
  -4   5   6   81.09    6.30
  -4   5   6   89.39    8.30
   4   5  -6   79.59    6.40
   4   5  -6   80.69    6.00
   3  -5  -6    2.90    1.70
  -3  -5   6    7.70    2.20
  -3  -5   6    3.90    1.40
   3   5  -6    5.70    2.30
  -3   5   6    6.90    2.30
  -3   5   6    5.00    3.00
   3   5  -6    6.40    2.50
  -3   5   6    5.80    2.10
  -2  -5   6    4.60    1.90
  -2  -5   6    6.00    2.30
  -2   5   6    5.60    2.30
  -2   5   6    5.50    2.00
  -2   5   6    4.10    1.40
   2   5  -6    4.10    1.60
  -2   5   6    6.90    2.00
   2   5  -6    5.00    1.90
   1  -5  -6  175.18    7.70
  -1  -5   6  189.28    7.90
  -1  -5   6  186.68    8.40
   1   5  -6  202.98    8.50
   1   5  -6  182.18    7.50
  -1   5   6  194.18    7.60
  -1   5   6  181.18    7.90
  -1   5   6  189.18    9.20
   0  -5   6  774.92   19.50
   0  -5  -6  750.82   17.70
   0   5  -6  767.92   17.30
   0   5   6  796.92   16.70
   0   5   6  759.12   17.20
   0   5  -6  777.62   18.90
   0   5   6  772.22   18.10
   0   5  -6  783.12   18.30
  -1  -5  -6  179.48    8.20
   1  -5   6  208.08    9.80
   1  -5   6  192.58    8.40
   1   5   6  204.58    6.10
  -1   5  -6  201.18    9.30
  -1   5  -6  201.78    8.60
   1   5   6  204.38    8.40
   1   5   6  211.88    8.80
  -2  -5  -6   35.80    4.90
   2  -5   6   31.60    4.20
   2  -5   6   34.30    5.30
  -2   5  -6   23.20    4.00
   2   5   6   22.50    3.40
   2   5   6   34.50    1.70
   2   5   6   31.90    1.50
  -2   5  -6   33.80    4.80
   3  -5   6   14.90    3.90
   3  -5   6    2.40    2.10
  -3  -5  -6    7.20    3.10
  -3   5  -6    8.30    2.60
  -3   5  -6    9.80    2.90
   3   5   6    7.60    2.40
  -4  -5  -6   54.99    8.30
   4  -5   6   53.09    7.50
  -4   5  -6   47.80    7.20
   5  -5   6    2.80    3.20
  -5  -5  -6    0.20    3.30
  -5   5  -6    5.10    3.10
   6  -5   6    6.00    4.30
  -6  -5  -6   -1.70    2.90
  -6   5  -6    0.30    3.20
   7  -5   6    0.10    4.20
  -7  -5  -6   -1.60    4.00
  -7   5  -6    2.20    3.40
   8  -5   6   47.80   10.90
  -8  -5  -6   69.09   11.60
  -8   5  -6   69.69   10.90
  -8  -6   6   20.30    5.70
  -8  -6   6   16.40    5.20
  -8   6   6   18.90    5.70
  -8   6   6   11.80    4.70
  -7  -6   6   12.80    4.10
  -7  -6   6    5.00    3.50
  -7   6   6    9.70    5.70
  -7   6   6   11.30    4.40
  -6  -6   6   91.69    8.60
  -6   6   6   91.39    8.70
  -6   6   6  100.99    9.60
  -5  -6   6   23.90    4.40
  -5  -6   6   12.90    3.90
  -5   6   6   28.40    5.40
  -5   6   6   30.50    5.50
  -4  -6   6   58.79    5.40
  -4  -6   6   63.19    6.10
   4  -6  -6   53.39    6.40
   4   6  -6   65.09    6.20
  -4   6   6   65.29    6.20
   4   6  -6   57.19    5.50
  -4   6   6   60.59    6.40
  -3  -6   6   -1.10    1.30
   3  -6  -6   -1.50    1.40
  -3  -6   6   -1.20    1.50
   3   6  -6    3.50    2.30
  -3   6   6    3.50    2.00
  -3   6   6    0.90    2.00
  -3   6   6    0.30    1.90
  -2  -6   6  231.48    9.60
  -2  -6   6  223.08    9.70
   2  -6  -6  230.48   11.90
  -2   6   6  218.58    9.00
   2   6  -6  196.58    8.60
  -2   6   6  208.88    9.70
  -2   6   6  191.08    8.90
   2   6  -6  212.48    9.20
  -2   6   6  206.18   10.90
   1  -6  -6   47.90    4.70
  -1  -6   6   48.50    4.60
  -1  -6   6   43.70    4.50
  -1   6   6   48.20    4.30
   1   6  -6   44.60    4.30
  -1   6   6   48.10    4.30
   1   6  -6   51.29    4.60
  -1   6   6   47.30    6.30
   0  -6  -6   92.09    6.00
   0  -6   6  101.89    6.90
   0   6  -6  107.59    6.20
   0   6   6  112.29    5.60
   0   6   6   95.79    5.90
   0   6  -6  103.29    6.50
   0   6  -6  107.09    6.80
   0   6   6   97.29    6.20
  -1  -6  -6  115.79    6.90
   1  -6   6  117.99    7.70
  -1   6  -6  112.19    6.70
   1   6   6  109.69    5.10
  -1   6  -6  117.49    7.60
  -1   6  -6  115.49    7.50
   1   6   6  105.69    6.60
   2  -6   6  290.17   11.90
  -2  -6  -6  308.97   12.50
   2  -6   6  316.07   13.70
   2   6   6  298.97   12.20
   2   6   6  313.97    5.30
  -2   6  -6  305.17   12.30
   2   6   6  310.97    5.60
  -2   6  -6  292.87   12.50
  -3  -6  -6   24.60    5.10
   3  -6   6   12.70    3.10
  -3   6  -6   20.90    4.70
   4  -6   6  284.47   15.00
  -4  -6  -6  269.57   13.90
  -4   6  -6  255.17   13.50
   5  -6   6    7.10    3.60
  -5  -6  -6    5.10    3.30
  -5   6  -6    1.20    2.60
  -6  -6  -6   30.90    6.70
   6  -6   6   36.20    8.10
  -6   6  -6   37.30    7.20
   7  -6   6    6.30    4.90
  -7  -6  -6    8.20    5.70
  -7   6  -6    8.70    5.00
   8  -6   6   11.90    6.90
  -8  -6  -6   13.80    7.30
  -8   6  -6    7.20    6.00
  -8  -7   6    6.90    4.40
  -8  -7   6    4.20    4.50
  -8   7   6    4.00    4.80
  -8   7   6   13.50    5.50
  -7  -7   6   30.30    5.40
  -7  -7   6   34.60    7.40
  -7   7   6   31.90    6.60
  -6  -7   6   36.90    7.20
  -6   7   6   36.50    6.10
  -6   7   6   44.00    7.50
  -5  -7   6    0.40    1.90
  -5  -7   6    2.30    2.70
  -5   7   6    5.30    2.50
  -5   7   6    5.20    3.00
  -4  -7   6  302.67   12.40
  -4  -7   6  326.87   14.10
   4   7  -6  327.87   12.60
  -4   7   6  348.87   14.20
  -3  -7   6   53.89    5.10
   3  -7  -6   44.40    6.70
  -3  -7   6   49.50    6.20
  -3   7   6   53.79    5.10
   3   7  -6   53.89    5.00
   3   7  -6   51.59    5.30
  -3   7   6   55.99    6.80
  -2  -7   6   55.39    5.00
  -2  -7   6   49.90    5.00
   2  -7  -6   61.29    6.50
  -2   7   6   55.39    5.20
   2   7  -6   47.30    4.80
  -2   7   6   63.09    8.00
  -2   7   6   48.80    4.60
   1  -7  -6  781.32   21.20
  -1  -7   6  874.41   21.90
  -1  -7   6  811.22   21.20
   1  -7  -6  839.02   22.80
   1   7  -6  827.62   20.80
  -1   7   6  798.62   21.70
  -1   7   6  791.12   20.20
   0  -7   6  175.78    9.40
   0  -7  -6  156.18    8.40
   0   7   6  178.48    7.40
   0   7  -6  161.68    8.10
   0   7   6  167.78    7.90
   0   7  -6  166.68    8.70
   0   7  -6  155.08    8.30
   0   7   6  161.58    8.00
   1  -7   6   35.20    5.90
  -1  -7  -6   36.10    5.10
  -1   7  -6   30.50    5.00
   1   7   6   29.10    3.50
   1   7   6   26.80    2.60
  -1   7  -6   27.60    4.80
   1   7   6   21.70    4.20
  -2  -7  -6  216.98   10.90
   2  -7   6  227.68   12.10
   2  -7   6  217.88   10.60
   2   7   6  230.18    4.70
   2   7   6  222.08   10.80
  -2   7  -6  230.38   11.10
   2   7   6  227.98    4.80
  -3  -7  -6  225.08   15.30
   4  -7   6   -0.10    2.30
  -4  -7  -6    2.00    2.40
  -4   7  -6   -1.50    1.60
   5  -7   6   49.10    8.70
  -5  -7  -6   30.60    6.20
  -5   7  -6   29.30    5.70
  -6  -7  -6  101.39   10.60
   6  -7   6   62.49    9.80
  -6   7  -6   78.69   11.30
  -7  -7  -6    4.70    4.40
   7  -7   6    3.20    4.60
  -7   7  -6    2.40    4.50
  -8  -8   6    2.90    4.80
  -8  -8   6   10.90    5.00
  -8   8   6    3.30    4.80
  -8   8   6   -0.30    4.10
  -7  -8   6    9.70    4.10
  -7  -8   6   19.20    5.10
  -7   8   6   11.80    5.00
  -7   8   6   13.70    5.20
  -6  -8   6   29.30    6.30
  -6   8   6   14.10    4.90
  -6   8   6   14.60    4.80
   5  -8  -6  147.99   12.90
  -5  -8   6  162.58    9.40
  -5  -8   6  149.19   10.90
  -5   8   6  155.88   11.50
  -5   8   6  155.78   10.70
  -4  -8   6   16.00    3.90
  -4  -8   6   10.50    5.20
   4  -8  -6   10.80    4.30
   4   8  -6   14.40    3.60
  -4   8   6   26.80    6.40
  -3  -8   6  151.78    8.60
  -3  -8   6  146.29    9.10
   3  -8  -6  139.19   10.90
   3   8  -6  156.88    9.20
   3   8  -6  155.78    8.50
  -3   8   6  163.28    9.30
  -3   8   6  140.49    9.20
  -2  -8   6  253.07   11.10
  -2  -8   6  235.18   11.40
   2  -8  -6  234.98   12.80
  -2   8   6  229.48   10.50
  -2   8   6  214.88   12.10
   2   8  -6  244.38   11.00
  -2   8   6  231.68   10.90
   2   8  -6  236.08   10.50
  -1  -8   6  419.06   15.20
  -1  -8   6  425.56   15.10
   1  -8  -6  415.76   15.40
   1  -8  -6  436.96   16.10
  -1   8   6  390.36   16.90
   1   8  -6  386.76   14.00
  -1   8   6  437.06   16.70
   1   8  -6  403.96   16.20
   0  -8   6   36.40    5.80
   0  -8  -6   21.10    4.30
   0  -8  -6   24.20    4.40
   0   8   6   30.50    5.80
   0   8   6   30.20    4.50
   0   8  -6   24.40    4.30
   0   8  -6   30.80    5.20
   0   8  -6   23.80    4.30
   1  -8   6  120.19    8.70
  -1  -8  -6  119.79    8.00
  -1   8  -6  130.49    8.20
  -1   8  -6  121.39    9.80
   1   8   6  107.29    5.70
   1   8   6  111.69    7.60
   1   8   6  128.29    5.60
  -1   8  -6  119.99    8.20
   2  -8   6    5.70    2.70
  -2  -8  -6    8.00    3.00
   2   8   6    9.20    1.30
   2   8   6    9.80    1.30
  -2   8  -6   10.00    2.90
  -3  -8  -6   12.10    3.70
   3  -8   6   13.10    4.40
  -3   8  -6   15.60    4.00
   4  -8   6   70.39   10.30
  -4  -8  -6   81.29    8.10
  -4   8  -6   50.99    7.20
  -5  -8  -6   21.70    4.90
   5  -8   6   25.00    7.20
  -5   8  -6   27.30    6.30
   6  -8   6   -3.90    3.40
  -6  -8  -6    1.90    3.60
  -6   8  -6    3.50    4.10
   7  -8   6   65.99   11.80
  -7  -8  -6   76.39   11.90
  -7   8  -6   65.79   10.90
  -7  -9   6   95.29   12.60
  -7  -9   6   94.09    8.80
  -7   9   6   82.39   10.90
  -7   9   6   69.59    9.60
  -6  -9   6    6.90    4.00
  -6  -9   6    2.10    5.20
  -6   9   6    9.20    4.40
  -6   9   6    8.20    3.40
   5  -9  -6    4.60    3.10
  -5  -9   6    3.90    2.70
  -5  -9   6    4.80    3.40
  -5   9   6    1.70    2.60
  -4  -9   6   51.79    7.40
   4  -9  -6   57.99    9.30
  -4  -9   6   51.29    6.60
  -4   9   6   57.79    7.30
   4   9  -6   55.19    5.80
   3  -9  -6  433.36   19.60
  -3  -9   6  435.46   16.80
  -3  -9   6  400.46   14.90
  -3   9   6  442.16   16.40
   3   9  -6  363.86   13.70
  -2  -9   6  186.78   10.70
   2  -9  -6  201.98   12.20
  -2  -9   6  203.68   10.20
  -2   9   6  198.98   10.70
   2   9  -6  179.18    9.50
   2   9  -6  181.18   10.00
  -2   9   6  193.98   10.20
   1  -9  -6  258.27   12.40
  -1  -9   6  260.77   12.30
  -1  -9   6  242.28   12.10
   1  -9  -6  240.08   12.10
   1   9  -6  227.08   11.50
   1   9  -6  250.37   11.40
  -1   9   6  246.78   11.90
  -1   9   6  239.18   11.40
   0  -9   6    0.60    1.90
   0  -9  -6    1.90    2.00
   0  -9  -6    4.80    2.20
   0   9  -6    5.70    2.70
   0   9   6    4.90    2.50
   0   9  -6    3.90    2.90
   0   9   6    5.10    2.30
   1  -9   6    6.50    3.30
  -1  -9  -6    3.60    2.40
   1   9   6    7.00    2.10
   1   9   6   11.10    2.40
  -1   9  -6    7.10    2.90
   2  -9   6  170.28   11.50
   2   9   6  182.28    5.20
  -2   9  -6  171.98   12.40
   2   9   6  170.28    5.30
   3  -9   6   27.20    5.60
  -3  -9  -6   21.30    4.80
  -3   9  -6   32.30    5.70
  -4  -9  -6   24.80    5.40
   4  -9   6   38.10    7.80
  -4   9  -6   36.60    6.70
   5  -9   6   95.29   12.60
  -5  -9  -6   80.79   10.10
  -5   9  -6   67.89    8.80
  -6  -9  -6   14.20    5.10
   6  -9   6   10.60    5.70
  -6   9  -6    5.30    4.30
   7  -9   6   -1.00    5.00
  -7  -9  -6    0.50    5.00
  -7   9  -6   -2.30    4.00
  -7 -10   6   25.60    5.80
  -7 -10   6    5.20    5.00
  -7  10   6    7.20    5.80
  -7  10   6   27.20    7.60
  -6 -10   6    4.40    2.80
   6 -10  -6    1.90    7.80
  -6 -10   6    0.50    3.40
  -6  10   6   -0.60    3.00
  -6  10   6   -7.90    4.50
  -5 -10   6   40.10    5.70
  -5 -10   6   43.10    7.60
   5 -10  -6   37.20    7.40
  -5  10   6   50.49    8.00
  -4 -10   6  122.89   10.10
   4 -10  -6  109.29   11.30
  -4 -10   6  132.99    8.80
  -4  10   6  135.69   10.10
   3 -10  -6   21.60    6.00
  -3 -10   6   25.80    5.00
  -3 -10   6   28.60    5.70
  -3  10   6   28.80    5.00
  -2 -10   6  172.58   10.80
  -2 -10   6  180.98   10.40
  -2  10   6  173.48   10.20
  -1 -10   6  154.48   10.30
   1 -10  -6  156.38   10.40
   1 -10  -6  176.68   10.90
  -1 -10   6  164.38   10.00
  -1  10   6  140.09    9.40
   0 -10  -6  168.08   10.40
   0 -10   6  162.88   10.50
   0 -10  -6  177.08    9.80
   0  10  -6  166.48   10.00
   0  10   6  170.18    9.10
   1 -10   6   68.49    9.30
  -1 -10  -6   38.60    7.10
   1  10   6   49.99    4.60
   1  10   6   50.99    4.00
  -2 -10  -6  115.99    9.50
   2 -10   6  108.69    9.50
  -2  10  -6  106.49    8.70
   2  10   6  129.49    5.00
   3 -10   6    1.00    2.40
  -3 -10  -6   -0.50    2.00
  -3  10  -6    3.80    3.20
   4 -10   6  135.19   12.00
  -4 -10  -6  148.59   11.70
  -4  10  -6  156.08   11.80
   5 -10   6   11.60    4.90
  -5 -10  -6   22.90    5.90
  -5  10  -6   12.90    4.70
   6 -10   6    8.10    6.20
  -6 -10  -6    6.50    4.60
  -6  10  -6   11.90    5.20
  -7 -10  -6   27.30    7.70
   7 -10   6   23.70    8.50
  -7  10  -6   37.40    9.00
  -7 -11   6    8.10    5.00
  -7 -11   6   10.50    4.30
  -7  11   6   11.90    5.80
  -7  11   6   10.90    4.70
  -6 -11   6   46.70    6.50
   6 -11  -6   72.09   11.90
  -6 -11   6   67.49   10.20
  -6  11   6   58.09    9.50
  -6  11   6   43.30    7.70
  -5 -11   6   48.80   10.00
   5 -11  -6   50.89    9.60
  -5 -11   6   49.80    8.60
  -5  11   6   47.80    8.00
   4 -11  -6  289.97   18.00
  -4 -11   6  291.77   15.80
  -4 -11   6  296.87   13.40
  -4  11   6  303.67   15.60
   3 -11  -6    5.30    2.60
  -3 -11   6    9.20    3.80
  -3 -11   6    6.40    3.10
  -3  11   6    9.10    3.60
  -2 -11   6   80.29    9.90
  -2 -11   6   83.49    7.40
   2 -11  -6   77.99    8.30
  -2  11   6   75.69    7.40
   1 -11  -6    9.10    3.20
  -1 -11   6    2.90    2.70
   1 -11  -6    0.30    2.30
  -1  11   6    2.30    2.40
   0 -11  -6  392.26   15.50
   0 -11   6  404.66   17.50
   0 -11  -6  410.46   17.50
   0  11   6  398.16   14.90
   0  11  -6  421.86   17.00
  -1 -11  -6   60.49    5.40
   1 -11   6   69.59    9.50
  -1 -11  -6   59.89    8.70
   1  11   6   56.89    5.00
  -1  11  -6   49.10    6.90
   2 -11   6   80.29   10.70
  -2 -11  -6   44.90    7.40
   2  11   6   52.89    3.70
  -2  11  -6   43.00    6.50
   2  11   6   55.69    3.60
  -3 -11  -6   30.10    6.70
   3 -11   6   16.80    4.90
  -3  11  -6   33.20    6.30
   4 -11   6   34.00    7.80
  -4 -11  -6   43.60    8.20
  -4  11  -6   32.70    7.40
   5 -11   6   -4.60    2.90
  -5 -11  -6    2.80    3.70
  -5  11  -6   -1.80    3.00
   6 -11   6   54.09   11.30
  -6 -11  -6   54.19    9.40
  -6  11  -6   54.39    9.40
  -7  12   6   20.70    6.50
  -6 -12   6    6.50    4.20
  -6 -12   6   13.10    6.50
   6 -12  -6   11.40    4.90
  -6  12   6    3.70    4.70
  -5 -12   6    0.50    2.90
  -5 -12   6    1.20    3.20
   5 -12  -6    6.40    4.60
  -5  12   6   -2.20    2.80
  -4 -12   6  100.59    9.50
   4 -12  -6  108.69   11.70
  -4 -12   6   99.59   10.00
  -4  12   6  115.49   10.00
   3 -12  -6   19.80    4.90
  -3 -12   6   20.10    5.10
  -3 -12   6   11.90    4.60
  -3  12   6   12.80    3.90
  -2 -12   6   14.20    3.60
  -2 -12   6    9.60    4.10
   2 -12  -6   14.10    4.20
  -2  12   6   13.20    3.80
  -1 -12   6   98.99    9.00
   1 -12  -6  112.59   11.00
  -1 -12   6  117.59   10.10
  -1  12   6   93.89    8.50
   0 -12   6   10.20    4.20
   0 -12  -6   13.40    3.80
   0 -12  -6   10.20    4.20
   0  12   6   19.90    3.80
   0  12  -6   12.10    3.50
   1 -12   6   57.99    8.80
  -1 -12  -6   54.29    8.10
  -1 -12  -6   58.89    5.60
  -1  12  -6   64.49    9.20
   1  12   6   49.50    5.10
   2 -12   6  155.78   12.40
  -2 -12  -6  155.78   11.90
  -2  12  -6  142.29   10.80
   2  12   6  158.98    6.40
   2  12   6  139.99    6.40
  -3 -12  -6   77.09   10.30
   3 -12   6   59.89    9.20
  -3  12  -6   67.29   10.10
   4 -12   6   67.59   11.10
  -4 -12  -6   64.59    9.60
  -4  12  -6   74.99   10.80
   5 -12   6   98.69   14.00
  -5 -12  -6   81.79   11.70
  -5  12  -6   82.89   11.90
   6 -12   6   11.30    5.90
  -6 -12  -6   16.90    6.00
  -6  12  -6   16.20    5.80
  -6 -13   6   -5.10    4.00
   6 -13  -6    6.10    5.10
  -6 -13   6   -6.00    4.20
  -6  13   6    6.70    4.30
  -5 -13   6   -2.30    3.40
   5 -13  -6    1.00    4.50
  -5 -13   6   -1.20    3.20
  -5  13   6    1.30    3.00
  -4 -13   6    1.90    3.70
  -4 -13   6    0.60    2.70
   4 -13  -6    6.50    4.60
  -4  13   6   -2.80    2.40
  -3 -13   6  109.59    9.10
   3 -13  -6  122.89   11.40
  -3 -13   6  100.89   10.00
  -3  13   6  137.59   11.00
  -2 -13   6    7.00    4.00
   2 -13  -6    8.30    3.90
  -2 -13   6    0.90    2.90
  -2  13   6    7.40    3.10
  -1 -13   6   25.50    6.30
  -1 -13   6   23.30    5.80
   1 -13  -6   22.50    5.70
  -1  13   6   21.40    5.40
   0 -13   6  173.88   12.40
   0 -13  -6  198.08   13.10
   0 -13  -6  186.78   11.30
   0  13  -6  203.98   12.90
   1 -13   6    1.80    2.90
  -1 -13  -6    4.60    3.00
  -1 -13  -6    4.10    3.80
  -1  13  -6    4.40    3.20
   2 -13   6    7.60    3.80
  -2 -13  -6   13.30    4.60
   2  13   6   11.10    2.50
   2  13   6   12.00    2.40
  -2  13  -6    5.50    3.00
   3 -13   6   45.10    8.50
  -3 -13  -6   57.19    9.00
  -3  13  -6   52.79    8.10
  -4 -13  -6   25.10    6.60
   4 -13   6   37.10    7.70
  -4  13  -6   30.90    7.60
   5 -13   6   34.60    8.30
  -5 -13  -6   30.90    8.40
  -5  13  -6   31.60    7.40
  -6 -13  -6   25.10    7.90
   6 -13   6   25.70    7.90
  -6  13  -6   27.20    7.70
  -6 -14   6    8.80    5.80
  -6 -14   6    7.70    4.80
   6 -14  -6   -2.20    4.90
  -6  14   6    1.90    4.70
   5 -14  -6   72.99   12.60
  -5 -14   6   70.49   11.20
  -5 -14   6   58.39    7.70
  -5  14   6   68.79   15.00
  -4 -14   6    4.60    3.60
   4 -14  -6    2.00    4.00
  -4 -14   6    8.90    4.90
  -4  14   6    0.00    3.20
   3 -14  -6    7.00    3.60
  -3 -14   6    4.90    3.60
  -3 -14   6   11.70    4.10
  -3  14   6    0.20    2.60
  -2 -14   6    2.70    3.80
  -2 -14   6    0.70    2.70
   2 -14  -6    7.00    4.90
  -2  14   6    5.90    3.00
  -1 -14   6   90.19   11.50
  -1 -14   6  114.19   10.20
   1 -14  -6  111.39   10.10
  -1  14   6  121.99   10.30
   0 -14  -6   49.50    8.10
   0 -14  -6   38.20    6.80
   0 -14   6   35.30    6.80
   0  14  -6   48.90    8.50
  -1 -14  -6  482.15   21.90
  -1 -14  -6  458.35   16.70
   1 -14   6  505.75   22.70
  -1  14  -6  504.35   21.70
   1  14   6  452.15   15.90
  -2 -14  -6   17.90    5.70
   2 -14   6   25.40    6.40
   2  14   6   25.70    4.00
  -2  14  -6   24.80    6.10
   2  14   6   27.40    3.70
  -3 -14  -6    3.40    4.10
   3 -14   6   13.20    6.10
  -3  14  -6   12.30    5.10
  -4 -14  -6   12.20    5.10
   4 -14   6   -3.20    4.30
  -4  14  -6    1.10    4.20
   5 -14   6   38.00    9.00
  -5 -14  -6   26.10    6.70
  -5  14  -6   26.50    6.70
  -5 -15   6    3.30    4.50
   5 -15  -6    5.50    5.70
  -5 -15   6    9.60    5.60
  -5  15   6    4.00    4.70
   4 -15  -6    2.00    4.10
  -4 -15   6   -2.80    3.10
  -4  15   6    2.90    4.30
  -3 -15   6   15.10    4.30
  -3 -15   6   11.90    4.60
   3 -15  -6   17.80    6.00
  -3  15   6   11.30    4.40
   2 -15  -6    8.80    4.60
  -2 -15   6    0.70    2.80
  -2 -15   6    5.20    3.90
  -2  15   6    4.70    3.50
   1 -15  -6   35.40    6.40
  -1 -15   6   24.30    5.70
  -1 -15   6   39.90    8.40
  -1  15   6   29.10    6.40
   1  15  -6   33.20    6.60
   0 -15   6    6.00    3.10
   0 -15  -6    6.40    4.40
   0 -15  -6    1.10    3.00
   0  15  -6    9.70    4.90
  -1 -15  -6    6.20    4.10
   1 -15   6    6.50    4.20
  -1 -15  -6   -0.60    2.40
   1  15   6    4.40    3.50
  -1  15  -6    8.50    4.70
   2 -15   6   68.59   10.90
  -2 -15  -6   56.39    9.40
   2  15   6   54.59    5.70
  -2  15  -6   45.90    7.90
   2  15   6   48.20    4.70
   3 -15   6   51.79   10.00
  -3 -15  -6   73.49   15.30
  -3  15  -6   60.79   11.90
   4 -15   6    4.10    5.30
  -4 -15  -6    2.90    4.40
  -4  15  -6   -1.20    3.10
   5 -15   6   30.10    8.50
  -5 -15  -6   38.90    8.50
  -5  15  -6   37.10    8.70
  -5 -16   6   35.40    8.60
  -5 -16   6   30.00    6.50
   5 -16  -6   31.30    9.20
  -5  16   6   31.30    8.40
  -4 -16   6   -0.70    4.40
  -4 -16   6    0.50    3.90
   4 -16  -6    7.50    5.50
  -4  16   6   -0.70    3.80
  -3 -16   6   17.40    7.10
   3 -16  -6   22.80    6.20
  -3 -16   6    8.00    4.70
   2 -16  -6   52.39    9.20
  -2 -16   6   58.89    8.90
  -2 -16   6   44.70    8.60
  -2  16   6   52.79    9.70
  -1 -16   6   -1.90    3.60
   1 -16  -6    6.60    4.10
   1  16  -6   -1.70    2.90
  -1  16   6    6.50    4.30
   0 -16   6   47.80    8.50
   0 -16  -6   39.30    8.20
   0 -16  -6   37.10    6.20
   0  16  -6   51.69    9.00
  -1 -16  -6   25.70    5.20
   1 -16   6   26.40    6.50
  -1  16  -6   37.30    7.80
  -2 -16  -6   24.80    6.90
  -2  16  -6   48.00    9.80
   2  16   6   35.30    4.80
   2  16   6   32.70    4.70
  -3 -16  -6   16.30    5.40
   3 -16   6   21.00    7.20
  -3  16  -6   16.50    5.30
   4 -16   6   44.80    9.60
  -4 -16  -6   55.09    9.50
  -4  16  -6   68.09   11.40
  -4 -17   6   60.59   10.80
  -4 -17   6   61.99    8.70
   4 -17  -6   44.80   10.20
  -4  17   6   69.29   10.80
   3 -17  -6   18.40    5.70
  -3 -17   6   12.60    6.50
  -3 -17   6   10.90    4.80
  -3  17   6   15.10    5.90
  -2 -17   6    3.90    4.50
  -2 -17   6    0.00    3.90
   2 -17  -6   13.10    5.90
  -2  17   6   -0.40    3.20
   1 -17  -6    2.80    3.60
  -1 -17   6    5.50    4.70
  -1  17   6    0.30    3.40
   1  17  -6   -1.40    2.90
   0 -17  -6   75.49   11.10
   0 -17   6   70.79   10.40
   0 -17  -6   55.59    8.90
   0  17  -6   86.39   12.30
  -1 -17  -6    0.70    3.80
  -1 -17  -6   -0.40    3.50
  -1  17  -6    4.60    3.80
  -2 -17  -6   80.99   11.90
   2 -17   6   72.19   11.50
  -2  17  -6   89.69   12.00
   2  17   6   80.69    6.50
  -3 -17  -6   -0.70    4.70
   3 -17   6   -1.70    5.20
  -3  17  -6    1.10    4.00
   3 -18  -6    0.70    5.10
  -3 -18   6    1.80    4.10
  -3 -18   6    9.30    5.00
  -3  18   6   -1.10    4.50
  -2 -18   6  146.99   14.70
   2 -18  -6  115.29   21.80
  -2 -18   6  103.19   10.90
  -2  18   6  121.99   12.70
  -1 -18   6   16.40    5.90
   1 -18  -6   21.10    6.10
  -1  18   6    7.30    5.10
   1  18  -6   23.70    7.60
   0 -18  -6   29.50    7.90
   0 -18   6   18.30    6.90
   0 -18  -6   21.40    6.00
   0  18   6   20.00    6.10
   0  18  -6   31.80    7.90
  -1 -18  -6   10.90    5.90
  -1 -18  -6   13.90    5.80
   1 -18   6   25.90    7.70
  -1  18  -6   15.00    6.00
  -2 -18  -6    2.70    5.20
   2 -18   6    4.90    5.40
  -2  18  -6    2.20    3.80
   2  18   6   -1.20    2.70
  -3 -18  -6    4.30    5.60
   3 -18   6    0.30    5.90
  -3  18  -6    2.20    5.10
  -1 -19   6   24.80    6.30
   1 -19  -6   28.50    7.70
  -1  19   6   24.70    8.30
   1  19  -6   33.50    9.10
   0 -19   6    1.10    5.00
   0 -19  -6   -6.40    4.70
   0  19  -6    7.00    5.40
   0  19   6   10.20    5.40
  -1 -19  -6   -1.20    4.90
  -1 -19  -6    4.70    5.40
   1 -19   6    0.70    4.70
  -1  19  -6   -1.40    4.40
  -8   0   7   -1.10    4.00
  -8   0   7  -12.10    3.50
  -7   0   7   88.69    8.70
  -7   0   7   99.99    9.20
  -6   0   7   -2.20    2.40
  -6   0   7   -2.10    2.20
  -5   0   7  287.67   13.30
  -5   0   7  299.67   12.40
   5   0  -7  303.27   12.30
   4   0  -7    2.70    2.00
  -4   0   7    1.00    2.00
  -4   0   7    3.00    1.50
  -4   0   7    2.30    2.70
   3   0  -7 1118.79   21.20
  -3   0   7 1155.08   25.80
   3   0  -7 1154.68   26.60
  -3   0   7 1125.09   21.30
   2   0  -7   -0.90    0.60
   2   0  -7    0.10    1.20
  -2   0   7   -0.10    0.60
  -2   0   7   -0.70    1.00
   1   0  -7 1340.57   25.60
  -1   0   7 1306.67   25.50
   0   0   7    3.80    1.00
   0   0   7    3.90    1.40
   0   0  -7    4.70    0.90
   0   0  -7    2.80    1.20
  -1   0  -7 1361.36   24.60
  -1   0  -7 1342.77   24.00
   1   0   7 1354.46   24.90
   1   0   7 1320.67   23.70
   2   0   7   -0.60    1.20
  -2   0  -7    0.90    1.20
   2   0   7    1.00    1.30
  -2   0  -7    1.10    1.40
   3   0   7  356.66   11.80
  -3   0  -7  363.26   13.70
  -3   0  -7  351.66   10.90
   3   0   7  344.97   13.10
   4   0   7    0.40    1.90
  -4   0  -7    3.40    2.30
  -4   0  -7   -0.30    1.90
   5   0   7  363.46   14.00
  -5   0  -7  324.27   12.80
  -5   0  -7  355.06   16.60
  -6   0  -7   -1.20    2.60
  -6   0  -7   -1.00    3.40
   6   0   7    0.00    2.60
  -7   0  -7   25.20    9.10
  -8   0  -7    2.80    4.40
  -8   0  -7   -9.70    3.70
  -8  -1   7    9.40    4.80
  -8  -1   7    6.80    4.20
  -8   1   7   14.40    5.70
  -8   1   7   25.40    7.00
  -7  -1   7    5.00    3.00
  -7  -1   7   12.60    4.70
  -7   1   7    6.80    3.50
  -7   1   7    2.90    3.10
  -6  -1   7  212.08   11.90
  -6  -1   7  188.38   11.30
  -6   1   7  188.78   11.20
  -6   1   7  212.48   12.30
   5  -1  -7   19.30    3.80
  -5  -1   7   12.60    3.20
   5   1  -7   15.30    3.60
  -5   1   7   26.70    4.70
  -5   1   7   20.50    4.70
  -4  -1   7  153.68   10.00
   4  -1  -7  155.08    7.50
  -4  -1   7  142.99    8.50
  -4  -1   7  159.98    7.70
  -4   1   7  160.98    7.70
   4   1  -7  137.69    8.20
   4   1  -7  154.68    7.60
  -4   1   7  159.48    9.20
   3  -1  -7  896.71   22.10
  -3  -1   7  955.00   18.70
   3  -1  -7  907.91   18.30
  -3  -1   7  898.51   22.10
   3   1  -7  930.21   18.60
  -3   1   7  942.01   25.60
  -3   1   7  878.61   22.30
  -3   1   7  937.31   18.60
  -2  -1   7   99.49    6.10
  -2  -1   7   98.79    3.70
   2  -1  -7  100.79    3.60
   2  -1  -7  102.59    6.10
  -2   1   7   89.59    3.40
   2   1  -7   95.89    5.80
  -2   1   7   96.39    6.00
   2   1  -7   99.29    3.70
  -1  -1   7   35.70    3.60
   1  -1  -7   48.00    3.80
   1   1  -7   40.60    3.70
   1   1  -7   40.60    1.40
   1   1  -7   43.60    1.40
  -1   1   7   44.90    3.90
   0  -1  -7    1.80    0.80
   0  -1   7    1.90    0.80
   0  -1  -7    2.30    1.00
   0  -1   7    3.20    1.30
   0   1  -7    3.30    1.00
   0   1  -7    4.40    1.50
   0   1   7    1.80    0.80
   0   1   7    0.10    0.60
  -1  -1  -7  306.47    8.80
   1  -1   7  304.17   10.10
  -1  -1  -7  319.87    9.20
   1  -1   7  308.77    9.10
   1   1   7  297.87    8.90
  -1   1  -7  322.07    9.30
   1   1   7  307.07    9.10
  -1   1  -7  303.47    9.60
  -2  -1  -7  131.19    7.00
   2  -1   7  134.49    7.00
  -2  -1  -7  140.39    5.70
   2  -1   7  142.39    7.10
  -2   1  -7  131.69    7.10
   2   1   7  140.79    6.20
  -2   1  -7  154.78    6.90
   2   1   7  130.69    6.90
  -3  -1  -7   44.20    5.70
   3  -1   7   53.29    5.00
  -3  -1  -7   52.09    4.00
   3  -1   7   60.09    6.90
  -3   1  -7   56.49    5.40
   3   1   7   48.40    4.10
   3   1   7   55.79    5.50
  -3   1  -7   50.69    4.40
  -4  -1  -7   45.70    4.10
  -4  -1  -7   47.40    8.20
   4  -1   7   52.39    6.50
   4   1   7   48.10    4.40
  -4   1  -7   52.19    6.20
  -4   1  -7   35.70    6.30
  -5  -1  -7  125.29    9.80
   5  -1   7  128.19    8.90
  -5  -1  -7  118.89    6.90
  -5   1  -7  112.29    7.50
   5   1   7  133.79    7.90
  -5   1  -7  120.69    9.80
  -6  -1  -7   53.29    7.30
   6  -1   7   66.29    8.80
  -6   1  -7   98.99    9.40
   6   1   7   88.09    7.10
  -7  -1  -7   26.10    8.20
  -7  -1  -7   43.60    6.50
   7  -1   7   62.49    8.60
   7   1   7   39.10    6.30
  -7   1  -7   52.99   10.90
  -8  -1  -7    0.50    4.90
  -8  -1  -7    2.20    3.70
   8  -1   7    2.30    5.10
  -8   1  -7    2.90    5.00
  -8  -2   7   42.00    7.50
  -8  -2   7   51.19    8.50
  -8   2   7   54.89    9.30
  -8   2   7   44.20    7.50
  -7  -2   7   49.70    7.50
  -7  -2   7   63.89    9.00
  -7   2   7   52.29    8.20
  -7   2   7   45.30    7.90
  -6  -2   7   48.10    7.40
  -6  -2   7   49.10    7.10
  -6   2   7   56.29    7.30
  -6   2   7   44.60    7.30
  -5  -2   7   16.10    3.90
   5  -2  -7   18.40    4.00
  -5  -2   7   15.30    3.90
  -5   2   7   21.90    4.30
   5   2  -7   15.40    3.90
  -5   2   7   13.70    3.60
  -4  -2   7  318.67   12.70
   4  -2  -7  332.47   11.40
  -4  -2   7  326.27   11.30
  -4   2   7  334.17   11.60
   4   2  -7  308.07   12.50
   4   2  -7  331.87   11.70
  -4   2   7  324.77   13.50
  -3  -2   7  150.88    8.00
   3  -2  -7  162.88    6.50
  -3  -2   7  157.08    6.60
  -3   2   7  160.08    6.60
  -3   2   7  156.68    9.90
   3   2  -7  157.98    6.60
  -3   2   7  171.68    8.90
   2  -2  -7  488.75   14.40
   2  -2  -7  503.05   10.40
  -2  -2   7  509.35   14.70
  -2  -2   7  507.25   10.90
   2   2  -7  476.15   14.60
   2   2  -7  508.05   14.50
  -2   2   7  513.55   10.60
  -2   2   7  516.85   14.90
   1  -2  -7   44.60    3.70
  -1  -2   7   40.90    3.80
  -1   2   7   47.00    2.20
   1   2  -7   47.50    2.30
   1   2  -7   44.40    2.20
  -1   2   7   40.90    2.00
  -1   2   7   50.09    4.00
   1   2  -7   47.10    4.00
   0  -2   7   32.60    4.20
   0  -2   7   29.50    2.20
   0  -2  -7   28.90    2.90
   0  -2  -7   31.70    2.30
   0   2  -7   27.50    3.40
   0   2  -7   23.80    2.00
   0   2   7   29.30    2.80
   0   2   7   31.30    2.20
  -1  -2  -7  536.25   13.10
   1  -2   7  524.75   13.00
   1  -2   7  543.25   14.90
  -1  -2  -7  572.64   12.40
   1   2   7  536.15   12.40
   1   2   7  546.75   13.20
  -1   2  -7  562.54   13.50
  -1   2  -7  537.25   14.30
   2  -2   7  902.21   20.90
  -2  -2  -7  908.11   17.10
  -2  -2  -7  939.81   21.50
   2  -2   7  948.21   21.90
  -2   2  -7  949.21   21.60
   2   2   7  894.71   20.90
   2   2   7  914.41   17.80
  -2   2  -7  913.11   20.80
   3  -2   7   17.40    3.40
  -3  -2  -7   32.80    5.10
  -3  -2  -7   23.20    2.90
   3  -2   7   25.10    4.30
   3   2   7   23.80    3.90
  -3   2  -7   24.20    3.70
  -3   2  -7   20.20    4.00
   3   2   7   21.70    2.90
   4  -2   7  311.07   13.40
  -4  -2  -7  314.67    9.10
  -4   2  -7  315.17   12.40
   4   2   7  300.67   10.00
  -5  -2  -7    4.60    2.10
  -5  -2  -7   -1.60    1.90
   5  -2   7    3.80    2.50
  -5   2  -7   -1.20    2.00
   5   2   7    0.10    2.00
  -5   2  -7    3.00    3.40
   6  -2   7    7.60    4.20
  -6  -2  -7   11.90    3.90
  -6  -2  -7    9.30    3.00
   6   2   7   11.60    3.10
  -6   2  -7   20.80    5.40
  -7  -2  -7    5.30    3.80
   7  -2   7   -1.80    3.70
  -7  -2  -7    2.70    2.60
  -7   2  -7    5.00    4.00
  -8  -2  -7   11.30    5.50
   8  -2   7    8.40    6.10
  -8  -2  -7   13.60    4.20
  -8   2  -7   10.30    5.80
  -8  -3   7   -6.20    3.00
  -8  -3   7    0.00    3.90
  -8   3   7    2.00    4.30
  -8   3   7   -5.00    3.30
  -7  -3   7   20.90    5.10
  -7  -3   7    7.80    4.10
  -7   3   7   12.50    4.30
  -7   3   7   11.30    5.00
  -6  -3   7  272.87   13.00
  -6  -3   7  246.88   12.90
  -6   3   7  242.28   13.70
  -6   3   7  233.28   12.80
  -5  -3   7    2.10    2.10
  -5  -3   7    2.50    2.30
   5  -3  -7    0.00    2.40
   5   3  -7    3.10    2.70
  -5   3   7    0.80    2.20
  -5   3   7    2.70    2.20
  -4  -3   7  408.26   13.40
   4  -3  -7  393.26   12.90
  -4  -3   7  366.16   13.60
   4   3  -7  371.76   13.80
   4   3  -7  392.26   13.10
  -4   3   7  398.76   15.50
  -4   3   7  377.06   12.80
  -3  -3   7    1.50    1.40
   3  -3  -7    2.40    1.30
  -3  -3   7    3.10    1.20
  -3   3   7    1.10    1.20
  -3   3   7    1.90    1.30
   3   3  -7    3.80    1.50
  -3   3   7    0.50    1.80
  -2  -3   7  145.19    5.70
  -2  -3   7  156.98    7.80
  -2   3   7  149.19    6.00
  -2   3   7  128.89    7.20
  -2   3   7  148.79    9.00
   2   3  -7  153.68    5.70
   2   3  -7  151.78    7.40
   1  -3  -7   48.80    4.00
  -1  -3   7   53.19    3.40
  -1  -3   7   53.59    4.50
  -1   3   7   46.80    4.00
  -1   3   7   43.90    2.70
   1   3  -7   49.40    4.20
  -1   3   7   52.99    3.00
   0  -3   7  635.24   16.50
   0  -3  -7  638.24   14.50
   0  -3  -7  657.83   15.00
   0   3   7  641.14   13.30
   0   3  -7  649.74   15.00
   0   3   7  669.83   15.00
   0   3  -7  649.83   14.40
   0   3  -7  640.74   16.30
   1  -3   7   17.40    3.40
  -1  -3  -7   20.70    2.20
  -1  -3  -7   22.60    3.30
   1  -3   7   13.10    2.40
  -1   3  -7   14.10    3.00
  -1   3  -7   16.80    2.80
   1   3   7   14.50    2.40
   1   3   7   23.30    2.30
  -2  -3  -7 1126.89   24.50
   2  -3   7 1073.59   23.90
   2  -3   7 1119.69   25.50
   2   3   7 1108.79   19.30
   2   3   7 1076.09   24.00
  -2   3  -7 1094.99   24.50
  -2   3  -7 1130.89   24.80
   3  -3   7  364.96   14.10
  -3  -3  -7  366.16   14.10
   3  -3   7  329.47   13.20
   3   3   7  345.47   13.50
  -3   3  -7  339.87   15.20
  -3   3  -7  339.37   13.60
   3   3   7  348.57    9.00
  -4  -3  -7   23.70    5.10
   4  -3   7   21.20    4.80
  -4  -3  -7   22.30    2.50
  -4   3  -7   21.70    4.90
  -4   3  -7   24.50    4.70
   5  -3   7   26.10    5.70
  -5  -3  -7   30.30    5.00
  -5  -3  -7   27.20    3.00
   5   3   7   31.00    3.30
  -5   3  -7   28.00    5.70
  -6  -3  -7   71.19    4.30
  -6  -3  -7   56.69    4.40
   6  -3   7   65.19    9.10
  -6  -3  -7   45.40    7.20
  -6   3  -7   79.39   10.30
   7  -3   7   -0.20    4.30
  -7  -3  -7   -2.80    2.50
  -7  -3  -7    6.30    3.30
  -7  -3  -7    3.90    3.50
  -7   3  -7    8.60    4.30
  -8  -3  -7    0.80    3.30
  -8  -3  -7   10.80    5.80
   8  -3   7    6.00    4.90
  -8   3  -7    6.70    5.20
  -8  -4   7   49.70    8.90
  -8  -4   7   41.70    6.70
  -8   4   7   33.80    7.30
  -8   4   7   42.40    7.70
  -7  -4   7   92.79    8.40
  -7  -4   7   86.49    9.00
  -7   4   7   91.69    9.70
  -7   4   7   79.69   10.10
  -6  -4   7   -1.30    2.40
  -6  -4   7   -2.20    2.10
  -6   4   7    0.20    2.70
  -6   4   7   -0.60    2.10
  -5  -4   7  118.59    8.10
  -5  -4   7  111.59    8.00
  -5   4   7  104.99    8.80
  -5   4   7  107.99    7.80
  -4  -4   7  200.88    9.50
  -4  -4   7  200.48   10.00
   4  -4  -7  193.38    9.00
  -4   4   7  195.88   13.90
   4   4  -7  199.28    9.50
  -4   4   7  188.48    9.20
   4   4  -7  189.38    9.70
  -3  -4   7    6.10    2.30
   3  -4  -7    8.10    2.00
  -3  -4   7   11.60    2.60
  -3   4   7    7.60    2.90
  -3   4   7    8.90    2.20
   3   4  -7   10.40    2.80
  -3   4   7    7.60    2.70
   3   4  -7    7.90    2.20
  -2  -4   7  325.07   10.00
  -2  -4   7  333.57   11.90
  -2   4   7  321.67    9.50
  -2   4   7  326.97   12.10
   2   4  -7  323.37   11.60
  -2   4   7  349.57   14.20
   2   4  -7  349.07    9.90
  -2   4   7  326.07   10.10
   1  -4  -7   56.39    3.90
  -1  -4   7   61.09    4.20
  -1  -4   7   52.49    4.70
   1   4  -7   61.19    3.90
   1   4  -7   59.69    4.80
  -1   4   7   54.49    3.60
  -1   4   7   60.99    5.30
  -1   4   7   59.89    4.60
   0  -4  -7  844.02   17.70
   0  -4   7  834.02   20.60
   0  -4  -7  837.42   17.50
   0   4   7  851.11   17.90
   0   4  -7  877.01   18.60
   0   4  -7  845.82   20.10
   0   4   7  822.52   17.20
   0   4   7  874.51   20.00
   0   4  -7  846.32   17.50
   1  -4   7   -0.40    1.20
  -1  -4  -7    4.80    1.30
  -1  -4  -7    2.60    1.60
   1  -4   7    2.50    1.40
   1   4   7    2.80    0.90
  -1   4  -7    0.20    1.40
  -1   4  -7    3.20    1.70
   1   4   7    2.70    1.40
  -2  -4  -7  477.85    9.60
   2  -4   7  490.25   15.00
   2  -4   7  507.85   16.50
  -2  -4  -7  468.15   14.90
  -2   4  -7  479.75   15.10
   2   4   7  464.35   14.60
   2   4   7  473.25   10.00
   3  -4   7   78.49    7.00
  -3  -4  -7   74.79    2.60
   3  -4   7   67.29    6.20
  -3  -4  -7   67.89    6.10
   3   4   7   70.89    2.90
   3   4   7   62.49    6.00
  -3   4  -7   74.19    6.50
  -3   4  -7   67.79    6.10
  -4  -4  -7   69.89    6.90
   4  -4   7   72.29    8.90
  -4  -4  -7   63.69    2.30
  -4   4  -7   70.39    7.20
   5  -4   7    1.70    3.00
  -5  -4  -7    1.90    1.00
  -5  -4  -7    1.50    0.90
  -5  -4  -7    1.50    2.40
  -5   4  -7    3.80    3.40
  -6  -4  -7  128.09   11.20
  -6  -4  -7  116.29    4.10
   6  -4   7  116.59   10.50
  -6  -4  -7  111.89    3.80
  -6   4  -7  125.89   11.20
  -7  -4  -7    9.30    2.40
   7  -4   7    4.00    4.10
  -7  -4  -7   10.00    1.80
  -7  -4  -7    8.90    4.40
  -7   4  -7   10.50    5.00
  -8  -4  -7   26.50    8.10
   8  -4   7   24.50    6.70
  -8   4  -7   30.90    9.30
  -8  -5   7    5.20    3.80
  -8   5   7    9.00    4.90
  -8   5   7    8.70    5.30
  -7  -5   7   38.60    7.40
  -7  -5   7   39.90    6.70
  -7   5   7   46.30    7.60
  -7   5   7   45.80    8.50
  -6  -5   7    3.40    3.20
  -6  -5   7    2.20    3.00
  -6   5   7    6.40    3.70
  -6   5   7    3.90    3.40
  -5  -5   7   98.19    7.70
  -5  -5   7   88.39    7.30
  -5   5   7   86.99    7.50
  -5   5   7  104.39    9.10
   4  -5  -7   16.70    3.30
  -4  -5   7   22.70    4.40
  -4  -5   7   16.00    3.60
  -4   5   7   14.00    4.30
  -4   5   7   15.60    3.70
   4   5  -7   17.70    3.80
   4   5  -7   11.00    3.20
   3  -5  -7  140.29    7.00
  -3  -5   7  147.79    8.10
  -3  -5   7  143.09    7.50
   3   5  -7  133.59    7.80
  -3   5   7  137.49    7.20
  -3   5   7  133.49    8.50
   3   5  -7  134.39    7.20
  -2  -5   7    2.00    1.70
  -2  -5   7    3.30    1.70
  -2   5   7    0.90    1.20
  -2   5   7    1.20    1.20
   2   5  -7    0.00    1.00
  -2   5   7    0.90    1.20
  -2   5   7    0.10    1.80
   2   5  -7    1.50    1.50
   1  -5  -7   62.79    4.70
  -1  -5   7   63.39    5.20
  -1  -5   7   55.49    4.40
  -1   5   7   60.99    4.20
   1   5  -7   45.80    4.40
  -1   5   7   59.89    5.50
   1   5  -7   50.39    4.00
  -1   5   7   57.29    4.60
   0  -5  -7    0.50    1.00
   0  -5   7    2.50    1.70
   0   5   7    0.80    0.90
   0   5  -7    2.10    1.40
   0   5   7    1.80    1.30
   0   5   7    0.90    1.00
   0   5  -7    2.50    1.50
   0   5  -7    1.30    1.50
   1  -5   7  165.38    9.10
  -1  -5  -7  184.58    8.30
   1  -5   7  187.38    8.20
   1   5   7  178.58    8.10
  -1   5  -7  167.18    7.90
   1   5   7  176.08    6.90
   1   5   7  188.38    6.30
   2  -5   7  128.69    8.50
  -2  -5  -7  148.19    8.30
   2  -5   7  125.89    8.90
   2   5   7  128.09    4.10
  -2   5  -7  140.59    8.10
   2   5   7  135.49    4.60
  -2   5  -7  130.09    8.20
   3  -5   7  520.05   18.90
  -3  -5  -7  511.25   17.80
  -3   5  -7  516.65   18.00
  -3   5  -7  551.04   20.40
  -4  -5  -7    2.70    2.40
  -4   5  -7    3.20    2.60
   5  -5   7   34.40    6.80
  -5  -5  -7   22.90    4.90
  -5   5  -7   38.10    7.40
  -6  -5  -7   37.50    7.40
   6  -5   7   38.90    7.90
  -6   5  -7   32.90    7.60
   7  -5   7    0.80    4.50
  -7  -5  -7    3.40    4.00
  -7   5  -7   -1.60    3.70
  -8  -5  -7    8.10    7.10
  -8   5  -7   24.50    8.00
  -8  -6   7   -1.60    4.10
  -8  -6   7   -1.00    4.00
  -8   6   7   -1.60    3.90
  -8   6   7    5.30    4.80
  -7  -6   7   65.29    8.20
  -7  -6   7   69.99    9.40
  -7   6   7   72.09   11.00
  -7   6   7   55.69    9.00
  -6  -6   7    7.60    3.20
  -6  -6   7    2.80    2.70
  -6   6   7    6.80    3.70
  -6   6   7    8.60    3.70
  -5  -6   7  255.17   12.90
  -5  -6   7  255.57   12.00
  -5   6   7  241.08   13.80
  -4  -6   7   53.59    5.60
   4  -6  -7   54.19    5.50
  -4  -6   7   54.29    6.60
  -4   6   7   51.09    5.30
  -4   6   7   67.39    8.90
   4   6  -7   56.79    6.70
   4   6  -7   45.50    5.60
  -3  -6   7   10.30    2.90
  -3  -6   7   15.90    3.60
   3   6  -7   10.20    2.90
  -3   6   7    9.20    3.20
  -3   6   7    7.80    2.40
  -3   6   7    1.50    2.10
   3   6  -7   12.90    2.70
  -2  -6   7   65.69    5.60
  -2  -6   7   58.89    5.10
   2   6  -7   60.49    4.80
  -2   6   7   48.80    6.40
  -2   6   7   67.39    5.70
  -2   6   7   67.59    5.30
  -2   6   7   57.69    4.60
   2   6  -7   59.39    5.30
   1  -6  -7  275.17   10.70
  -1  -6   7  264.57   10.50
  -1  -6   7  273.47   11.40
  -1   6   7  279.37   10.60
  -1   6   7  273.97   10.00
  -1   6   7  275.57   11.90
   1   6  -7  268.07   10.10
   0  -6   7    0.90    1.40
   0  -6  -7   -0.10    1.10
   0   6  -7    1.80    1.60
   0   6  -7   -0.70    1.00
   0   6  -7    2.10    1.80
   0   6   7   -0.80    1.10
   0   6   7    0.60    1.30
   0   6   7    2.00    1.10
  -1  -6  -7  493.65   15.00
   1  -6   7  471.85   16.40
   1   6   7  441.26   13.90
  -1   6  -7  445.86   15.30
  -1   6  -7  424.66   15.00
   1   6   7  463.55   12.20
   1   6   7  465.15   11.00
  -1   6  -7  477.25   14.70
   2  -6   7  121.69    8.80
   2  -6   7  139.79    8.20
  -2  -6  -7  127.79    8.00
  -2   6  -7  116.99    7.70
   2   6   7  130.29    8.00
   2   6   7  126.39    3.70
  -2   6  -7  122.19    8.30
   2   6   7  125.89    4.10
   3  -6   7   98.29    8.40
  -3  -6  -7   88.59    7.50
  -3   6  -7   91.39    7.60
  -4  -6  -7    1.20    1.90
   4  -6   7    2.10    3.30
  -4   6  -7    2.30    2.60
   5  -6   7   41.70    7.50
  -5  -6  -7   35.00    6.80
  -5   6  -7   35.20    6.70
   6  -6   7   -2.20    3.40
  -6  -6  -7    1.90    3.40
  -6   6  -7    1.70    2.90
   7  -6   7   34.40    8.40
  -7  -6  -7   41.00    8.40
  -7   6  -7   43.10    8.40
  -8  -7   7   -1.00    4.40
  -8  -7   7   -0.80    4.70
  -8   7   7    1.30    5.40
  -8   7   7   -3.60    4.60
  -7  -7   7   22.50    5.00
  -7  -7   7   27.80    6.80
  -7   7   7   19.10    5.70
  -7   7   7   20.80    5.90
  -6  -7   7  101.39    9.50
  -6  -7   7   98.49    8.10
  -6   7   7   87.19    9.00
  -6   7   7   99.49    9.40
  -5  -7   7    2.50    2.40
  -5  -7   7    6.00    2.90
  -5   7   7    7.80    3.40
  -5   7   7    2.00    3.00
  -4  -7   7   15.70    3.90
  -4  -7   7   19.40    4.00
  -4   7   7   14.20    3.80
  -4   7   7   21.20    5.60
  -4   7   7   18.30    4.40
  -3  -7   7  120.99    7.90
  -3  -7   7  114.39    7.40
  -3   7   7  123.69    7.50
  -3   7   7  121.39    8.20
   3   7  -7  109.39    7.40
   3   7  -7  114.69    7.50
  -2  -7   7    1.70    1.90
  -2  -7   7    4.90    2.00
   2   7  -7    2.40    1.60
  -2   7   7    1.70    1.70
  -2   7   7    2.90    1.60
  -2   7   7   -0.20    1.40
  -2   7   7    0.90    2.50
   2   7  -7    3.50    2.00
  -1  -7   7  217.78   10.70
  -1  -7   7  239.68   10.60
   1  -7  -7  235.08   10.50
   1   7  -7  220.28   10.30
  -1   7   7  237.98   11.20
  -1   7   7  236.08   10.00
   1   7  -7  237.68   10.20
  -1   7   7  227.48    9.90
   0  -7  -7  109.99    7.00
   0  -7   7  108.79    7.80
   0   7  -7  123.49    7.60
   0   7   7  103.69    5.80
   0   7  -7  101.69    6.90
   0   7   7  103.59    6.50
   0   7  -7  106.09    6.50
   0   7   7  108.29    6.70
  -1  -7  -7  124.69    7.70
   1  -7   7  116.29    8.40
  -1   7  -7  130.29    8.30
   1   7   7  133.89    5.60
  -1   7  -7  132.49    7.80
  -1   7  -7  119.99    8.10
   1   7   7  129.09    6.10
   2  -7   7  112.89    8.90
   2  -7   7  104.39    7.50
  -2  -7  -7  115.49    7.90
   2   7   7  113.99    7.90
   2   7   7  115.09    3.40
  -2   7  -7  103.89    7.70
   2   7   7  112.59    3.70
  -3  -7  -7  281.47   13.60
   3  -7   7  270.27   14.30
  -3   7  -7  278.97   13.40
  -4  -7  -7    3.10    2.60
   4  -7   7   11.50    4.50
  -4   7  -7   11.70    4.30
   5  -7   7   34.50    7.60
  -5  -7  -7   30.00    5.90
  -5   7  -7   56.39    8.70
   6  -7   7   43.90    8.50
  -6  -7  -7   34.10    7.20
  -6   7  -7   71.39   10.50
   7  -7   7    1.10    5.10
  -7  -7  -7    7.60    4.80
  -7   7  -7   -2.70    4.00
  -8  -8   7   25.30    7.10
  -8  -8   7   24.60    6.30
  -8   8   7   47.30    8.50
  -8   8   7   44.70    8.90
  -7  -8   7    6.30    4.20
  -7  -8   7    6.80    4.30
  -7   8   7    9.70    4.90
  -7   8   7   10.80    4.40
  -6  -8   7   32.80    5.50
  -6  -8   7   44.20    7.20
  -6   8   7   46.60    8.90
  -6   8   7   32.50    6.60
  -5  -8   7   15.60    4.20
  -5   8   7   11.80    4.40
  -5   8   7    5.50    3.10
  -4  -8   7  160.98    9.40
  -4   8   7  141.69   10.40
  -4   8   7  172.38   10.40
   3  -8  -7   99.19    9.20
  -3  -8   7   93.79    7.60
  -3  -8   7   83.69    6.80
  -3   8   7   85.49    7.50
  -3   8   7   87.99    7.00
   3   8  -7   79.39    6.80
   3   8  -7   87.49    6.90
  -3   8   7   78.49    7.10
   2  -8  -7  471.95   18.90
  -2  -8   7  491.15   16.60
  -2  -8   7  478.55   16.40
  -2   8   7  461.55   15.30
   2   8  -7  460.15   15.70
  -2   8   7  492.25   16.80
   2   8  -7  447.96   15.30
  -2   8   7  444.66   15.60
  -1  -8   7   19.30    4.30
  -1  -8   7   17.40    4.10
   1  -8  -7    8.50    2.40
  -1   8   7   11.10    3.10
   1   8  -7   12.60    3.30
   1   8  -7   11.40    3.00
  -1   8   7   15.20    3.80
  -1   8   7   11.10    2.80
   0  -8   7   66.39    8.20
   0  -8  -7   53.39    5.30
   0   8   7   48.50    5.00
   0   8   7   52.79    5.20
   0   8  -7   45.10    5.90
   0   8  -7   51.79    5.00
   0   8  -7   54.09    5.50
   0   8   7   52.89    4.40
   1  -8   7   81.69    7.50
  -1  -8  -7   72.29    6.50
  -1   8  -7   83.09    6.90
   1   8   7   88.69    6.90
   1   8   7   91.29    5.20
   1   8   7   85.99    4.70
  -1   8  -7   92.89    7.00
  -2  -8  -7   16.00    4.20
   2  -8   7    7.10    3.20
  -2   8  -7    9.70    3.60
   2   8   7   12.80    1.50
   2   8   7    8.90    1.50
  -3  -8  -7   34.50    5.80
   3  -8   7   32.20    6.50
  -3   8  -7   39.20    6.90
   4  -8   7  181.18   13.30
  -4  -8  -7  224.68   13.50
  -4   8  -7  199.38   12.80
   5  -8   7   14.60    5.40
  -5  -8  -7   14.40    5.10
  -5   8  -7   11.90    4.10
   6  -8   7    8.30    4.30
  -6  -8  -7    9.10    7.10
  -6   8  -7    2.70    4.00
   7  -8   7    8.40    6.20
  -7  -8  -7    6.30    4.60
  -7   8  -7   22.20    7.70
  -7  -9   7   -3.60    3.60
  -7  -9   7    3.00    5.00
  -7   9   7   -1.20    3.90
  -7   9   7   -0.70    3.40
  -6  -9   7  183.78   10.80
  -6  -9   7  178.78   12.80
  -6   9   7  186.78   14.00
  -6   9   7  178.98   12.50
  -5  -9   7   38.60    6.10
  -5  -9   7   38.50    7.20
  -5   9   7   30.00    5.80
  -5   9   7   22.90    5.30
  -4  -9   7   26.70    5.30
   4  -9  -7   24.20    6.60
  -4  -9   7   43.20    6.30
  -4   9   7   34.00    6.30
  -4   9   7   27.40    5.80
  -3  -9   7    7.20    3.40
  -3  -9   7   11.60    3.10
   3  -9  -7    2.70    2.70
  -3   9   7    8.90    3.20
   2  -9  -7   69.59    9.30
  -2  -9   7   63.09    6.30
  -2  -9   7   76.59    6.90
  -2   9   7   70.99    6.70
  -2   9   7   68.69    6.20
   2   9  -7   56.99    6.00
  -1  -9   7   -1.30    1.80
   1  -9  -7   -0.60    1.90
   1  -9  -7    0.60    2.00
  -1  -9   7    1.60    2.10
   1   9  -7    0.20    2.40
  -1   9   7    1.50    2.40
  -1   9   7    1.10    2.20
   0  -9   7  349.67   15.20
   0  -9  -7  328.27   14.10
   0   9  -7  342.47   14.30
   0   9   7  313.57   13.10
   0   9  -7  336.87   13.60
   0   9   7  356.26   12.00
   0   9   7  351.46   13.00
   1  -9   7   30.20    6.80
  -1  -9  -7   25.70    5.10
   1   9   7   20.50    3.20
  -1   9  -7   18.90    4.70
   1   9   7   24.60    3.80
   2  -9   7   -1.30    1.90
  -2  -9  -7    5.90    3.10
   2   9   7    4.20    1.30
   2   9   7    3.60    1.10
  -2   9  -7    4.10    2.60
  -3  -9  -7    3.70    3.10
   3  -9   7    3.30    3.60
  -3   9  -7    5.00    2.90
  -4  -9  -7   37.30    6.90
   4  -9   7   30.20    6.00
  -4   9  -7   24.20    5.20
  -5  -9  -7    8.00    4.20
   5  -9   7   13.30    5.80
  -5   9  -7    6.90    3.80
  -6  -9  -7  175.18   14.50
   6  -9   7  169.68   15.10
  -6   9  -7  191.68   14.80
  -7  -9  -7   -0.90    4.20
   7  -9   7   -0.50    6.00
  -7   9  -7    2.90    4.40
  -7 -10   7   45.90    8.70
  -7 -10   7   39.10    6.50
  -7  10   7   56.89   10.30
  -7  10   7   51.39    9.10
  -6 -10   7    3.00    3.90
  -6 -10   7   -0.70    3.20
  -6  10   7    2.70    3.20
  -6  10   7    0.30    3.30
   5 -10  -7   30.40    6.80
  -5 -10   7   46.10    6.60
  -5 -10   7   36.90    7.00
  -5  10   7   60.69    8.80
  -5  10   7   37.20    6.80
  -4 -10   7  164.08   11.40
   4 -10  -7  157.98   13.60
  -4  10   7  159.18   10.80
  -3 -10   7  113.99    9.00
   3 -10  -7  115.69   10.80
  -3 -10   7  123.49    8.60
  -3  10   7  111.09    8.60
   2 -10  -7  339.17   16.70
  -2 -10   7  323.17   14.40
  -2 -10   7  346.17   15.40
  -2  10   7  317.27   14.00
   1 -10  -7   76.09    7.40
  -1 -10   7   68.69    7.00
  -1 -10   7   69.49    6.80
   1 -10  -7   66.29    6.80
  -1  10   7   65.19    7.00
   0 -10  -7   38.00    5.80
   0 -10   7   35.10    6.20
   0  10   7   39.00    6.00
   0  10  -7   36.00    5.30
   0  10   7   41.00    5.30
   1 -10   7   79.99    8.10
   1  10   7   74.59    5.50
   1  10   7   80.19    5.10
  -1  10  -7   68.79    7.00
   2 -10   7   40.90    7.10
  -2 -10  -7   42.10    7.10
  -2  10  -7   45.50    7.60
   2  10   7   31.00    2.50
   3 -10   7   74.79    9.70
  -3 -10  -7  107.39    9.70
  -3  10  -7   96.89    8.80
   4 -10   7  176.18   13.40
  -4 -10  -7  211.88   13.90
  -4  10  -7  182.88   13.00
   5 -10   7  100.59   13.40
  -5 -10  -7   89.39   12.20
  -5  10  -7   97.89   12.30
  -6 -10  -7   -1.10    3.80
   6 -10   7    4.00    5.00
  -6  10  -7    1.10    4.10
  -7 -10  -7   18.10    6.00
   7 -10   7   34.90    9.80
  -7  10  -7   23.90    7.70
  -7 -11   7   16.30    5.50
  -7 -11   7    5.40    5.40
  -7  11   7    8.40    5.40
  -7  11   7   16.10    6.70
  -6 -11   7   45.90    6.60
  -6 -11   7   30.30    6.80
  -6  11   7   30.90    6.50
  -6  11   7   39.20    8.20
  -5 -11   7    0.40    3.80
  -5 -11   7    1.70    3.00
   5 -11  -7    7.60    4.60
  -5  11   7   -2.60    2.70
  -5  11   7    3.70    3.20
   4 -11  -7    7.80    3.80
  -4 -11   7    9.80    4.30
  -4 -11   7   11.30    3.90
  -4  11   7    9.00    4.30
   3 -11  -7  219.68   15.00
  -3 -11   7  192.58   12.50
  -3 -11   7  223.48   12.10
  -3  11   7  218.88   12.50
  -2 -11   7   36.10    6.80
  -2 -11   7   33.40    5.90
   2 -11  -7   35.20    6.80
  -2  11   7   34.50    6.50
   1 -11  -7   51.49    7.40
  -1 -11   7   49.70    7.50
   1 -11  -7   38.50    6.70
  -1 -11   7   57.29    8.00
   0 -11  -7   60.19    7.50
   0 -11   7   60.79    8.50
   0 -11  -7   55.09    7.80
   0  11   7   63.89    6.40
   0  11  -7   68.09    6.70
   1 -11   7  123.69   10.40
  -1 -11  -7  114.09    9.40
   1  11   7  132.69    6.80
   1  11   7  125.99    7.30
  -1  11  -7  134.69    9.80
   2 -11   7   67.39    9.50
  -2 -11  -7   82.49   10.10
   2  11   7   78.29    4.30
  -2  11  -7   86.69    8.50
   2  11   7   79.99    4.10
   3 -11   7   67.19    9.90
  -3 -11  -7   64.09    9.20
  -3  11  -7   58.49    9.00
  -4 -11  -7   23.40    6.20
   4 -11   7   11.70    4.70
  -4  11  -7   10.00    4.90
   5 -11   7   27.20    8.10
  -5 -11  -7   20.60    5.60
  -5  11  -7    9.50    5.40
   6 -11   7   17.60    5.10
  -6 -11  -7   24.30    6.80
  -6  11  -7   23.20    6.40
  -6 -12   7    1.00    3.50
  -6  12   7    1.70    3.60
  -6  12   7    3.50    4.50
  -5 -12   7  152.58   10.40
   5 -12  -7   85.19   17.20
  -5 -12   7  154.28   12.50
  -5  12   7  157.98   12.10
  -4 -12   7   27.00    6.80
   4 -12  -7   16.80    5.40
  -4 -12   7   37.30    6.20
  -4  12   7   19.20    4.90
  -3 -12   7   39.30    7.50
  -3 -12   7   25.50    5.20
   3 -12  -7   20.80    6.10
  -3  12   7   28.50    5.70
  -2 -12   7    7.70    3.50
  -2 -12   7    9.10    4.00
   2 -12  -7   12.60    5.00
  -2  12   7    3.70    3.10
  -1 -12   7  162.88   11.10
  -1 -12   7  186.98   12.70
   1 -12  -7  168.48   11.90
  -1  12   7  174.68   11.30
   0 -12  -7    1.00    2.50
   0 -12  -7    5.80    3.00
   0 -12   7    2.40    3.10
   0  12   7    0.70    2.70
   0  12  -7    7.30    3.40
  -1 -12  -7  218.28   13.40
   1 -12   7  188.98   13.20
   1  12   7  221.78    9.50
  -1  12  -7  199.78   12.40
   1  12   7  210.08    9.80
  -2 -12  -7   55.79    8.10
   2 -12   7   65.59   10.50
  -2  12  -7   45.40    7.20
   2  12   7   52.89    3.90
   2  12   7   54.99    3.80
  -3 -12  -7   24.90    6.20
   3 -12   7   17.70    5.40
  -3  12  -7   18.00    5.10
  -4 -12  -7   -1.60    3.20
   4 -12   7    4.50    4.50
  -4  12  -7    1.80    2.80
   5 -12   7  145.29   14.50
  -5 -12  -7  134.09   12.70
  -5  12  -7  154.88   13.40
   6 -12   7    0.50    5.40
  -6 -12  -7   -1.20    3.50
  -6  12  -7   -6.30    4.10
  -6 -13   7    1.60    3.90
  -6 -13   7    1.40    4.10
  -6  13   7   -1.30    4.20
  -6  13   7    6.50    4.70
   5 -13  -7    0.30    5.30
  -5 -13   7    7.90    3.60
  -5 -13   7   12.30    5.40
  -5  13   7   12.20    4.50
  -4 -13   7   18.70    5.20
  -4 -13   7   21.40    5.50
   4 -13  -7   20.00    6.70
  -4  13   7   13.80    4.20
  -3 -13   7   78.39    8.20
   3 -13  -7   76.69   11.40
  -3 -13   7   91.69   11.80
  -3  13   7   83.29    8.60
  -2 -13   7   24.60    5.70
   2 -13  -7   23.90    6.30
  -2 -13   7   31.20    6.50
  -2  13   7   20.00    5.10
   1 -13  -7   85.69    9.00
  -1 -13   7   99.09    9.90
  -1 -13   7   84.59    8.90
  -1  13   7   69.39    9.20
   1  13  -7   91.19    8.80
   0 -13   7   59.49    8.80
   0 -13  -7   58.49    8.90
   0 -13  -7   59.09    8.40
   0  13  -7   49.90    8.10
   1 -13   7    6.70    4.50
  -1 -13  -7   11.20    4.10
  -1  13  -7   15.10    4.60
   1  13   7   16.30    3.20
   2 -13   7   18.40    5.80
  -2 -13  -7   23.80    6.00
   2  13   7   13.40    2.70
  -2  13  -7   15.50    5.10
   2  13   7   13.50    2.40
   3 -13   7   23.50    7.30
  -3 -13  -7   30.70    7.10
  -3  13  -7   20.90    5.40
  -4 -13  -7  130.39   12.50
  -4  13  -7  124.99   13.00
   5 -13   7   10.90    5.20
  -5 -13  -7   32.10    7.90
  -5  13  -7   18.10    6.40
  -6 -13  -7   41.90    8.00
   6 -13   7   57.29   10.80
  -6  13  -7   40.00    9.90
  -6 -14   7   12.50    5.00
  -6 -14   7   14.20    5.20
  -6  14   7    9.50    5.30
  -6  14   7   16.90    6.70
  -5 -14   7    6.10    4.40
   5 -14  -7    5.00    4.70
  -5 -14   7   -2.30    4.20
  -4 -14   7   79.79   11.90
   4 -14  -7   79.59   12.10
  -4 -14   7   83.59    8.80
  -4  14   7   93.19   11.60
  -3 -14   7    0.60    3.10
  -3 -14   7    2.70    3.70
   3 -14  -7    0.20    3.10
  -3  14   7   -2.60    3.00
  -2 -14   7  177.78   13.50
  -2 -14   7  203.08   13.30
   2 -14  -7  183.78   13.80
  -2  14   7  176.28   12.90
  -1 -14   7   35.50    7.30
   1 -14  -7   41.30    7.90
  -1  14   7   33.70    6.40
   1  14  -7   26.50    6.70
   0 -14   7   37.80    7.60
   0 -14  -7   44.10    8.30
   0 -14  -7   38.30    7.40
   0  14  -7   37.60    7.30
  -1 -14  -7    3.70    3.50
   1 -14   7    6.90    4.30
  -1  14  -7   -0.40    2.70
   1  14   7    0.90    2.30
   1  14   7    3.30    3.00
  -2 -14  -7  198.18   14.40
   2 -14   7  178.28   14.30
   2  14   7  199.28    7.90
  -2  14  -7  186.18   13.50
   2  14   7  185.58    7.90
   3 -14   7    0.10    3.50
  -3 -14  -7    1.50    4.00
  -3  14  -7    3.60    3.40
   4 -14   7   35.90    9.00
  -4 -14  -7   31.00    8.10
  -4  14  -7   28.40    6.30
   5 -14   7   -4.20    4.30
  -5 -14  -7    0.70    4.30
  -5  14  -7    8.80    4.60
  -5 -15   7    0.90    4.30
   5 -15  -7    2.30    4.60
  -5 -15   7   -4.10    4.30
  -5  15   7    5.80    4.40
  -4 -15   7   16.90    5.50
   4 -15  -7   25.50    7.40
  -4  15   7   22.90    5.90
   3 -15  -7   29.70    8.60
  -3 -15   7   26.40    7.40
  -3 -15   7   17.00    5.70
  -3  15   7   27.50    7.00
  -2 -15   7    2.70    3.80
   2 -15  -7    4.50    5.70
  -2 -15   7   -1.30    2.70
  -2  15   7    2.00    2.70
  -1 -15   7   86.49   11.60
   1 -15  -7   92.69   12.60
   1  15  -7   86.59    9.10
  -1  15   7   87.99   11.60
   0 -15   7  107.59   10.40
   0 -15  -7   92.09   11.50
   0 -15  -7  103.69    9.20
   0  15  -7  120.79   10.70
   1 -15   7   34.90    7.60
  -1 -15  -7   26.00    6.60
   1  15   7   21.10    4.80
   1  15   7   26.40    4.70
  -1  15  -7   34.20    6.40
   2 -15   7   42.50    8.70
  -2 -15  -7   36.30    7.90
   2  15   7   43.30    4.50
   2  15   7   36.40    4.50
  -2  15  -7   54.19    9.80
  -3 -15  -7   35.10    7.80
   3 -15   7   35.20    7.80
  -3  15  -7   25.90    7.00
  -4 -15  -7   12.50    6.00
   4 -15   7   13.20    6.70
  -4  15  -7   12.80    5.60
  -5 -15  -7    2.80    5.20
   5 -15   7    4.40    5.80
  -5  15  -7   -8.40    4.10
  -4 -16   7    1.50    4.20
   4 -16  -7   13.90    6.30
  -4 -16   7   14.40    6.00
  -4  16   7   11.00    5.90
   3 -16  -7   -3.50    4.20
  -3 -16   7    7.90    3.70
  -3 -16   7   -2.60    4.20
   2 -16  -7    2.70    4.10
  -2 -16   7    6.30    5.30
  -2 -16   7    7.90    4.90
  -2  16   7    6.50    4.70
  -1 -16   7   68.69   10.10
   1 -16  -7   60.49   10.10
  -1  16   7   62.49    9.00
   1  16  -7   77.59   11.30
   0 -16   7    1.90    3.60
   0 -16  -7    9.10    4.00
   0 -16  -7    5.20    3.90
   0  16  -7    4.80    4.10
   1 -16   7   75.49   12.00
  -1 -16  -7   84.89   12.30
  -1  16  -7   89.19   12.00
   1  16   7   79.99    7.00
   2 -16   7   14.20    6.30
  -2 -16  -7   17.70    6.30
   2  16   7   10.20    4.30
  -2  16  -7   18.20    6.10
   2  16   7   16.10    3.30
  -3 -16  -7    2.40    4.30
   3 -16   7   -1.50    3.90
  -3  16  -7    7.60    4.30
  -4 -16  -7    6.80    4.90
   4 -16   7    1.40    6.40
  -4  16  -7    0.60    4.30
  -4 -17   7    2.10    4.90
  -4 -17   7    2.90    4.80
   4 -17  -7   12.00    5.70
  -4  17   7    3.90    4.50
   3 -17  -7   29.40    7.90
  -3 -17   7   37.90    7.50
  -3 -17   7   26.20    7.40
  -3  17   7   40.70    8.20
   2 -17  -7    1.30    4.00
  -2 -17   7    8.40    5.50
  -2 -17   7    0.90    4.10
  -2  17   7   -2.30    3.20
   1 -17  -7  107.59   13.30
  -1 -17   7   90.59   11.80
   1  17  -7   89.69   11.90
  -1  17   7   91.59   12.80
   0 -17  -7    8.90    4.60
   0 -17   7   10.60    4.10
   0 -17  -7   10.40    5.90
   0  17  -7   11.50    4.60
  -1 -17  -7    2.80    4.70
   1 -17   7    1.80    4.10
   1  17   7    0.50    2.80
  -1  17  -7   -1.50    4.10
   2 -17   7    0.70    4.00
  -2 -17  -7    1.30    3.80
  -2  17  -7    7.20    4.30
   2  17   7   -1.30    2.40
  -3 -17  -7   49.99    9.40
   3 -17   7   69.89   12.40
  -3  17  -7   43.20    7.90
  -3 -18   7   17.20    6.90
   3 -18  -7    7.80    6.30
  -3 -18   7   15.30    5.90
  -3  18   7    2.40    5.20
   2 -18  -7   11.20    6.40
  -2 -18   7    3.60    4.60
  -2 -18   7    3.00    5.30
  -2  18   7    8.10    5.20
   2  18  -7    1.90    4.80
   1 -18  -7   14.10    5.90
  -1  18   7   -5.40    4.10
   1  18  -7    5.70    4.30
   0 -18  -7    5.00    5.00
   0 -18   7    8.40    5.60
   0 -18  -7    5.70    4.90
   0  18  -7   12.50    5.50
   0  18   7    6.80    4.40
   1 -18   7   -6.70    4.00
  -1 -18  -7    1.90    4.90
   1  18   7    6.60    3.70
  -1  18  -7    0.90    3.60
  -2 -18  -7    3.40    5.40
   2 -18   7   -5.60    4.40
   2  18   7   -3.90    2.80
  -2  18  -7    0.60    4.30
   1 -19  -7    9.30    5.40
  -1 -19   7    0.30    5.30
   1  19  -7   -1.20    4.60
  -1  19   7   -1.50    4.00
   0 -19   7    6.40    5.50
   0  19   7    7.50    5.30
   0  19  -7    3.40    5.20
  -8   0   8   69.49   10.00
  -8   0   8   88.39   11.50
  -7   0   8    1.90    3.20
  -7   0   8   -1.80    2.80
  -6   0   8   -1.40    2.40
  -6   0   8    1.80    2.60
  -5   0   8    0.80    1.80
   5   0  -8    1.00    2.30
  -5   0   8   -0.20    2.00
   4   0  -8  524.05   14.30
  -4   0   8  515.65   14.30
  -4   0   8  525.75   17.50
  -3   0   8    1.30    1.20
  -3   0   8    1.00    1.40
   3   0  -8   -1.20    1.00
   3   0  -8    0.00    1.70
  -2   0   8    1.90    1.20
   2   0  -8    2.00    1.50
  -2   0   8    3.20    0.80
   2   0  -8    3.20    0.70
  -1   0   8    2.10    1.20
   1   0  -8    0.60    1.10
   0   0  -8  278.27    9.50
   0   0   8  282.27    6.50
   0   0   8  283.07    9.70
   0   0  -8  295.77    6.70
  -1   0  -8    1.30    1.20
   1   0   8    1.60    1.20
  -1   0  -8    1.20    1.00
   1   0   8    3.60    1.80
   2   0   8  777.02   18.70
  -2   0  -8  760.02   18.80
  -2   0  -8  752.12   17.10
   2   0   8  723.83   17.80
  -3   0  -8   -0.90    1.50
   3   0   8    0.60    1.30
  -3   0  -8   -1.70    1.40
   3   0   8   -0.10    2.00
   4   0   8  551.84   16.80
  -4   0  -8  531.65   21.60
  -4   0  -8  524.95   15.10
  -5   0  -8    3.60    2.90
  -5   0  -8   -0.20    3.10
   5   0   8    0.20    2.30
  -6   0  -8   -0.40    3.50
  -6   0  -8    2.30    2.00
   6   0   8    1.70    2.80
  -7   0  -8    1.10    3.60
  -8   0  -8   20.20    7.60
  -8   0  -8   22.00    5.00
  -8  -1   8   14.30    5.10
  -8  -1   8   10.60    5.10
  -8   1   8    7.20    4.90
  -8   1   8    8.50    4.80
  -7  -1   8    7.40    4.10
  -7  -1   8   14.80    4.80
  -7   1   8   10.10    4.20
  -7   1   8    8.90    4.50
  -6  -1   8   21.20    4.80
  -6  -1   8   13.70    3.60
  -6   1   8   22.80    5.50
  -6   1   8   10.80    3.60
  -5  -1   8    8.90    3.20
  -5  -1   8    4.10    2.60
   5  -1  -8    4.80    2.60
  -5   1   8    5.40    2.70
  -5   1   8   10.80    3.60
   5   1  -8    6.50    2.80
  -4  -1   8  226.98    9.10
  -4  -1   8  240.08   11.50
   4  -1  -8  205.18    8.60
  -4   1   8  230.68   11.40
   4   1  -8  222.68    9.00
  -4   1   8  233.18    9.20
  -3  -1   8  347.27   13.00
  -3  -1   8  333.67    9.30
   3  -1  -8  341.57   12.90
   3  -1  -8  355.76    9.50
   3   1  -8  335.37    9.40
   3   1  -8  339.47   12.70
  -3   1   8  344.87    9.50
  -2  -1   8    5.70    1.10
  -2  -1   8    3.10    1.50
   2  -1  -8    4.60    0.90
   2  -1  -8    3.50    1.80
   2   1  -8    4.80    1.80
   2   1  -8    7.50    1.20
  -2   1   8    6.90    1.10
  -2   1   8    5.60    2.20
  -1  -1   8   93.29    5.80
   1  -1  -8  107.69    6.10
  -1   1   8  100.29    5.90
   1   1  -8   97.99    5.90
   0  -1   8  573.74   11.10
   0  -1  -8  606.94   14.70
   0  -1   8  596.04   15.60
   0  -1  -8  593.34   11.20
   0   1   8  587.94   14.80
   0   1  -8  587.04   15.20
   0   1  -8  612.24   11.50
   0   1   8  602.94   11.20
   1  -1   8  459.55   11.70
  -1  -1  -8  467.65   12.10
   1  -1   8  467.45   13.50
  -1  -1  -8  465.55   11.80
  -1   1  -8  449.56   12.80
  -1   1  -8  457.15   11.80
   1   1   8  447.16   12.10
   1   1   8  446.76   11.60
  -2  -1  -8   87.99    5.70
   2  -1   8   87.59    5.70
  -2  -1  -8   89.69    4.80
   2  -1   8   85.49    6.00
  -2   1  -8   96.59    6.00
   2   1   8   88.89    5.80
  -2   1  -8   91.19    5.60
   2   1   8   95.29    5.30
   3  -1   8  328.17   13.00
  -3  -1  -8  332.97   10.30
   3  -1   8  352.16   12.80
  -3  -1  -8  362.26   13.80
   3   1   8  325.57   12.90
   3   1   8  326.17   11.00
  -3   1  -8  359.66   11.90
  -3   1  -8  351.86   13.70
  -4  -1  -8    1.90    1.70
  -4  -1  -8    0.10    1.80
   4  -1   8    1.70    2.00
   4   1   8    0.40    1.50
  -4   1  -8    3.60    2.60
  -4   1  -8    1.20    1.80
  -5  -1  -8   58.29    8.10
   5  -1   8   56.79    7.60
  -5  -1  -8   54.49    4.80
  -5   1  -8   59.79    6.40
  -5   1  -8   82.39   10.30
   5   1   8   57.69    5.70
  -6  -1  -8  135.49   10.80
  -6  -1  -8  126.69    8.60
   6  -1   8  116.29    9.60
   6   1   8  127.49    8.70
  -6   1  -8  137.29   10.90
   7  -1   8   48.70    7.40
  -7  -1  -8   38.90    8.40
  -7  -1  -8   31.60    6.00
   7   1   8   32.50    5.70
  -7   1  -8   35.30    7.60
  -8  -1  -8   14.90    6.90
  -8  -1  -8   21.40    5.20
   8  -1   8   17.10    6.10
  -8   1  -8    7.50    5.40
  -8  -2   8   28.80    6.70
  -8  -2   8   34.90    7.10
  -8   2   8   13.70    4.70
  -8   2   8   28.70    7.60
  -7  -2   8   95.59    9.10
  -7  -2   8   86.69    8.90
  -7   2   8   86.19    8.70
  -7   2   8  100.89    9.50
  -6  -2   8   21.50    4.20
  -6  -2   8   18.50    5.00
  -6   2   8   19.30    4.80
  -6   2   8   10.90    4.00
   5  -2  -8  170.58    9.00
  -5  -2   8  177.88   10.20
  -5  -2   8  184.68    9.50
  -5   2   8  166.98   10.70
   5   2  -8  163.28    9.20
  -5   2   8  189.08    9.80
   4  -2  -8  221.98    9.00
  -4  -2   8  234.08   11.20
  -4  -2   8  233.48    9.50
   4   2  -8  230.38    9.30
  -4   2   8  227.88   11.70
  -4   2   8  217.68    9.10
   3  -2  -8   15.70    2.60
  -3  -2   8   17.70    2.50
  -3  -2   8   12.20    3.10
  -3   2   8   13.00    2.30
  -3   2   8    7.60    3.20
   3   2  -8   12.30    2.80
   3   2  -8   17.60    2.80
  -3   2   8   11.50    2.90
   2  -2  -8   70.79    5.40
  -2  -2   8   62.49    3.10
  -2  -2   8   62.49    5.20
  -2   2   8   68.29    3.30
   2   2  -8   67.79    5.50
   2   2  -8   70.09    3.20
  -2   2   8   71.19    3.10
  -2   2   8   58.89    5.00
  -1  -2   8  678.93   17.60
   1  -2  -8  683.23   17.00
   1   2  -8  690.53   11.90
  -1   2   8  682.13   11.30
  -1   2   8  697.33   17.30
   1   2  -8  671.73   17.20
  -1   2   8  700.83   11.40
   1   2  -8  679.43   11.60
   0  -2  -8   43.30    2.70
   0  -2   8   45.20    4.10
   0  -2  -8   48.70    3.70
   0   2  -8   44.30    2.80
   0   2   8   50.29    3.80
   0   2  -8   40.50    3.90
   0   2   8   42.40    2.60
   1  -2   8  884.21   20.80
  -1  -2  -8  858.31   17.70
  -1  -2  -8  870.01   18.20
   1  -2   8  862.21   18.20
  -1   2  -8  847.82   19.90
   1   2   8  878.01   18.10
   1   2   8  877.31   18.20
  -1   2  -8  870.71   18.50
   2  -2   8  257.37   10.00
   2  -2   8  284.97   11.20
  -2  -2  -8  285.27   10.70
  -2  -2  -8  266.17    8.10
   2   2   8  296.87    9.00
   2   2   8  274.17   10.50
  -2   2  -8  261.87   10.40
  -2   2  -8  273.17   10.40
  -3  -2  -8    4.20    1.60
  -3  -2  -8    2.00    1.70
   3  -2   8    3.70    2.20
   3  -2   8    2.10    1.90
  -3   2  -8    3.60    2.20
   3   2   8    1.60    1.40
   3   2   8   -0.10    1.90
  -3   2  -8    7.10    2.60
  -4  -2  -8    6.90    2.30
   4  -2   8    3.10    2.70
  -4  -2  -8    7.60    3.10
  -4   2  -8   10.20    3.40
   4   2   8    7.20    2.00
  -4   2  -8    5.90    2.90
   5  -2   8  268.17   13.90
  -5  -2  -8  270.27    9.10
  -5  -2  -8  257.57   14.50
   5   2   8  268.37   10.50
  -5   2  -8  289.07   15.40
  -6  -2  -8    2.00    2.80
   6  -2   8    4.40    3.80
  -6  -2  -8    4.10    2.60
  -6   2  -8    4.00    3.10
   6   2   8   -2.50    2.50
  -7  -2  -8   23.00    6.20
  -7  -2  -8   35.40    5.70
   7  -2   8   24.60    6.30
  -7  -2  -8   40.40    4.80
  -7   2  -8   44.20    9.40
  -8  -2  -8   -4.40    4.20
   8  -2   8    6.20    5.40
  -8  -2  -8    3.20    3.60
  -8   2  -8    3.30    4.90
  -8  -3   8   -1.20    3.60
  -8  -3   8   -3.90    3.80
  -8   3   8    0.90    3.60
  -8   3   8   -5.10    3.40
  -7  -3   8    2.00    3.20
  -7  -3   8    8.90    3.90
  -7   3   8   -1.50    3.20
  -7   3   8    0.20    3.20
  -6  -3   8  125.99    9.00
  -6  -3   8  104.09    8.90
  -6   3   8  120.79    8.90
  -6   3   8  127.19   10.40
  -5  -3   8  121.39    8.60
  -5  -3   8  123.19    8.00
   5  -3  -8  112.69    7.60
  -5   3   8  115.69    9.10
   5   3  -8  126.89    8.30
  -5   3   8  130.39    8.00
  -4  -3   8   17.50    4.10
  -4  -3   8   18.60    3.50
   4  -3  -8   14.70    3.10
  -4   3   8   16.60    3.60
   4   3  -8   13.00    3.10
  -4   3   8   18.80    3.50
  -3  -3   8  378.26   13.80
  -3  -3   8  377.26   11.00
   3  -3  -8  379.26   10.60
  -3   3   8  375.46   14.20
  -3   3   8  379.56   10.90
  -3   3   8  375.26   16.00
   3   3  -8  380.36   11.00
   3   3  -8  358.66   13.20
  -2  -3   8   59.19    5.30
   2   3  -8   68.69    3.70
  -2   3   8   65.29    5.30
  -2   3   8   71.09    3.70
  -2   3   8   64.79    3.70
  -1  -3   8   74.09    5.60
   1  -3  -8   70.59    5.00
  -1   3   8   70.39    3.30
   1   3  -8   70.09    5.20
  -1   3   8   74.69    3.40
   1   3  -8   69.49    3.40
  -1   3   8   75.79    5.20
   0  -3  -8  116.39    5.80
   0  -3   8  106.19    6.50
   0   3  -8  120.89    5.50
   0   3   8  119.79    4.90
   0   3  -8  117.99    6.70
   0   3   8  113.49    5.70
   0   3  -8  118.59    5.10
  -1  -3  -8  124.39    5.30
   1  -3   8  131.69    7.50
  -1  -3  -8  125.39    6.20
   1  -3   8  122.19    6.00
  -1   3  -8  127.79    6.20
   1   3   8  121.69    6.00
   1   3   8  111.49    5.20
  -1   3  -8  138.09    7.40
  -2  -3  -8   15.00    3.20
   2  -3   8   11.60    3.20
  -2  -3  -8   17.40    2.40
   2  -3   8   11.60    2.50
  -2   3  -8   10.00    2.70
   2   3   8   13.50    2.20
   2   3   8    7.80    2.30
  -2   3  -8   14.30    3.10
  -3  -3  -8  432.96   15.60
   3  -3   8  389.66   14.60
   3  -3   8  420.16   15.70
  -3  -3  -8  422.26    9.80
  -3   3  -8  414.56   14.60
   3   3   8  412.56   15.10
   3   3   8  445.36   12.60
  -3   3  -8  421.56   15.50
  -4  -3  -8   38.40    7.00
   4  -3   8   32.80    5.70
  -4  -3  -8   31.10    2.80
  -4   3  -8   35.20    5.80
  -4   3  -8   37.60    5.70
   4   3   8   29.60    3.00
  -5  -3  -8   19.30    2.60
  -5  -3  -8   13.80    4.00
   5   3   8   21.90    3.40
  -5   3  -8   18.90    5.50
  -6  -3  -8    4.40    2.00
  -6  -3  -8    6.70    2.40
   6  -3   8   10.60    5.00
  -6  -3  -8   11.40    4.30
  -6   3  -8   -0.10    2.60
   7  -3   8    4.10    4.30
  -7  -3  -8    7.70    2.70
  -7  -3  -8    9.60    4.30
  -7  -3  -8    4.40    3.60
  -7   3  -8    2.70    4.10
   8  -3   8   -1.30    5.20
  -8  -3  -8   -0.40    4.10
  -8   3  -8   -3.50    4.40
  -8  -4   8   -0.30    4.10
  -8  -4   8    3.70    4.60
  -8   4   8    0.80    3.70
  -8   4   8   19.20    6.20
  -7  -4   8   57.69    8.10
  -7  -4   8   48.60    7.30
  -7   4   8   57.19    8.40
  -7   4   8   48.70    8.20
  -6  -4   8    7.70    3.40
  -6  -4   8    6.10    3.00
  -6   4   8    5.50    2.80
  -6   4   8    1.60    2.80
  -5  -4   8   19.00    4.10
   5  -4  -8   19.50    4.50
  -5  -4   8   20.60    4.00
   5   4  -8   14.20    4.20
  -5   4   8   22.00    4.50
  -5   4   8   32.30    6.40
  -4  -4   8   30.40    4.50
  -4  -4   8   36.80    5.70
   4  -4  -8   37.60    4.90
   4   4  -8   33.50    4.70
  -4   4   8   36.00    4.90
  -4   4   8   27.70    5.30
  -3  -4   8    0.20    1.30
   3  -4  -8    1.50    1.50
  -3  -4   8    3.10    1.50
  -3   4   8    0.50    1.80
  -3   4   8    1.50    1.20
   3   4  -8   -1.10    1.70
   3   4  -8    3.40    1.70
  -2  -4   8  196.88    9.40
  -2  -4   8  182.48    7.10
   2   4  -8  180.38    6.80
   2   4  -8  174.18    8.70
  -2   4   8  189.28   10.50
  -2   4   8  194.98    6.90
  -2   4   8  184.98    7.10
  -2   4   8  189.28    9.30
   1  -4  -8  100.89    5.20
  -1  -4   8   99.89    6.60
  -1   4   8   98.69    6.10
  -1   4   8   96.09    4.60
   1   4  -8   99.89    6.50
   1   4  -8  103.39    4.80
   1   4  -8   97.99    4.90
  -1   4   8   86.69    6.70
   0  -4  -8  281.17    8.80
   0  -4  -8  262.07    8.90
   0  -4   8  278.47   11.10
   0   4  -8  274.77    8.70
   0   4   8  264.47    9.10
   0   4   8  248.78    8.20
   0   4  -8  272.07    9.30
   0   4  -8  254.07   10.40
  -1  -4  -8   82.29    5.20
   1  -4   8   85.59    5.40
   1  -4   8   87.69    6.50
  -1  -4  -8   75.99    4.20
   1   4   8   78.99    4.40
  -1   4  -8   84.99    6.90
  -1   4  -8   86.69    5.40
   1   4   8   80.89    5.10
  -2  -4  -8   26.40    4.00
  -2  -4  -8   26.60    2.30
   2  -4   8   31.70    5.10
   2  -4   8   22.30    3.80
  -2   4  -8   26.70    4.40
   2   4   8   24.90    3.10
  -2   4  -8   37.20    5.00
   2   4   8   29.90    4.40
  -3  -4  -8   16.70    3.90
  -3  -4  -8   15.60    1.80
   3  -4   8   10.60    3.70
   3   4   8   16.10    2.10
   3   4   8   17.30    4.20
  -3   4  -8   14.90    3.70
  -3   4  -8   15.40    4.10
   4  -4   8  136.09   10.00
  -4  -4  -8  129.49    9.60
  -4  -4  -8  134.79    3.90
  -4   4  -8  130.29    9.80
   4   4   8  129.19    4.50
  -5  -4  -8   29.40    5.70
  -5  -4  -8   33.90    2.00
  -5  -4  -8   30.10    2.00
   5  -4   8   39.20    6.70
  -5   4  -8   33.10    5.90
  -6  -4  -8    3.90    3.90
   6  -4   8   -3.20    2.90
  -6  -4  -8    0.00    1.30
  -6  -4  -8    0.60    1.30
  -6   4  -8   -1.40    2.60
   7  -4   8   76.19   10.60
  -7  -4  -8   68.89   10.10
  -7   4  -8   55.69    8.90
  -8  -5   8    8.70    4.80
  -8  -5   8   16.30    5.40
  -8   5   8   14.10    5.00
  -8   5   8   14.70    5.80
  -7  -5   8   17.10    5.40
  -7  -5   8   15.40    5.00
  -7   5   8   13.40    4.40
  -7   5   8   16.00    5.10
  -6  -5   8  179.18   11.20
  -6  -5   8  182.78   11.20
  -6   5   8  168.58   12.40
  -6   5   8  170.08   11.00
  -5  -5   8   39.80    5.90
  -5  -5   8   46.10    6.40
  -5   5   8   35.90    6.80
  -5   5   8   50.39    6.50
  -4  -5   8   68.39    5.90
  -4  -5   8   64.59    6.00
   4   5  -8   60.39    5.60
  -4   5   8   67.59    5.60
  -4   5   8   65.39    8.60
  -3  -5   8   34.90    5.00
  -3  -5   8   49.20    4.40
  -3   5   8   44.80    4.20
  -3   5   8   53.49    5.70
   3   5  -8   44.40    4.30
   3   5  -8   40.00    5.30
  -3   5   8   43.00    4.40
  -2  -5   8   23.80    4.10
  -2  -5   8   24.00    3.70
  -2   5   8   20.50    3.70
  -2   5   8   22.50    3.10
   2   5  -8   28.90    4.70
  -2   5   8   29.60    5.50
   2   5  -8   28.80    3.70
  -2   5   8   23.80    3.30
   1  -5  -8   82.29    5.30
  -1  -5   8   87.39    5.50
  -1  -5   8   84.29    6.30
  -1   5   8   82.29    5.70
  -1   5   8   81.09    4.90
   1   5  -8   82.59    5.10
   1   5  -8   88.89    5.00
   1   5  -8   94.39    6.40
  -1   5   8   77.49    6.60
   0  -5   8 1442.96   31.40
   0  -5  -8 1475.75   27.90
   0   5  -8 1494.25   27.70
   0   5   8 1437.56   29.70
   0   5  -8 1458.65   28.50
   0   5  -8 1469.95   30.70
   0   5   8 1439.46   27.20
   0   5   8 1538.15   28.00
  -1  -5  -8  115.69    6.60
   1  -5   8  118.99    7.90
   1  -5   8  103.29    6.30
   1   5   8  102.59    6.20
  -1   5  -8  125.99    6.90
   1   5   8  113.99    6.00
   1   5   8  114.29    5.20
  -1   5  -8  108.89    7.10
   2  -5   8    1.30    1.80
   2  -5   8    3.30    2.20
  -2  -5  -8    2.70    1.60
   2   5   8    2.60    1.80
   2   5   8    2.70    1.60
  -2   5  -8    1.20    2.00
   2   5   8    2.40    1.10
  -2   5  -8    5.30    2.10
  -3  -5  -8   37.20    6.10
   3  -5   8   31.70    6.00
   3   5   8   32.10    1.40
  -3   5  -8   28.20    5.20
   3   5   8   32.60    1.40
  -4  -5  -8  195.88   12.10
   4  -5   8  191.18   12.10
  -4   5  -8  201.38   12.20
   5  -5   8   43.40    7.60
  -5  -5  -8   30.40    6.10
  -5   5  -8   26.60    5.30
   6  -5   8   26.70    7.00
  -6  -5  -8   33.00    7.10
  -6   5  -8   19.20    6.30
   7  -5   8    6.00    5.00
  -7  -5  -8   -2.40    3.40
  -7   5  -8   11.10    5.20
  -8  -6   8   79.59    8.50
  -8  -6   8   41.90    8.40
  -8   6   8   61.39   10.30
  -7  -6   8   -6.70    2.80
  -7  -6   8    3.80    3.60
  -7   6   8   -4.70    4.10
  -7   6   8   -1.30    2.60
  -6  -6   8    8.20    4.10
  -6  -6   8    8.60    3.60
  -6   6   8   15.50    4.20
  -6   6   8   16.30    5.30
  -5  -6   8    1.70    2.30
  -5   6   8   -2.10    2.10
  -5   6   8    2.70    2.60
  -4  -6   8   23.00    5.20
   4  -6  -8   24.90    4.50
  -4  -6   8   29.30    4.90
  -4   6   8   27.10    4.50
  -4   6   8   25.80    5.60
   4   6  -8   19.80    3.80
  -3  -6   8   -0.50    1.50
  -3  -6   8    2.00    1.60
  -3   6   8    5.50    2.50
   3   6  -8    2.50    2.00
  -3   6   8    1.20    2.40
  -3   6   8    4.20    2.10
   3   6  -8    3.80    2.30
  -2  -6   8  216.58   10.50
  -2  -6   8  217.68    9.40
  -2   6   8  213.98    8.60
  -2   6   8  205.08   10.20
  -2   6   8  210.38    9.10
   2   6  -8  216.28    8.90
  -2   6   8  210.78   11.50
   2   6  -8  218.08   10.20
   1  -6  -8   18.20    3.40
  -1  -6   8   18.60    4.10
  -1  -6   8   14.60    3.10
   1   6  -8   14.20    2.90
  -1   6   8   12.30    3.00
  -1   6   8   18.10    4.30
  -1   6   8   13.70    2.70
   1   6  -8   13.80    3.00
   0  -6  -8   55.29    4.70
   0  -6   8   54.39    5.50
   0   6  -8   45.80    4.30
   0   6  -8   58.19    5.40
   0   6   8   56.59    4.60
   0   6   8   57.29    5.10
   0   6   8   56.09    4.20
   0   6  -8   57.79    5.00
  -1  -6  -8    2.70    2.00
   1  -6   8    3.20    2.10
   1   6   8    3.20    1.80
   1   6   8    4.60    1.80
  -1   6  -8    2.50    1.60
  -1   6  -8    4.00    2.50
   1   6   8    4.10    1.50
  -1   6  -8    3.10    2.20
  -2  -6  -8  133.69    8.30
   2  -6   8  128.59    8.10
   2  -6   8  118.49    8.80
   2   6   8  142.49    8.60
   2   6   8  131.49    5.00
  -2   6  -8  136.09    8.40
   2   6   8  133.69    4.50
   3  -6   8  151.18   15.50
  -3  -6  -8  157.38   10.10
  -3   6  -8  129.99   10.70
  -4  -6  -8   41.00    7.00
   4  -6   8   44.00    7.80
  -4   6  -8   33.70    6.10
   5  -6   8   32.10    6.70
  -5  -6  -8   38.50    7.40
  -5   6  -8   17.20    3.70
  -6  -6  -8   -1.90    2.90
   6  -6   8    8.40    3.90
  -6   6  -8   -4.00    3.10
   7  -6   8   -5.50    4.50
  -7  -6  -8   -3.30    3.30
  -7   6  -8   12.80    5.50
  -8  -7   8   14.10    5.80
  -8  -7   8    1.60    4.70
  -8   7   8   25.00    7.00
  -8   7   8   21.90    6.10
  -7  -7   8    6.60    4.30
  -7  -7   8   -3.80    3.20
  -7   7   8    1.10    3.10
  -7   7   8    3.70    3.60
  -6  -7   8  131.19    9.60
  -6  -7   8  174.08   11.70
  -6   7   8  154.18   11.10
  -6   7   8  152.08   12.10
  -5  -7   8    2.70    2.70
  -5  -7   8    6.50    3.20
  -5   7   8    6.10    3.20
  -5   7   8    4.50    3.00
  -4  -7   8   51.99    6.60
  -4  -7   8   44.50    5.90
  -4   7   8   53.49    7.00
  -4   7   8   51.39    8.10
  -4   7   8   55.89    7.00
  -3  -7   8  261.87   11.60
  -3  -7   8  270.17   12.10
  -3   7   8  266.07   12.90
  -3   7   8  260.87   11.00
   3   7  -8  256.37   11.10
  -2  -7   8   18.20    3.90
  -2  -7   8   28.50    4.80
  -2   7   8   12.70    3.80
   2   7  -8   22.40    3.90
  -2   7   8   22.80    4.00
  -2   7   8   18.10    3.50
  -2   7   8   22.00    4.70
   2   7  -8   14.00    3.70
  -1  -7   8   15.50    3.40
   1  -7  -8   18.40    3.80
  -1  -7   8   10.90    3.00
   1   7  -8   13.90    3.40
  -1   7   8   12.30    2.70
  -1   7   8   21.30    3.90
   1   7  -8   11.90    2.80
   0  -7   8  421.46   15.70
   0  -7  -8  384.86   13.60
   0   7   8  386.26   12.90
   0   7   8  370.56   11.90
   0   7   8  366.46   13.20
   0   7  -8  370.26   14.20
   0   7  -8  372.66   12.90
   0   7  -8  368.96   13.50
   1  -7   8    0.80    2.00
  -1  -7  -8    0.70    1.50
   1   7   8    0.00    1.50
  -1   7  -8    0.60    1.40
   1   7   8    2.40    1.80
   1   7   8    2.50    1.30
  -1   7  -8    0.10    2.00
   2  -7   8   28.00    6.70
  -2  -7  -8   27.20    4.60
  -2   7  -8   31.60    5.50
   2   7   8   31.30    2.20
   2   7   8   36.60    6.20
   2   7   8   32.10    2.50
   3  -7   8  294.17   15.30
  -3  -7  -8  321.57   14.60
  -3   7  -8  283.07   14.00
   4  -7   8   59.99    8.80
  -4  -7  -8   79.19    8.30
  -4   7  -8   88.09    8.80
  -5  -7  -8   -2.60    2.20
   5  -7   8    0.40    3.20
  -5   7  -8    0.30    2.70
   6  -7   8   63.79   10.20
  -6  -7  -8   68.99   10.70
  -6   7  -8   85.59   11.90
  -7  -7  -8    5.80    5.30
  -7   7  -8    1.70    4.90
  -7  -8   8   31.80    7.20
  -7  -8   8   27.30    5.90
  -7   8   8   25.50    6.30
  -7   8   8   49.10    8.50
  -6  -8   8   11.70    4.00
  -6  -8   8    6.50    4.00
  -6   8   8    1.90    3.00
  -6   8   8   13.30    4.60
  -5  -8   8   98.79    8.10
  -5  -8   8  102.49    9.00
  -5   8   8   78.29    7.60
  -5   8   8   69.99    9.20
  -4  -8   8  103.69    8.50
  -4   8   8  114.99    9.60
  -4   8   8  106.99    8.10
  -3  -8   8   78.89    6.80
  -3  -8   8   65.49    6.30
  -3   8   8   71.29    7.20
  -3   8   8   71.39    6.20
  -3   8   8   66.59    6.60
   3   8  -8   83.89    6.80
  -2  -8   8    4.60    2.50
  -2  -8   8    9.20    3.00
  -2   8   8    7.30    2.90
  -2   8   8    8.70    3.00
  -2   8   8   17.40    3.60
   2   8  -8    9.00    2.90
  -1  -8   8  392.26   15.40
   1  -8  -8  384.76   14.80
  -1  -8   8  428.06   15.60
  -1   8   8  377.96   15.30
   1   8  -8  412.96   14.70
  -1   8   8  398.56   15.80
  -1   8   8  391.06   13.90
   0  -8   8    6.20    3.30
   0  -8  -8    1.50    1.80
   0   8  -8    3.30    2.00
   0   8   8    4.10    1.60
   0   8   8    1.90    2.10
   0   8  -8    3.20    2.10
   0   8   8    0.50    1.70
   1  -8   8  280.27   16.10
  -1  -8  -8  288.87   12.70
   1   8   8  283.37   10.20
  -1   8  -8  296.97   12.50
   1   8   8  303.57   12.70
  -1   8  -8  304.37   13.50
   1   8   8  279.07    9.10
   2  -8   8    3.70    2.50
  -2  -8  -8    5.00    2.30
   2   8   8    3.10    1.20
   2   8   8    2.80    1.20
  -2   8  -8    5.10    2.70
  -3  -8  -8   59.39    8.20
   3  -8   8   47.10    7.70
  -3   8  -8   54.39    7.90
  -4  -8  -8   89.19    8.80
   4  -8   8   71.69   10.90
  -4   8  -8   82.59    8.70
  -5  -8  -8   91.19    9.20
   5  -8   8   88.99   11.70
  -5   8  -8   82.69   10.80
  -6  -8  -8    1.60    3.60
   6  -8   8    9.10    4.40
  -6   8  -8    3.90    3.80
   7  -8   8   11.30    6.50
  -7  -8  -8    5.10    4.90
  -7   8  -8   -0.60    3.80
  -7  -9   8    5.50    4.40
  -7  -9   8   11.50    5.80
  -7   9   8   -7.80    4.20
  -7   9   8    8.20    4.10
  -6  -9   8   16.50    5.30
  -6  -9   8   12.70    3.90
  -6   9   8   10.70    4.50
  -5  -9   8   31.80    6.40
  -5  -9   8   50.39    7.30
  -5   9   8   33.30    6.10
  -5   9   8   36.30    6.60
  -4  -9   8   11.00    3.70
  -4  -9   8   10.00    3.50
  -4   9   8    9.30    3.50
  -4   9   8    9.10    3.30
  -3  -9   8  297.07   13.90
  -3  -9   8  306.37   16.10
  -3   9   8  311.57   13.50
  -3   9   8  327.47   15.10
  -2  -9   8    6.80    2.90
  -2  -9   8   16.10    4.20
  -2   9   8    5.90    2.60
  -2   9   8   12.10    3.80
   2   9  -8   10.20    3.20
  -1  -9   8    5.00    2.80
  -1  -9   8    3.60    2.60
  -1   9   8    0.10    2.20
  -1   9   8    7.70    2.80
  -1   9   8    6.50    2.30
   1   9  -8    6.60    3.30
   0  -9  -8    9.50    3.20
   0  -9   8   10.30    3.90
   0   9  -8    5.60    2.60
   0   9  -8   11.40    3.80
   0   9   8    9.10    3.20
   0   9   8    9.30    2.60
   0   9   8   18.80    4.10
   1  -9   8   86.79    8.20
  -1  -9  -8   95.89    7.80
   1   9   8   79.39    4.80
  -1   9  -8   75.49    6.80
   1   9   8   70.99    5.40
   2  -9   8    7.20    3.70
  -2  -9  -8    7.40    2.60
   2   9   8    8.20    1.40
  -2   9  -8    6.00    2.90
   2   9   8    7.70    1.70
  -3  -9  -8  744.93   24.90
   3  -9   8  727.23   26.50
  -3   9  -8  689.93   24.00
  -4  -9  -8   17.70    4.70
   4  -9   8   15.80    4.80
  -4   9  -8   25.00    6.30
   5  -9   8   76.69   11.60
  -5  -9  -8   61.39   10.10
  -5   9  -8   65.79    8.90
  -6  -9  -8   13.00    5.00
  -6   9  -8    8.70    5.50
   7  -9   8   13.80    6.90
  -7  -9  -8   16.90    6.00
  -7   9  -8   12.50    5.50
  -7 -10   8    5.10    4.80
  -7 -10   8   22.30    5.80
  -7  10   8   24.90    7.60
  -6 -10   8   -0.40    3.50
  -6 -10   8   -4.60    4.00
  -6  10   8   -3.90    2.70
  -6  10   8    2.80    3.90
  -5 -10   8    0.70    3.10
  -5 -10   8    3.10    3.40
  -5  10   8    1.40    3.10
  -5  10   8    3.80    3.40
  -4 -10   8   72.39    9.60
  -4 -10   8   55.69    7.20
  -4  10   8   65.09    9.30
  -4  10   8   50.09    7.10
  -3 -10   8    5.10    2.30
  -3 -10   8    5.20    3.30
  -3  10   8    8.10    2.70
  -3  10   8    4.50    2.80
  -2 -10   8   91.59    7.70
  -2 -10   8   93.09    8.20
  -2  10   8   70.59    7.00
  -2  10   8   83.79    7.20
  -1 -10   8  110.29    9.00
   1 -10  -8  106.89    8.70
  -1 -10   8  112.09    9.00
  -1  10   8  130.09    8.30
   1  10  -8  125.39    8.50
   0 -10  -8    4.10    2.40
   0 -10   8   10.40    4.10
   0  10   8   12.00    3.10
   0  10  -8    6.00    2.70
   1 -10   8  108.79    9.60
  -1 -10  -8  105.99    9.70
   1  10   8  105.59    6.40
  -1  10  -8  112.39    8.40
   1  10   8  114.79    6.20
  -2 -10  -8   28.00    5.70
   2 -10   8   27.50    6.50
   2  10   8   28.70    3.30
   2  10   8   28.70    4.60
  -2  10  -8   27.50    5.30
   3 -10   8   -1.90    3.00
  -3 -10  -8   -2.00    2.10
  -3  10  -8    0.50    2.70
   4 -10   8   74.19   10.50
  -4 -10  -8   74.79    9.70
  -4  10  -8   72.79    9.50
  -5 -10  -8   30.70    7.60
   5 -10   8   41.60    9.50
  -5  10  -8   26.60    6.00
  -6 -10  -8   12.30    4.90
   6 -10   8   10.70    5.90
  -6  10  -8   13.70    5.30
  -7 -11   8    0.80    4.40
  -7 -11   8    2.60    5.10
  -7  11   8   -0.40    4.00
  -7  11   8   -1.50    4.50
  -6 -11   8   63.29    7.80
  -6 -11   8   48.20    7.90
  -6  11   8   59.89   10.30
  -6  11   8   68.49    9.60
  -5 -11   8    2.70    3.60
  -5 -11   8   -2.60    2.90
  -5  11   8    6.10    4.10
  -5  11   8   -3.00    3.00
  -4 -11   8   60.49    8.20
  -4 -11   8   56.19    8.60
  -4  11   8   64.99    8.60
  -4  11   8   35.70    6.60
  -3 -11   8    6.50    3.70
   3 -11  -8    1.60    3.30
  -3 -11   8    0.20    2.80
  -3  11   8    2.90    2.60
  -3  11   8   -1.90    2.10
   2 -11  -8   60.09    9.30
  -2 -11   8   41.80    6.60
  -2 -11   8   63.09    8.60
  -2  11   8   50.09    7.40
  -2  11   8   42.80    6.40
   1 -11  -8   19.50    4.80
  -1 -11   8   16.50    4.60
  -1 -11   8    8.00    3.60
  -1  11   8   10.30    3.40
   1  11  -8    2.30    1.80
   0 -11   8  361.76   17.20
   0 -11  -8  392.96   17.10
   0  11   8  368.56   13.60
   0  11  -8  389.86   16.20
   0  11   8  361.06   14.70
   1 -11   8   29.60    6.80
  -1 -11  -8   24.50    5.80
   1  11   8   22.50    3.50
  -1  11  -8   19.40    4.90
   1  11   8   19.90    3.90
  -2 -11  -8  109.29    9.80
   2 -11   8  120.59   11.20
  -2  11  -8  129.29   10.10
   2  11   8  124.79    5.40
   2  11   8  114.29    5.10
  -3 -11  -8  120.79   10.60
   3 -11   8  119.69   11.70
  -3  11  -8  118.69   10.20
  -4 -11  -8   16.60    5.60
   4 -11   8    6.20    4.70
  -4  11  -8   13.90    5.30
   5 -11   8   -4.20    7.60
  -5 -11  -8    3.90    4.20
  -5  11  -8    2.10    3.10
  -6 -11  -8   89.39   12.00
   6 -11   8  111.09   15.20
  -6  11  -8  104.69   14.60
  -6 -12   8    1.50    3.50
  -6  12   8   -0.50    4.20
  -6  12   8    9.00    5.20
  -5 -12   8   12.60    4.70
  -5 -12   8   17.60    4.70
  -5  12   8    9.40    3.90
  -5  12   8   17.70    4.90
   4 -12  -8  151.98   13.90
  -4 -12   8  166.88   11.10
  -4 -12   8  150.18   12.10
  -4  12   8  165.08   12.00
  -4  12   8  170.28   12.90
  -3 -12   8   -0.60    2.50
   3 -12  -8   -1.00    3.00
  -3 -12   8   -1.70    2.40
  -3  12   8   -0.40    2.60
   2 -12  -8  219.08   14.60
  -2 -12   8  200.98   12.40
  -2 -12   8  207.48   13.30
  -2  12   8  205.68   12.30
  -1 -12   8    1.20    3.00
   1 -12  -8    3.40    2.90
   1  12  -8    0.00    2.40
  -1  12   8   -0.10    2.00
  -1  12   8   -2.30    2.20
   0 -12   8   21.60    5.50
   0 -12  -8   32.60    6.50
   0  12   8   30.40    5.00
   0  12  -8   26.00    5.40
   0  12   8   23.60    4.90
  -1 -12  -8   20.70    5.20
   1 -12   8   15.30    5.20
  -1  12  -8   18.60    4.70
   1  12   8   22.40    3.90
   1  12   8   14.60    3.80
   2 -12   8  116.19   10.90
  -2 -12  -8  145.89   11.40
   2  12   8  129.19    5.40
  -2  12  -8  122.79    9.90
   2  12   8  112.09    5.40
   3 -12   8    8.50    3.90
  -3 -12  -8   15.00    5.10
  -3  12  -8   14.60    4.90
   4 -12   8   50.99   10.00
  -4 -12  -8   51.49    9.40
  -4  12  -8   34.60    8.40
  -5 -12  -8    6.90    4.50
   5 -12   8   -6.70    4.30
  -5  12  -8    4.60    4.50
  -6 -12  -8   11.40    5.00
   6 -12   8    1.00    5.50
  -6  12  -8    9.30    5.70
  -6 -13   8   11.70    5.90
  -6 -13   8   13.30    5.30
  -6  13   8    5.30    4.50
  -6  13   8    8.60    5.00
  -5 -13   8   48.80    9.10
  -5 -13   8   39.90    7.10
  -5  13   8   46.60    8.10
  -4 -13   8   35.20    6.60
   4 -13  -8   38.20    8.40
  -4 -13   8   43.70    8.70
  -4  13   8   46.60    7.60
  -4  13   8   59.69   10.00
  -3 -13   8  125.19   11.00
  -3 -13   8  110.89    9.70
   3 -13  -8  112.29   11.70
  -3  13   8  105.29    9.60
  -2 -13   8    3.10    3.50
  -2 -13   8    2.50    2.80
   2 -13  -8    5.30    2.50
  -2  13   8   -0.40    2.40
   1 -13  -8   57.19    8.80
  -1 -13   8   55.09    8.80
   1  13  -8   84.29   11.00
  -1  13   8   69.59    8.80
  -1  13   8   60.19    9.30
   0 -13   8   55.09    8.80
   0 -13  -8   58.29    9.40
   0  13   8   43.40    6.10
   0  13  -8   46.20    7.10
   1 -13   8    9.60    4.20
  -1 -13  -8    8.50    4.00
  -1  13  -8    6.00    3.20
   1  13   8    5.00    2.70
   2 -13   8   44.10    9.00
  -2 -13  -8   23.80    5.50
  -2  13  -8   28.20    6.80
   2  13   8   23.50    3.10
   2  13   8   22.70    2.90
   3 -13   8   45.00    9.00
  -3 -13  -8   51.59    9.20
  -3  13  -8   59.19    9.60
   4 -13   8    0.30    4.10
  -4  13  -8    0.60    3.20
   5 -13   8   40.90    9.60
  -5 -13  -8   33.40    7.60
  -5  13  -8   36.60    7.20
  -5 -14   8   52.09    8.50
  -5 -14   8   41.10    7.50
  -5  14   8   64.29   10.90
  -4 -14   8    4.50    4.20
  -4 -14   8    0.30    3.00
  -4  14   8   -3.10    3.70
  -4  14   8    2.80    4.00
   3 -14  -8   39.00    8.90
  -3 -14   8   27.90    6.30
  -3 -14   8   25.40    6.40
  -3  14   8   41.50    7.80
  -2 -14   8    7.10    4.20
  -2 -14   8    5.70    4.10
   2 -14  -8   15.30    5.40
  -2  14   8   10.50    3.70
  -1 -14   8  134.99   11.40
   1 -14  -8  136.49   11.60
   1  14  -8  139.59   11.30
  -1  14   8  151.48   11.50
   0 -14  -8    7.40    4.00
   0 -14   8    3.80    4.10
   0  14   8    5.10    3.10
   0  14  -8    2.00    2.10
  -1 -14  -8  187.08   13.40
   1 -14   8  176.18   13.90
   1  14   8  160.68    9.50
   1  14   8  175.68    9.10
  -1  14  -8  205.68   13.50
   2 -14   8    5.60    4.40
  -2  14  -8    9.30    4.40
   2  14   8    8.20    2.50
   2  14   8    8.80    2.40
  -3 -14  -8   -0.70    3.70
  -3  14  -8   -0.50    3.40
  -4 -14  -8   -1.60    4.90
   4 -14   8    6.40    5.10
  -4  14  -8    4.00    4.00
   5 -14   8   19.50    7.30
  -5 -14  -8   11.80    5.40
  -5  14  -8    8.80    4.70
  -5 -15   8   13.90    5.50
  -5 -15   8   19.10    5.80
  -5  15   8   11.80    5.70
  -5  15   8   16.10    6.60
   4 -15  -8    3.80    5.20
  -4 -15   8    0.80    3.40
  -4  15   8   -2.60    3.60
  -4  15   8    0.40    3.70
   3 -15  -8   61.09   10.60
  -3 -15   8   67.49   10.70
  -3 -15   8   71.89    9.70
  -3  15   8   69.89   10.60
  -2 -15   8   69.69   11.60
  -2 -15   8   65.29    9.60
   2 -15  -8   52.09    8.90
  -2  15   8   44.20    7.80
   1 -15  -8   13.80    5.00
  -1 -15   8   24.90    7.10
  -1  15   8   17.10    5.90
   1  15  -8   21.70    5.30
   0 -15  -8   96.79   12.20
   0 -15   8   93.69   10.10
   0  15  -8  126.79   11.10
   0  15   8   97.89    8.30
   1 -15   8   17.50    5.40
  -1 -15  -8    8.30    4.10
  -1  15  -8   10.30    4.30
   1  15   8   15.80    3.80
   1  15   8   11.50    4.10
   2 -15   8   29.40    8.80
  -2 -15  -8   16.30    6.00
   2  15   8   30.60    3.90
  -2  15  -8   24.40    6.20
   2  15   8   26.80    3.90
  -3 -15  -8   17.00    5.60
   3 -15   8   12.40    5.30
  -3  15  -8   35.30    8.10
  -4 -15  -8    1.30    4.50
   4 -15   8    3.30    4.30
  -4  15  -8   -0.90    3.80
  -4 -16   8   25.30    7.90
   4 -16  -8   31.00    8.40
  -4 -16   8   46.00    7.80
  -4  16   8   35.50    8.40
  -4  16   8   52.79    9.90
  -3 -16   8    6.90    5.00
  -3 -16   8   20.00    6.90
   3 -16  -8    9.00    8.70
   2 -16  -8   85.09   12.90
  -2 -16   8   76.19   10.10
  -2 -16   8   91.89   12.90
  -2  16   8   74.39   10.80
  -1 -16   8   19.50    5.50
   1 -16  -8   22.70    6.50
   1  16  -8   33.00    7.90
  -1  16   8   24.60    6.10
   0 -16   8    9.30    4.60
   0 -16  -8    5.40    4.60
   0  16  -8    7.90    4.10
   0  16   8    1.80    3.10
  -1 -16  -8   17.70    5.20
   1  16   8   21.70    4.60
  -1  16  -8   14.60    6.10
   2 -16   8   47.90   10.10
  -2 -16  -8   48.50    9.90
   2  16   8   43.40    4.50
  -2  16  -8   36.90    7.60
   3 -16   8    8.20    5.20
  -3 -16  -8    7.80    5.80
  -3  16  -8   -0.70    3.70
   4 -16   8   17.50    8.70
  -4 -16  -8   10.10    6.10
  -4  16  -8   17.20    6.50
  -3 -17   8    0.90    4.50
  -3 -17   8   21.50    7.50
   3 -17  -8   14.00    6.30
  -3  17   8    9.30    5.30
  -2 -17   8   14.60    6.10
   2 -17  -8    7.90    5.70
  -2 -17   8   17.00    5.40
  -2  17   8   16.60    5.70
   2  17  -8    9.00    5.30
   1 -17  -8    2.50    4.50
  -1 -17   8    0.60    4.00
  -1  17   8   -3.80    3.30
  -1  17   8   -1.30    2.80
   1  17  -8   -1.00    3.90
   0 -17   8   73.09   12.80
   0 -17  -8   70.79   11.20
   0  17  -8   79.89   11.30
   0  17   8   67.09    8.70
  -1 -17  -8    3.10    5.00
   1 -17   8   10.00    5.30
   1  17   8   11.70    3.80
  -1  17  -8   13.90    5.10
   2 -17   8    4.20    5.20
  -2 -17  -8   10.90    5.20
   2  17   8   -0.50    2.60
  -2  17  -8    0.30    3.50
   3 -17   8    8.80    4.90
  -3 -17  -8    2.10    5.00
  -3  17  -8   -4.30    4.40
  -2 -18   8   -2.80    7.80
   2 -18  -8   -4.30    4.90
   2  18  -8    3.40    4.30
  -2  18   8    3.10    5.00
  -1 -18   8   12.10    5.30
  -1  18   8   10.40    4.80
  -1  18   8    5.90    4.60
   1  18  -8    6.10    4.60
   0 -18   8   12.90    5.20
   0 -18  -8   10.80    6.10
   0  18   8   18.30    6.70
   0  18  -8   11.60    5.50
   0  18   8   19.80    5.10
  -1 -18  -8    0.30    4.80
   1 -18   8    9.80    5.70
  -1  18  -8    5.00    4.40
   1  18   8    2.30    3.60
   2 -18   8   13.20    7.40
  -2 -18  -8   16.70    7.20
   2  18   8   -0.90    3.10
  -2  18  -8    8.50    5.60
  -8   0   9    5.70    4.00
  -7   0   9  199.18   12.50
  -7   0   9  206.78   13.10
  -6   0   9   -1.00    2.30
  -6   0   9    1.90    2.80
  -5   0   9  414.46   17.00
   5   0  -9  423.66   14.30
  -5   0   9  416.46   14.20
   4   0  -9    2.80    1.70
  -4   0   9    1.90    1.40
   3   0  -9    2.10    1.90
   3   0  -9    3.20    1.20
  -3   0   9    3.00    1.70
  -2   0   9    0.50    1.00
   2   0  -9    0.10    1.40
  -2   0   9    0.50    0.30
   1   0  -9  237.38    9.60
  -1   0   9  236.28    9.80
   0   0  -9   -0.50    1.10
   0   0  -9   -0.10    0.70
   0   0   9   -0.10    0.70
   0   0   9    1.70    1.30
  -1   0  -9  914.31   18.70
   1   0   9  902.01   18.40
   1   0   9  878.01   20.10
  -1   0  -9  913.21   20.10
   2   0   9    2.00    1.50
  -2   0  -9    0.70    1.40
   2   0   9    0.60    1.50
  -2   0  -9    1.80    1.50
  -3   0  -9  232.98    9.30
  -3   0  -9  245.58   11.40
   3   0   9  240.48   11.20
   3   0   9  244.98   10.30
  -4   0  -9    0.30    2.30
  -4   0  -9   -1.50    1.70
   4   0   9    1.30    1.80
  -5   0  -9  192.38   12.50
   5   0   9  203.68   11.00
  -5   0  -9  172.68    8.70
   6   0   9    3.60    3.10
  -6   0  -9    7.90    3.60
  -6   0  -9    1.90    4.50
  -7   0  -9   21.40    5.50
   7   0   9   14.00    6.00
  -8   0  -9    0.40    4.90
  -8  -1   9   11.20    4.10
  -8  -1   9   10.00    4.60
  -8   1   9   17.80    4.80
  -8   1   9   19.30    4.80
  -7  -1   9   39.70    6.80
  -7  -1   9   41.20    7.40
  -7   1   9   25.90    5.60
  -7   1   9   35.10    6.80
  -6  -1   9  262.07   14.00
  -6   1   9  258.67   14.30
  -6   1   9  260.47   14.60
  -5  -1   9   35.20    5.30
   5  -1  -9   40.90    5.50
  -5  -1   9   48.20    5.80
  -5   1   9   50.89    6.20
  -5   1   9   31.10    5.70
   5   1  -9   41.60    5.40
  -4  -1   9    0.10    1.50
  -4  -1   9    3.30    2.10
   4  -1  -9    4.90    1.70
  -4   1   9    4.90    1.80
   4   1  -9    2.70    1.80
  -4   1   9    2.60    2.40
   3  -1  -9  399.16    9.70
  -3  -1   9  386.26    9.80
   3  -1  -9  376.56   14.20
  -3  -1   9  380.96   14.10
   3   1  -9  396.46    9.80
   3   1  -9  394.86   14.40
  -3   1   9  375.86   14.30
  -3   1   9  415.16   12.30
  -2  -1   9  164.18    4.00
   2  -1  -9  167.48    8.50
   2   1  -9  172.88    8.60
  -2   1   9  171.58    8.80
  -2   1   9  168.98    3.70
   2   1  -9  164.78    3.90
  -2   1   9  174.08    3.60
  -1  -1   9   54.59    4.80
   1  -1  -9   62.39    4.90
  -1   1   9   54.89    4.80
   1   1  -9   72.69    5.40
   0  -1   9  573.84   11.10
   0  -1   9  575.04   15.90
   0  -1  -9  547.15   11.00
   0  -1  -9  565.34   14.90
   0   1  -9  560.44   15.40
   0   1   9  545.75   15.00
   0   1  -9  572.94   11.30
   0   1   9  573.84   11.10
  -1  -1  -9   54.59    4.10
   1  -1   9   45.30    4.40
  -1  -1  -9   50.19    3.90
   1  -1   9   56.69    3.80
   1   1   9   46.60    4.10
  -1   1  -9   49.00    4.40
   1   1   9   44.90    3.40
  -1   1  -9   45.40    3.70
  -2  -1  -9  186.48    7.60
  -2  -1  -9  196.08    8.80
   2  -1   9  202.18    9.30
   2  -1   9  198.98    8.90
   2   1   9  193.38    8.80
  -2   1  -9  191.88    8.50
  -2   1  -9  193.58    8.70
   2   1   9  195.78    8.10
   3  -1   9  270.27   11.60
  -3  -1  -9  276.97    9.50
  -3  -1  -9  275.87   12.10
   3  -1   9  269.97   11.90
   3   1   9  275.67   10.40
  -3   1  -9  249.18   11.60
   3   1   9  253.07   11.60
  -3   1  -9  259.07   10.40
   4  -1   9    9.30    2.90
  -4  -1  -9   12.60    2.50
  -4  -1  -9    7.10    2.80
  -4   1  -9   13.20    3.80
  -4   1  -9    5.60    2.60
   4   1   9   14.80    3.40
   5  -1   9   43.50    6.60
  -5  -1  -9   27.20    4.20
  -5  -1  -9   30.30    5.50
  -5   1  -9   26.70    5.50
  -5   1  -9   38.40    5.20
   5   1   9   30.90    5.10
  -6  -1  -9   40.20    5.10
  -6  -1  -9   42.20    7.00
  -6   1  -9   33.80    6.70
   6   1   9   41.80    5.70
  -7  -1  -9    1.90    4.00
   7  -1   9    2.00    4.20
  -7  -1  -9    3.20    6.30
  -7   1  -9   -0.20    4.30
   7   1   9    0.70    3.90
  -8  -1  -9    0.50    4.20
  -8  -1  -9   -0.90    4.50
  -8   1  -9    0.10    4.70
  -8  -2   9   17.20    5.30
  -8  -2   9   23.70    5.90
  -8   2   9   24.00    6.30
  -8   2   9   23.30    6.20
  -7  -2   9   16.10    4.50
  -7  -2   9   24.30    5.70
  -7   2   9   27.10    6.00
  -7   2   9   17.40    5.10
  -6  -2   9    4.60    3.20
  -6  -2   9    9.60    3.90
  -6   2   9    4.50    2.50
  -5  -2   9   51.39    5.20
  -5  -2   9   59.39    6.40
   5  -2  -9   41.70    5.60
   5   2  -9   55.19    5.40
  -5   2   9   45.50    6.80
  -5   2   9   51.59    5.20
   4  -2  -9  104.49    6.00
  -4  -2   9  118.09    8.30
  -4  -2   9  100.29    6.00
  -4   2   9  109.39    8.20
   4   2  -9  105.69    6.20
  -4   2   9  105.69    6.20
  -3  -2   9   19.20    3.90
  -3  -2   9   19.30    2.70
   3  -2  -9   21.80    2.60
   3   2  -9   17.60    3.50
  -3   2   9   15.50    3.60
  -3   2   9   15.50    2.30
   3   2  -9   20.50    2.90
   2  -2  -9  302.97   11.70
  -2  -2   9  291.17    7.10
  -2  -2   9  291.77   11.90
   2   2  -9  282.27   11.40
   2   2  -9  296.57    6.90
  -2   2   9  303.67    6.80
  -2   2   9  305.07   11.90
  -2   2   9  305.47    6.60
   1  -2  -9    9.10    2.70
  -1  -2   9    6.60    2.00
  -1   2   9    8.60    1.10
   1   2  -9    9.30    1.20
   1   2  -9    8.20    2.10
  -1   2   9    5.50    1.70
  -1   2   9    9.10    1.00
   1   2  -9    8.60    1.20
   0  -2   9  121.89    5.30
   0  -2   9  119.39    7.00
   0  -2  -9  117.09    4.60
   0  -2  -9  115.49    6.10
   0   2  -9  122.09    4.70
   0   2  -9  127.49    7.00
   0   2   9  108.89    6.10
  -1  -2  -9    6.00    1.60
   1  -2   9    4.70    2.30
   1  -2   9    4.50    1.60
  -1  -2  -9    5.00    1.80
  -1   2  -9    7.90    2.30
   1   2   9    3.10    1.20
   1   2   9    2.30    1.60
  -1   2  -9    4.40    1.80
  -2  -2  -9  405.36   11.10
  -2  -2  -9  397.66   13.30
   2  -2   9  423.16   14.60
   2  -2   9  404.16   13.20
  -2   2  -9  433.06   13.90
   2   2   9  419.26   13.40
  -2   2  -9  394.06   13.20
   2   2   9  415.96   11.90
  -3  -2  -9    2.70    1.50
  -3  -2  -9    2.70    2.00
   3  -2   9    4.40    1.90
   3  -2   9   -0.30    2.00
   3   2   9    2.20    2.70
   3   2   9    1.40    1.60
  -3   2  -9    1.60    2.10
  -3   2  -9    1.60    1.80
   4  -2   9   84.99    7.50
  -4  -2  -9   88.09    7.90
  -4  -2  -9   84.69    5.10
  -4   2  -9   88.39    7.00
  -4   2  -9   83.49    7.60
   4   2   9   82.59    5.60
  -5  -2  -9   49.40    7.90
   5  -2   9   66.99    8.10
  -5  -2  -9   62.89    4.80
   5   2   9   71.99    5.60
  -5   2  -9   58.19    8.70
   6  -2   9    2.90    4.30
  -6  -2  -9    7.90    5.10
  -6  -2  -9    3.00    2.70
  -6   2  -9    4.70    3.70
   6   2   9    8.50    3.00
  -7  -2  -9   30.50    7.60
  -7  -2  -9   15.10    7.70
  -7  -2  -9   24.00    3.60
   7  -2   9   19.30    6.70
  -7   2  -9   20.60    6.50
  -8  -3   9   14.80    5.50
  -8  -3   9   15.90    4.70
  -8   3   9   11.70    5.60
  -8   3   9   16.30    5.70
  -7  -3   9    0.00    3.30
  -7  -3   9    3.50    3.00
  -7   3   9   -3.20    2.70
  -7   3   9    1.80    3.20
  -6  -3   9  154.88   10.10
  -6  -3   9  182.08   11.50
  -6   3   9  152.08   11.40
  -6   3   9  159.88   10.20
  -5  -3   9   52.99    5.30
  -5  -3   9   37.90    5.80
   5  -3  -9   53.39    6.10
  -5   3   9   55.89    8.50
   5   3  -9   50.49    6.10
  -5   3   9   56.69    5.40
  -4  -3   9   27.00    3.80
  -4  -3   9   18.70    4.20
   4  -3  -9   23.00    3.60
  -4   3   9   25.10    5.40
   4   3  -9   21.50    3.70
  -4   3   9   23.90    3.90
   3  -3  -9  126.19    5.60
  -3  -3   9  116.99    7.60
  -3  -3   9  130.29    6.00
   3   3  -9  127.49    5.90
  -3   3   9  127.09    5.70
   3   3  -9  112.69    7.60
  -3   3   9  129.49    8.40
  -2  -3   9   22.70    2.60
  -2  -3   9   26.80    4.70
   2  -3  -9   21.70    3.80
  -2   3   9   19.30    3.60
  -2   3   9   22.20    2.10
  -2   3   9   14.80    3.20
   2   3  -9   27.60    4.00
  -2   3   9   25.20    2.60
   2   3  -9   22.70    2.10
   1  -3  -9   43.80    4.30
  -1  -3   9   50.49    5.00
   1   3  -9   48.90    2.80
   1   3  -9   45.90    3.40
   1   3  -9   57.69    7.30
  -1   3   9   42.90    4.20
  -1   3   9   44.60    2.70
  -1   3   9   46.80    2.70
   0  -3  -9  658.03   16.20
   0  -3   9  657.33   18.10
   0  -3  -9  663.03   14.30
   0   3  -9  664.23   15.00
   0   3  -9  662.63   18.20
   0   3   9  657.33   13.90
   0   3  -9  636.84   14.00
   0   3   9  657.03   16.30
   1  -3   9   52.89    5.10
   1  -3   9   59.99    4.20
  -1  -3  -9   48.40    3.80
  -1  -3  -9   54.49    4.30
  -1   3  -9   50.69    4.10
   1   3   9   57.39    4.10
   1   3   9   54.39    4.10
   2  -3   9  232.68   10.90
   2  -3   9  226.28    9.80
  -2  -3  -9  229.18    9.80
  -2  -3  -9  221.18    7.40
   2   3   9  232.38    8.00
  -2   3  -9  218.48    9.90
   2   3   9  220.18    9.70
  -2   3  -9  224.18    9.90
   3  -3   9   53.49    7.50
  -3  -3  -9   44.50    3.30
  -3  -3  -9   42.30    6.20
   3  -3   9   34.20    5.50
  -3   3  -9   35.30    5.10
   3   3   9   45.90    6.30
  -3   3  -9   37.50    5.10
   3   3   9   36.70    3.40
  -4  -3  -9   13.80    4.10
   4  -3   9    9.90    3.70
  -4  -3  -9    8.60    2.00
   4   3   9    8.70    2.20
  -4   3  -9    3.20    3.00
  -5  -3  -9   13.20    2.70
   5  -3   9   17.60    5.10
  -5  -3  -9   17.80    5.50
  -5   3  -9   15.10    4.60
   5   3   9   21.30    3.30
  -6  -3  -9  123.69    5.80
  -6  -3  -9  104.79   10.60
   6  -3   9  135.09   11.70
  -6   3  -9  130.79   11.70
  -7  -3  -9   -1.00    3.60
   7  -3   9   -1.80    4.10
  -7  -3  -9   -1.90    3.40
  -7  -3  -9    1.10    2.50
  -7   3  -9    1.70    4.80
  -8  -4   9    5.50    4.40
  -8  -4   9   -0.10    4.20
  -8   4   9   -6.50    3.60
  -8   4   9    3.10    4.20
  -7  -4   9   38.30    7.30
  -7  -4   9   36.40    6.70
  -7   4   9   48.90    8.10
  -7   4   9   48.60    8.90
  -6  -4   9   15.20    4.30
  -6  -4   9    6.70    3.50
  -6   4   9    7.10    3.70
  -6   4   9    5.10    3.60
   5  -4  -9  127.09    8.20
  -5  -4   9  158.18    8.80
  -5  -4   9  132.29    9.40
  -5   4   9  150.98    9.00
   5   4  -9  148.59    8.90
  -5   4   9  147.49   10.50
  -4  -4   9  261.67   10.40
   4  -4  -9  264.57   10.00
  -4  -4   9  259.07   12.60
  -4   4   9  252.37   10.20
  -4   4   9  264.97   13.20
   4   4  -9  244.18   10.00
  -3  -4   9    2.60    1.30
  -3  -4   9    0.70    1.70
  -3   4   9   -2.70    1.30
   3   4  -9    2.40    3.70
  -3   4   9    1.20    1.60
  -3   4   9    2.20    1.30
   3   4  -9    1.60    1.30
  -2  -4   9  191.58    9.70
  -2  -4   9  214.18    7.70
   2   4  -9  199.18    9.70
  -2   4   9  188.18    6.60
  -2   4   9  211.38   11.60
  -2   4   9  202.18    9.90
  -2   4   9  201.88    7.10
   2   4  -9  220.48    7.30
   1  -4  -9  419.76   12.50
   1  -4  -9  406.36   13.10
  -1  -4   9  422.76   14.40
   1   4  -9  432.36   11.00
   1   4  -9  397.06   13.80
  -1   4   9  416.26   10.20
  -1   4   9  450.95   14.10
   1   4  -9  426.86   10.50
  -1   4   9  429.36   15.60
   0  -4  -9  253.47    8.50
   0  -4  -9  251.37    9.10
   0  -4   9  241.88   10.90
   0   4  -9  237.18    8.20
   0   4   9  261.97   10.40
   0   4  -9  236.78   10.40
   0   4  -9  261.17    9.10
   0   4   9  251.17    8.30
  -1  -4  -9   54.99    3.80
   1  -4   9   53.79    4.40
   1  -4   9   43.20    6.00
  -1  -4  -9   54.79    4.40
   1   4   9   46.50    3.70
   1   4   9   47.50    4.10
  -1   4  -9   53.39    5.30
  -1   4  -9   48.60    4.20
   2  -4   9   90.39    7.10
  -2  -4  -9   73.69    4.00
  -2  -4  -9   78.09    5.90
  -2   4  -9   86.19    6.30
  -2   4  -9   77.59    5.80
   2   4   9   80.79    4.30
   3  -4   9    1.50    2.70
  -3  -4  -9    3.80    1.70
  -3  -4  -9    2.10    1.20
  -3   4  -9    4.60    2.60
   3   4   9    5.80    2.10
  -4  -4  -9   17.90    4.40
  -4  -4  -9   17.20    1.90
  -4   4  -9   24.50    5.40
   4   4   9   16.90    2.30
  -5  -4  -9    8.40    1.40
  -5  -4  -9    6.80    3.10
   5  -4   9   11.60    4.70
  -5   4  -9    9.40    4.60
  -6  -4  -9    3.10    3.30
   6  -4   9   10.80    5.40
  -6   4  -9    4.80    3.80
   7  -4   9   15.50    6.50
  -7   4  -9   34.00    7.60
  -8  -5   9    3.40    4.70
  -8  -5   9   -7.80    3.80
  -8   5   9    0.70    4.70
  -8   5   9   -1.70    4.20
  -7  -5   9   -7.20    3.00
  -7   5   9    1.80    3.10
  -6  -5   9   22.30    4.90
  -6  -5   9   36.10    6.30
  -6   5   9   24.40    5.50
  -6   5   9   34.00    6.30
  -5  -5   9    2.10    2.60
  -5  -5   9   -0.90    2.00
  -5   5   9    3.80    2.90
  -5   5   9    1.50    2.30
   4  -5  -9   -1.50    1.90
  -4  -5   9    1.40    1.80
  -4   5   9    0.90    1.90
  -4   5   9    2.80    1.70
  -3  -5   9  470.65   14.20
  -3  -5   9  491.05   16.90
  -3   5   9  486.55   14.40
  -3   5   9  489.85   20.10
   3   5  -9  475.65   13.80
  -3   5   9  497.15   13.80
  -2  -5   9  106.49    7.50
  -2  -5   9  118.99    6.20
  -2   5   9  106.09    5.80
   2   5  -9  116.39    7.50
  -2   5   9  113.39    5.70
  -2   5   9  120.99    9.10
   2   5  -9  118.69    6.10
  -2   5   9  119.09    7.70
   1  -5  -9   34.60    4.20
  -1  -5   9   34.10    5.10
   1   5  -9   32.50    3.30
  -1   5   9   33.40    3.20
   1   5  -9   39.80    5.30
   1   5  -9   35.20    3.30
  -1   5   9   37.90    5.60
  -1   5   9   33.30    4.50
   0  -5   9   25.10    4.30
   0  -5  -9   25.50    3.60
   0   5  -9   22.00    3.30
   0   5  -9   22.20    4.20
   0   5   9   29.70    4.80
   0   5  -9   21.30    3.30
   0   5   9   26.50    3.50
   0   5   9   26.70    3.70
  -1  -5  -9   97.09    6.20
   1  -5   9   98.99    7.60
  -1  -5  -9   89.19    4.90
   1  -5   9   88.99    5.90
   1   5   9   91.79    5.10
  -1   5  -9   82.49    6.50
  -1   5  -9   88.59    5.90
   1   5   9   85.59    5.70
  -2  -5  -9   53.79    5.30
   2  -5   9   51.89    5.40
   2  -5   9   58.29    7.50
  -2  -5  -9   59.59    3.40
  -2   5  -9   61.79    5.60
   2   5   9   55.79    5.40
   2   5   9   56.39    3.50
  -3  -5  -9  368.56   15.00
   3  -5   9  365.96   16.30
  -3   5  -9  333.17   14.40
   3   5   9  345.27    7.80
  -4  -5  -9   -0.90    2.30
   4  -5   9    4.10    3.30
  -4   5  -9   -1.80    2.10
  -5  -5  -9    2.80    3.30
   5  -5   9    3.10    3.50
  -5   5  -9   -1.80    2.40
   6  -5   9    2.10    3.40
  -6  -5  -9   -0.20    3.60
  -6   5  -9   12.20    4.90
   7  -5   9   25.10    7.20
  -7  -5  -9   35.50    7.70
  -7   5  -9   29.40    7.00
  -8  -6   9    1.10    4.20
  -8   6   9    0.40    4.70
  -8   6   9    0.20    4.10
  -7  -6   9   21.40    5.10
  -7  -6   9   26.40    6.40
  -7   6   9   37.70    8.40
  -7   6   9   19.70    5.20
  -6  -6   9   14.60    4.30
  -6  -6   9   12.00    4.00
  -6   6   9   12.70    4.50
  -6   6   9   10.80    3.90
  -5  -6   9  190.08   11.20
  -5  -6   9  188.48   10.90
  -5   6   9  191.18   10.50
  -5   6   9  196.58   13.00
  -4  -6   9    8.70    2.70
  -4  -6   9   11.00    3.80
  -4   6   9    8.90    3.50
   4   6  -9   13.30    3.20
  -4   6   9   10.20    3.80
  -4   6   9   12.00    3.10
  -3  -6   9    2.10    2.00
  -3  -6   9    3.70    2.00
   3   6  -9    2.30    1.90
  -3   6   9    4.70    1.90
  -3   6   9    3.20    2.60
  -3   6   9    0.70    2.00
  -2  -6   9   14.10    3.20
  -2  -6   9   15.30    3.40
  -2   6   9   14.00    4.70
   2   6  -9   18.00    3.40
  -2   6   9   14.00    2.90
  -2   6   9   11.80    2.90
  -2   6   9   10.70    3.50
  -1  -6   9  941.51   24.70
   1  -6  -9  955.60   22.00
  -1   6   9  942.51   22.90
   1   6  -9  938.11   24.10
   1   6  -9  943.21   21.30
   1   6  -9  968.80   21.00
  -1   6   9  938.01   28.10
  -1   6   9  906.71   20.30
   0  -6   9   68.89    6.40
   0  -6  -9   64.89    5.10
   0   6  -9   62.89    5.40
   0   6  -9   63.69    5.80
   0   6   9   55.39    4.50
   0   6  -9   68.59    5.00
   0   6   9   64.49    4.90
   0   6   9   61.99    5.70
  -1  -6  -9  148.69    8.10
   1  -6   9  143.99    9.50
   1   6   9  147.89    7.90
  -1   6  -9  160.88    9.20
   1   6   9  159.78    7.70
   1   6   9  166.78    6.70
  -1   6  -9  147.89    8.10
  -2  -6  -9    0.30    1.70
   2  -6   9    0.40    2.30
   2   6   9    4.40    1.50
   2   6   9    1.70    1.90
  -2   6  -9    3.10    1.90
   3  -6   9   71.69    7.70
  -3  -6  -9   81.69    8.40
  -3   6  -9   79.69    7.30
   4  -6   9    7.10    3.10
  -4  -6  -9    9.90    3.40
  -4   6  -9    9.70    3.70
  -5  -6  -9  126.49   10.90
   5  -6   9  128.19   11.40
  -5   6  -9  123.69   10.90
  -6  -6  -9   -1.90    3.60
   6  -6   9    5.10    4.30
  -6   6  -9    0.30    4.00
   7  -6   9   41.30    8.50
  -7  -6  -9   59.59   10.60
  -7   6  -9   38.40    8.10
  -7  -7   9   12.60    3.90
  -7  -7   9   14.50    4.30
  -7   7   9    9.40    4.10
  -7   7   9   17.10    6.10
  -6  -7   9  136.69   10.50
  -6  -7   9  143.29   10.30
  -6   7   9  139.69   10.60
  -6   7   9  145.89   12.10
  -5  -7   9  117.39    8.90
  -5  -7   9  121.39    9.00
  -5   7   9  116.99    8.70
  -5   7   9  128.09   10.40
  -4  -7   9   33.20    6.00
  -4  -7   9   40.60    6.10
  -4   7   9   37.40    7.40
  -4   7   9   35.10    5.40
   4   7  -9   19.50    4.30
  -4   7   9   37.80    5.60
  -3  -7   9  314.37   12.60
  -3  -7   9  315.07   13.60
  -3   7   9  293.17   13.90
   3   7  -9  309.77   12.20
  -3   7   9  308.77   11.90
  -3   7   9  311.17   14.40
  -2  -7   9  195.08   10.50
  -2  -7   9  171.18    9.00
  -2   7   9  178.38    8.50
   2   7  -9  188.38    8.90
  -2   7   9  177.58    8.60
  -2   7   9  182.98   10.20
   1  -7  -9  317.77   12.30
  -1  -7   9  325.77   14.00
  -1   7   9  325.37   12.50
  -1   7   9  305.57   13.60
  -1   7   9  298.67   11.20
   1   7  -9  316.97   11.50
   1   7  -9  320.77   12.00
   0  -7  -9   82.09    6.30
   0  -7   9   91.89    7.70
   0   7  -9   92.19    6.20
   0   7   9   83.99    6.50
   0   7   9   92.29    5.90
   0   7   9   89.99    6.20
   0   7  -9   99.19    6.90
   1  -7   9   68.39    6.90
  -1  -7  -9   62.09    5.70
  -1   7  -9   72.79    6.00
   1   7   9   58.49    5.40
   1   7   9   72.39    5.20
   1   7   9   68.39    4.40
  -1   7  -9   61.99    6.20
  -2  -7  -9    1.90    2.10
   2  -7   9   -1.00    2.20
   2   7   9   -0.20    1.40
  -2   7  -9    4.00    2.50
   2   7   9    2.80    1.10
  -3  -7  -9   14.00    4.50
   3  -7   9   17.60    4.50
  -3   7  -9   23.80    5.00
   4  -7   9   58.69    9.30
  -4  -7  -9   35.90    5.80
  -4   7  -9   50.39    7.40
   5  -7   9   17.10    6.10
  -5  -7  -9   22.50    5.40
  -5   7  -9   19.80    5.10
   6  -7   9   23.00    6.70
  -6  -7  -9   13.50    7.00
  -6   7  -9   -0.30    4.40
  -7  -7  -9    0.40    4.00
   7  -7   9    3.80    5.00
  -7   7  -9   12.80    6.20
  -7  -8   9   43.20    7.10
  -7  -8   9   27.20    6.60
  -7   8   9   31.70    7.40
  -7   8   9   26.70    6.90
  -6  -8   9   -4.60    2.70
  -6  -8   9   -1.90    3.10
  -6   8   9    2.40    3.80
  -6   8   9    7.40    4.60
  -5  -8   9   22.10    5.50
  -5  -8   9   17.80    4.90
  -5   8   9   14.10    4.50
  -5   8   9   15.20    3.90
  -4  -8   9   56.29    7.60
  -4  -8   9   67.29    6.80
  -4   8   9   73.39    6.80
  -4   8   9   51.39    7.80
  -3  -8   9    3.10    2.20
  -3  -8   9    4.50    2.50
  -3   8   9    5.80    2.40
  -3   8   9    3.70    2.80
   3   8  -9    8.70    2.90
  -3   8   9    9.80    3.30
  -2  -8   9  218.18   10.90
  -2  -8   9  210.88   13.30
  -2   8   9  224.48   11.60
   2   8  -9  224.28   10.40
  -2   8   9  229.78   10.30
   1  -8  -9   56.19    5.60
  -1  -8   9   55.69    7.30
   1   8  -9   55.69    5.10
  -1   8   9   69.69    6.80
  -1   8   9   62.59    5.80
   1   8  -9   59.99    5.80
  -1   8   9   56.69    5.80
   0  -8  -9   73.49    6.30
   0   8  -9   74.59    6.10
   0   8   9   62.19    5.10
   0   8   9   70.09    6.10
   0   8  -9   64.89    6.00
   0   8   9   56.39    5.40
   1  -8   9   10.90    3.70
  -1  -8  -9   12.10    3.50
  -1   8  -9   10.90    3.50
   1   8   9   15.10    3.60
   1   8   9   12.10    2.60
  -1   8  -9   11.70    3.00
   1   8   9    9.90    2.70
  -2  -8  -9  552.84   19.50
   2  -8   9  576.84   21.70
   2   8   9  570.04   11.70
  -2   8  -9  465.55   25.80
   3  -8   9   41.30    7.10
  -3  -8  -9   53.39    8.00
  -3   8  -9   52.99    7.90
   4  -8   9   89.79   11.70
  -4  -8  -9   89.79    8.60
  -4   8  -9   67.99    9.20
  -5  -8  -9    5.90    3.30
   5  -8   9   -0.20    3.80
  -5   8  -9    2.40    3.40
  -6  -8  -9    4.30    3.70
   6  -8   9   10.30    4.80
  -6   8  -9   12.50    5.20
  -7  -8  -9    0.00    4.60
   7  -8   9   -2.00    4.80
  -7   8  -9    4.20    4.40
  -7  -9   9    0.70    3.30
  -7  -9   9    5.70    4.80
  -7   9   9   -0.70    3.50
  -7   9   9    4.80    4.70
  -6  -9   9  124.79   11.00
  -6  -9   9  128.49    9.90
  -6   9   9  114.29   10.30
  -6   9   9  122.29   11.90
  -5  -9   9    2.60    3.60
  -5  -9   9    1.70    2.90
  -5   9   9   -1.20    2.60
  -5   9   9   -0.70    2.50
  -4  -9   9  130.49    9.70
  -4  -9   9  114.29    8.90
  -4   9   9  111.49    9.80
  -4   9   9  107.09    8.50
  -3  -9   9   12.80    4.00
  -3  -9   9   12.30    4.20
  -3   9   9   10.20    3.90
  -3   9   9   12.20    3.40
  -2  -9   9  122.89    8.90
  -2  -9   9  131.99    8.70
  -2   9   9  123.59    9.00
  -2   9   9  126.89    8.30
   2   9  -9  127.99    8.60
  -2   9   9  124.59    8.40
   1  -9  -9   85.89    7.50
  -1  -9   9   87.29    8.00
   1   9  -9   90.59    7.10
  -1   9   9   91.59    7.20
   1   9  -9   71.99    6.70
  -1   9   9   98.89    8.20
  -1   9   9   84.89    6.80
   0  -9   9  320.87   15.30
   0  -9  -9  288.17   13.30
   0   9  -9  301.67   15.80
   0   9   9  301.17   12.90
   0   9  -9  333.67   13.60
   0   9   9  333.27   12.20
   0   9   9  332.97   13.40
  -1  -9  -9   84.69    7.60
   1  -9   9   87.79    8.50
  -1   9  -9   81.79    7.00
   1   9   9   81.79    5.90
   1   9   9   90.09    5.50
  -2  -9  -9   26.60    5.00
   2  -9   9   16.60    4.40
   2   9   9   28.30    3.00
  -2   9  -9   24.90    5.10
   2   9   9   32.30    4.80
   3  -9   9   30.80    6.70
  -3  -9  -9   33.10    6.00
  -3   9  -9   31.30    6.00
  -4  -9  -9   65.09    9.30
   4  -9   9   62.29   10.00
  -4   9  -9   66.59    9.70
   5  -9   9    0.10    3.60
  -5  -9  -9    6.20    3.90
  -5   9  -9    6.30    4.00
   6  -9   9   99.29   13.70
  -6  -9  -9   72.99   11.50
  -6   9  -9   70.19   10.10
  -7 -10   9   30.70    5.70
  -7 -10   9   14.20    6.80
  -7  10   9   23.80    6.20
  -7  10   9   19.10    9.30
  -6 -10   9    6.00    4.00
  -6 -10   9    2.30    3.50
  -6  10   9   -2.30    3.60
  -6  10   9    0.50    3.10
  -5 -10   9   -2.60    3.00
  -5 -10   9    5.60    3.30
  -5  10   9   -0.50    3.00
  -5  10   9    2.90    3.10
  -4 -10   9   84.89    8.50
  -4 -10   9   89.39    8.10
  -4  10   9   89.79   11.30
  -4  10   9   89.19    7.90
  -3 -10   9  267.87   13.70
  -3 -10   9  256.97   13.60
  -3  10   9  246.98   14.50
  -3  10   9  268.67   14.40
  -2 -10   9   99.59    8.50
  -2 -10   9  105.39    9.00
  -2  10   9  112.99    8.10
  -2  10   9  120.39    8.90
   1 -10  -9   83.99    7.70
  -1 -10   9   92.29    8.50
  -1  10   9   76.59    6.70
   1  10  -9   77.59    6.90
   0 -10  -9   19.20    4.30
   0 -10   9   11.50    4.10
   0  10   9   16.10    3.80
   0  10  -9   21.60    4.70
   0  10   9   20.30    4.00
  -1 -10  -9   71.09    7.50
   1 -10   9  104.29    9.60
   1  10   9   80.79    5.90
  -1  10  -9   80.49    7.40
   1  10   9   86.19    5.50
   2 -10   9   11.10    4.00
  -2 -10  -9   13.20    4.20
   2  10   9    8.20    2.00
  -2  10  -9   17.80    4.80
  -3 -10  -9    2.50    2.70
   3 -10   9    5.40    4.00
  -3  10  -9    4.00    2.40
   4 -10   9   34.10    7.20
  -4 -10  -9   29.00    6.70
  -4  10  -9   45.00    7.90
   5 -10   9   63.49   10.90
  -5 -10  -9   75.09   11.00
  -5  10  -9   87.79   11.90
  -6 -10  -9   10.10    5.50
   6 -10   9   -0.80    5.10
  -6  10  -9    5.90    4.80
  -6 -11   9   -1.70    3.60
  -6 -11   9    3.80    3.90
  -6  11   9   -0.90    3.90
  -6  11   9   -7.30    3.70
  -5 -11   9    5.90    3.10
  -5 -11   9    0.50    3.20
  -5  11   9   -1.70    3.40
  -5  11   9    9.40    4.00
  -4 -11   9   -2.50    2.20
  -4 -11   9    7.50    4.00
  -4  11   9    2.10    2.50
  -4  11   9    1.50    2.40
  -3 -11   9  297.97   14.90
  -3 -11   9  287.67   15.00
  -3  11   9  317.77   16.20
  -3  11   9  320.77   14.90
  -2 -11   9   62.39    8.00
  -2 -11   9   75.19    8.10
  -2  11   9   71.89    9.20
  -2  11   9   67.29    6.80
   1 -11  -9   95.59    8.40
  -1 -11   9   92.69    9.00
   1  11  -9   88.89    8.00
   0 -11   9   18.90    5.30
   0 -11  -9   17.00    4.70
   0  11  -9   16.60    4.00
   0  11   9   29.10    5.30
   0  11   9   17.80    3.50
   1 -11   9   19.10    5.30
  -1 -11  -9   38.60    6.90
   1  11   9   38.50    5.10
  -1  11  -9   32.10    6.30
   1  11   9   32.10    4.50
  -2 -11  -9   33.30    6.50
   2 -11   9   44.10    7.70
  -2  11  -9   43.30    7.60
   2  11   9   42.40    3.10
   2  11   9   45.00    3.40
  -3 -11  -9  103.19    9.90
   3 -11   9  117.19   11.10
  -3  11  -9  100.29    9.40
   4 -11   9   21.40    6.70
  -4 -11  -9   25.80    6.20
  -4  11  -9   26.00    5.80
   5 -11   9   45.00    9.50
  -5 -11  -9   19.10    5.70
  -5  11  -9   31.20    7.50
   6 -11   9    2.30    5.80
  -6 -11  -9    5.10    5.00
  -6  11  -9    7.20    5.10
  -6 -12   9   18.80    5.90
  -6 -12   9   18.70    8.70
  -6  12   9   14.30    6.40
  -6  12   9    8.20    4.50
  -5 -12   9   18.50    5.40
  -5 -12   9   29.00    5.60
  -5  12   9   31.70    7.50
  -5  12   9   22.40    5.70
  -4 -12   9    7.60    4.20
  -4 -12   9    1.60    3.40
  -4  12   9    7.10    3.60
  -4  12   9    9.30    4.50
  -3 -12   9   44.90    7.60
  -3 -12   9   48.10    7.50
  -3  12   9   62.99    9.10
  -3  12   9   31.10    6.30
  -2 -12   9    1.80    2.70
  -2 -12   9   -3.40    2.90
  -2  12   9    1.30    2.80
  -2  12   9    2.00    2.20
   1 -12  -9   17.30    4.90
  -1 -12   9   16.50    5.00
  -1  12   9   17.80    4.70
  -1  12   9   22.50    5.40
   1  12  -9   12.40    3.30
   0 -12  -9    0.60    2.80
   0 -12   9    0.50    2.80
   0  12  -9   -1.00    2.30
   0  12   9    2.00    2.80
   0  12   9   -2.30    1.70
  -1 -12  -9  202.18   13.30
   1 -12   9  217.38   14.60
   1  12   9  203.98    9.90
   1  12   9  219.08    9.40
  -1  12  -9  218.28   13.20
   2 -12   9   51.89    9.10
  -2 -12  -9   62.79    8.40
   2  12   9   56.89    4.20
  -2  12  -9   39.80    6.50
   2  12   9   54.69    3.70
   3 -12   9   23.30    6.50
  -3 -12  -9   31.10    6.50
  -3  12  -9   25.00    5.50
   4 -12   9   73.99   17.50
  -4 -12  -9   43.00    8.10
  -4  12  -9   39.80    8.00
   5 -12   9  113.09   15.40
  -5 -12  -9   91.49   12.20
  -5  12  -9   87.29   12.10
  -6 -12  -9   11.70    6.10
   6 -12   9   -1.20    5.80
  -6  12  -9    4.40    4.80
  -6 -13   9   40.70    7.20
  -6 -13   9   38.10    8.80
  -6  13   9   47.50   10.10
  -6  13   9   40.50    7.40
  -5 -13   9    1.00    3.90
  -5 -13   9   -0.50    3.40
  -5  13   9   -1.70    3.40
  -5  13   9    0.40    3.80
  -4 -13   9    7.10    4.70
  -4 -13   9    0.50    3.40
  -4  13   9   -1.50    3.00
  -4  13   9    3.80    3.20
  -3 -13   9  262.27   15.00
  -3 -13   9  229.18   15.20
  -3  13   9  264.87   15.10
  -3  13   9  285.17   15.90
  -2 -13   9    3.70    3.50
  -2 -13   9   -4.40    2.40
  -2  13   9   -0.30    2.50
  -2  13   9    2.30    3.10
  -1 -13   9    6.60    3.30
  -1  13   9   10.10    4.30
  -1  13   9    7.10    3.30
   1  13  -9    3.90    3.10
   0 -13  -9   47.60    8.00
   0 -13   9   42.40    8.10
   0  13   9   44.80    6.30
   0  13  -9   50.79    7.80
  -1 -13  -9   47.60    8.20
   1 -13   9   36.50    7.60
  -1  13  -9   30.20    5.60
   1  13   9   43.50    5.50
  -2 -13  -9   10.60    4.60
   2 -13   9   10.60    4.00
   2  13   9    7.40    2.00
  -2  13  -9    3.80    3.00
   2  13   9   11.40    2.60
  -3 -13  -9   11.40    5.30
   3 -13   9   14.40    4.90
  -3  13  -9    7.80    3.80
   4 -13   9   -2.90    4.00
  -4 -13  -9    0.50    3.20
  -4  13  -9   -2.60    3.50
  -5 -13  -9    0.40    4.30
   5 -13   9   -0.90    5.40
  -5  13  -9    1.60    4.20
  -5 -14   9   18.80    4.90
  -5 -14   9   38.70    9.00
  -5  14   9   20.60    5.90
  -5  14   9   47.70   13.50
  -4 -14   9  101.19   10.70
  -4 -14   9   98.89    9.70
  -4  14   9  114.69   10.60
  -4  14   9  100.29   12.50
  -3 -14   9    8.40    3.90
  -3 -14   9    1.60    3.40
  -3  14   9   -1.80    2.80
  -3  14   9    0.20    3.60
  -2 -14   9   80.69   10.70
  -2 -14   9   73.99   10.40
  -2  14   9   87.29    9.10
  -2  14   9   81.09   10.10
  -1 -14   9    2.90    3.50
   1  14  -9    2.90    2.70
  -1  14   9    4.30    3.00
  -1  14   9    2.00    2.90
   0 -14   9   -0.80    3.10
   0 -14  -9    3.70    3.30
   0  14  -9    2.50    2.90
   0  14   9    3.10    3.20
   1 -14   9    1.40    2.90
  -1 -14  -9    9.90    4.70
   1  14   9    5.20    2.70
  -1  14  -9    8.60    4.40
   1  14   9   -5.90    3.30
   2 -14   9   84.59   12.00
  -2 -14  -9  105.99   11.10
  -2  14  -9   74.09   10.10
   2  14   9   86.69    4.90
   2  14   9   77.69    5.00
   3 -14   9   -0.70    3.50
  -3 -14  -9   -1.50    3.80
  -3  14  -9   -4.00    4.60
  -4 -14  -9   56.29   10.20
   4 -14   9   45.00    8.90
  -4  14  -9   28.40    6.60
   5 -14   9   22.20    7.70
  -5 -14  -9   18.50    6.10
  -5  14  -9   21.80    7.80
  -5 -15   9    2.40    4.80
  -5 -15   9    9.30    5.20
  -5  15   9   -2.00    4.90
  -5  15   9    3.50    4.60
  -4 -15   9   13.30    9.00
  -4 -15   9   15.80    5.70
  -4  15   9   12.90    5.90
  -4  15   9    6.60    4.50
  -3 -15   9   11.60    5.20
  -3 -15   9   20.40    5.80
  -3  15   9   18.60    4.90
  -3  15   9   33.00    7.40
  -2 -15   9   38.20    8.30
  -2 -15   9   44.70    7.90
  -2  15   9   39.10    7.00
  -2  15   9   32.90    7.20
   2  15  -9   47.70    8.80
  -1 -15   9   10.10    4.00
   1  15  -9   18.60    5.40
  -1  15   9   16.20    5.10
  -1  15   9   15.60    4.90
   0 -15   9   45.40    8.80
   0 -15  -9   31.30    5.80
   0  15   9   32.40    5.70
   0  15  -9   43.60    8.40
   1 -15   9    2.30    4.30
  -1 -15  -9    0.50    3.40
   1  15   9   -3.10    3.80
  -1  15  -9    0.10    2.80
   1  15   9    1.60    2.20
   2 -15   9    9.50    4.90
  -2 -15  -9    2.00    3.10
   2  15   9    2.10    2.10
   2  15   9    3.40    2.70
  -2  15  -9   -6.10    3.50
   3 -15   9   27.00    8.20
  -3 -15  -9   30.60    7.30
  -3  15  -9   27.30    6.80
   4 -15   9    3.80    6.20
  -4 -15  -9   21.00    7.30
  -4  15  -9   15.90    5.80
  -4 -16   9    8.70    5.40
  -4 -16   9    8.30    6.00
  -4  16   9    4.50    4.30
  -4  16   9    1.10    4.00
  -3 -16   9    9.90    4.80
  -3 -16   9    9.00    6.30
  -3  16   9    7.10    4.80
  -2 -16   9   58.59   10.60
   2  16  -9   46.40    8.50
  -2  16   9   46.90    9.30
  -2  16   9   51.79    8.40
  -1 -16   9   43.20    8.40
  -1  16   9   50.49    8.00
  -1  16   9   42.60    7.60
   1  16  -9   71.09   11.00
   0 -16   9   -1.50    3.50
   0 -16  -9   17.60    5.70
   0  16  -9    8.60    4.70
   0  16   9   17.80    4.50
  -1 -16  -9   -0.60    4.90
   1 -16   9    3.00    4.60
  -1  16  -9    7.70    7.20
   1  16   9   -0.30    2.70
   2 -16   9   47.40    9.40
  -2 -16  -9   38.60    8.30
  -2  16  -9   38.30    8.00
   2  16   9   34.30    4.20
  -3 -16  -9   21.00    7.10
   3 -16   9   11.80    6.10
  -3  16  -9   17.30    6.20
  -3 -17   9   12.50    5.70
  -3 -17   9   23.00    7.20
  -3  17   9    7.10    4.30
  -3  17   9    7.60    5.00
  -2 -17   9   -5.90    3.50
  -2  17   9   -2.00    3.60
  -2  17   9   -1.20    3.30
   2  17  -9   -0.20    3.30
  -1 -17   9    7.90    5.70
   1  17  -9    6.70    5.40
  -1  17   9    9.10    4.90
  -1  17   9    8.70    4.10
   0 -17   9   -0.40    4.00
   0 -17  -9   -3.00    4.30
   0  17  -9   -6.10    3.80
   0  17   9    1.50    3.10
  -1 -17  -9   62.39   10.40
   1 -17   9   64.49    9.40
  -1  17  -9   77.29   11.30
   1  17   9   70.49    6.90
  -2 -17  -9    2.50    4.90
   2 -17   9    7.00    4.70
  -2  17  -9    5.00    5.90
   2  17   9    3.10    2.40
  -3 -17  -9   54.39    9.90
   3 -17   9   63.79   12.50
  -3  17  -9   53.69   11.10
  -2 -18   9   21.10    6.40
  -2  18   9   17.50    6.00
   2  18  -9   34.80    9.40
  -2  18   9   26.10    6.90
  -1 -18   9   64.69   11.40
  -1  18   9   62.79    8.50
  -1  18   9   70.39   12.00
   1  18  -9   55.49    9.90
   0 -18  -9    2.70    4.90
   0 -18   9    5.70    5.00
   0  18   9    2.40    4.10
   0  18  -9    4.40    4.50
   0  18   9   -2.80    3.30
  -1 -18  -9    0.00    4.70
   1 -18   9   -1.40    4.20
  -1  18  -9    7.60    5.40
   1  18   9    2.00    3.60
  -8   0  10   73.49    9.70
  -8   0  10   61.69    9.80
  -7   0  10   -1.00    2.80
  -7   0  10    0.70    3.10
  -6   0  10  140.59    9.30
  -6   0  10  166.08   11.50
   5   0 -10   -2.70    2.20
  -5   0  10    3.80    2.50
  -5   0  10   -0.50    2.50
  -4   0  10  839.72   18.30
  -4   0  10  862.41   24.70
   4   0 -10  812.62   18.00
  -3   0  10   -1.50    1.60
   3   0 -10    1.00    0.90
  -3   0  10    1.30    1.00
  -2   0  10   11.80    3.00
   2   0 -10   14.00    3.50
   1   0 -10    1.30    1.60
  -1   0  10    0.60    1.10
   0   0 -10   23.80    3.70
   0   0 -10   20.70    1.90
   0   0  10   21.60    3.40
   0   0  10   23.20    1.90
   1   0  10    1.20    1.20
   1   0  10    0.50    1.40
  -1   0 -10    0.80    1.20
  -1   0 -10    1.00    0.90
   2   0  10 1071.29   24.00
  -2   0 -10 1081.89   24.40
   2   0  10 1113.69   24.70
  -2   0 -10 1056.49   23.30
  -3   0 -10    0.50    1.70
  -3   0 -10    0.10    1.70
   3   0  10    2.30    2.50
   3   0  10   -2.00    1.60
  -4   0 -10   38.30    6.90
   4   0  10   31.80    5.20
  -5   0 -10    4.00    2.60
   5   0  10    3.60    3.10
  -5   0 -10   -4.00    2.20
   6   0  10  106.89    9.00
  -6   0 -10   78.99   11.00
  -7   0 -10   -2.50    4.10
   7   0  10   -5.30    3.80
  -8  -1  10   26.60    7.00
  -8  -1  10   26.40    6.50
  -8   1  10   28.30    6.60
  -8   1  10   25.60    6.40
  -7  -1  10   19.50    4.80
  -7  -1  10   29.50    6.80
  -7   1  10   17.90    4.50
  -7   1  10   36.50    6.80
  -6  -1  10  124.79    9.80
  -6  -1  10  106.49    8.00
  -6   1  10  114.89    9.70
  -6   1  10  120.69    8.70
  -5  -1  10   44.30    5.50
   5  -1 -10   47.10    6.00
  -5  -1  10   42.30    6.70
  -5   1  10   53.59    5.20
   5   1 -10   51.69    7.00
  -5   1  10   42.50    6.40
   4  -1 -10    1.50    1.60
  -4  -1  10   -0.50    1.20
  -4  -1  10    1.50    1.70
  -4   1  10    3.00    2.90
   4   1 -10    0.10    1.50
  -4   1  10   -0.50    1.10
  -3  -1  10   15.80    3.40
  -3  -1  10   21.90    2.10
  -3   1  10   24.00    4.50
  -3   1  10   19.50    2.00
  -2  -1  10   89.89    6.80
   2  -1 -10   87.19    6.50
  -2   1  10   96.59    6.90
   2   1 -10   93.79    6.90
  -1  -1  10   20.60    3.70
  -1   1  10   25.20    3.90
   1   1 -10   22.20    4.00
   0  -1 -10  703.03   13.10
   0  -1  10  724.13   13.30
   0  -1  10  712.83   18.90
   0  -1 -10  680.93   17.50
   0   1 -10  701.43   18.30
   0   1 -10  699.33   13.30
   0   1  10  705.93   13.10
   0   1  10  686.73   18.00
   1  -1  10    7.70    1.90
  -1  -1 -10    6.10    1.70
   1  -1  10    3.20    1.80
  -1  -1 -10    8.40    2.00
   1   1  10    8.80    2.50
  -1   1 -10    5.20    1.70
  -1   1 -10   10.50    2.60
   1   1  10    7.00    1.70
   2  -1  10   21.00    3.80
  -2  -1 -10   21.10    3.30
  -2  -1 -10   27.30    4.20
   2  -1  10   22.90    4.00
  -2   1 -10   22.90    3.70
   2   1  10   27.00    4.10
   2   1  10   16.90    3.40
  -2   1 -10   35.20    5.00
  -3  -1 -10   31.80    4.10
  -3  -1 -10   34.90    5.30
   3  -1  10   43.30    5.90
   3  -1  10   28.60    4.90
   3   1  10   45.80    5.60
   3   1  10   36.00    5.50
  -3   1 -10   32.90    5.30
  -3   1 -10   39.10    6.10
  -4  -1 -10   15.40    4.40
   4  -1  10   16.00    4.40
  -4  -1 -10   13.70    2.60
   4   1  10   11.30    3.30
  -4   1 -10   11.40    3.20
  -4   1 -10   13.60    4.40
  -5  -1 -10    6.10    2.80
   5  -1  10    8.20    3.40
  -5  -1 -10    3.60    2.80
   5   1  10    8.30    3.10
  -5   1 -10    4.20    3.00
  -6  -1 -10   38.20    5.10
   6  -1  10   53.49    7.70
  -6  -1 -10   48.60    9.00
  -6   1 -10   40.20    7.30
   6   1  10   50.69    6.70
   7  -1  10    8.10    5.20
  -7  -1 -10    0.80    4.00
  -7   1 -10    9.30    5.10
   7   1  10    9.70    4.40
  -8  -2  10   -1.10    4.80
  -8  -2  10    0.50    4.30
  -8   2  10   -1.00    3.90
  -8   2  10    0.50    4.40
  -7  -2  10  100.09    9.70
  -7  -2  10   97.39    8.80
  -7   2  10   81.49   11.10
  -7   2  10  114.69    9.40
  -6  -2  10    1.30    2.80
  -6  -2  10    6.60    3.50
  -6   2  10    2.50    2.70
  -6   2  10    3.60    3.10
  -5  -2  10   18.30    4.60
  -5  -2  10   15.60    3.30
   5   2 -10   14.60    3.80
  -5   2  10   15.90    3.70
  -5   2  10   20.80    4.90
  -4  -2  10  147.09    9.60
   4  -2 -10  129.99    6.30
  -4  -2  10  140.09    6.70
  -4   2  10  133.89    9.40
   4   2 -10  128.89    6.60
  -4   2  10  132.19    6.50
   3  -2 -10   35.70    2.70
  -3  -2  10   31.80    2.90
  -3  -2  10   33.60    5.30
  -3   2  10   43.00    6.40
   3   2 -10   36.80    3.00
  -2  -2  10  235.88   10.90
   2  -2 -10  216.18   10.30
  -2  -2  10  239.38    5.80
  -2   2  10  238.18    4.90
  -2   2  10  241.88    4.80
  -2   2  10  248.78   11.10
   2   2 -10  245.18    5.50
   2   2 -10  230.58   10.70
  -1  -2  10  188.48    9.50
  -1   2  10  194.28    3.90
   1   2 -10  179.78    9.10
   1   2 -10  191.58    4.50
   1   2 -10  193.28    4.60
  -1   2  10  190.28    9.00
  -1   2  10  191.38    3.90
   0  -2 -10    2.50    1.10
   0  -2  10    2.70    1.10
   0  -2  10    2.40    1.70
   0  -2 -10    2.40    1.70
   0   2  10    2.40    1.50
   0   2  10    2.30    1.30
   0   2 -10    0.70    1.50
   0   2 -10    0.90    1.00
   1  -2  10  520.25   16.30
  -1  -2 -10  512.55   13.80
   1  -2  10  509.15   13.40
  -1  -2 -10  510.45   13.40
   1   2  10  521.25   14.40
   1   2  10  525.75   13.50
  -1   2 -10  528.95   13.70
   2  -2  10  565.94   17.80
  -2  -2 -10  514.95   13.60
   2  -2  10  541.95   15.90
  -2  -2 -10  538.85   16.00
   2   2  10  553.94   14.80
  -2   2 -10  544.45   16.10
   2   2  10  507.85   15.50
  -2   2 -10  527.65   16.20
   3  -2  10   72.49    6.80
   3  -2  10   77.99    9.00
  -3  -2 -10   64.69    4.70
  -3  -2 -10   68.09    6.30
  -3   2 -10   64.29    6.00
   3   2  10   70.59    5.20
   3   2  10   74.89    8.90
  -3   2 -10   62.49    6.20
   4  -2  10   71.19    7.10
  -4  -2 -10   66.09    7.00
  -4  -2 -10   61.69    4.90
  -4   2 -10   56.09   10.10
  -4   2 -10   71.99    7.20
   4   2  10   71.99    5.40
  -5  -2 -10  141.19    7.30
  -5  -2 -10  176.88   11.90
   5   2  10  162.38    8.40
  -5   2 -10  171.28   11.80
  -6  -2 -10   -0.20    3.20
   6  -2  10   -3.70    3.30
  -6  -2 -10    5.90    3.00
  -6   2 -10   -0.60    3.50
   6   2  10    0.10    2.70
   7  -2  10   25.30    6.20
  -7  -2 -10   30.30    7.70
  -7   2 -10   28.40    6.70
  -8  -3  10   -2.10    7.10
  -8  -3  10    4.00    4.30
  -8   3  10   -7.70    4.10
  -8   3  10    6.70    4.50
  -7  -3  10    7.20    3.50
  -7  -3  10    4.60    3.80
  -7   3  10   -2.80    3.70
  -7   3  10    4.60    3.50
  -6  -3  10   69.39    9.10
  -6  -3  10   67.39    9.10
  -6   3  10   61.89    8.80
  -5  -3  10   54.39    6.20
  -5  -3  10   54.69    7.80
   5  -3 -10   50.29    5.60
  -5   3  10   57.89    8.00
  -5   3  10   52.89    5.40
   5   3 -10   48.30    5.80
  -4  -3  10    4.10    2.00
   4  -3 -10   -0.30    1.60
  -4  -3  10    3.10    2.20
  -4   3  10    3.00    1.60
  -4   3  10    2.00    2.10
   4   3 -10    4.00    1.90
  -3  -3  10  317.77    9.50
  -3  -3  10  337.27   14.00
  -3   3  10  323.27    9.70
  -3   3  10  332.77   14.20
   3   3 -10  322.67    9.30
  -3   3  10  325.87    9.20
  -2  -3  10   27.20    2.60
  -2  -3  10   24.30    4.20
   2  -3 -10   38.10    5.40
  -2   3  10   33.30    2.30
   2   3 -10   31.80    4.50
  -2   3  10   31.60    2.20
   2   3 -10   26.50    4.00
  -2   3  10   38.90    5.60
  -1  -3  10   91.19    6.80
  -1   3  10   94.19    3.70
   1   3 -10   91.49    4.00
   1   3 -10   85.09    6.10
  -1   3  10   86.79    3.60
   1   3 -10   97.79    3.90
  -1   3  10   93.79    6.40
   0  -3 -10   13.60    3.00
   0  -3  10   10.90    3.20
   0  -3 -10   13.30    2.20
   0   3  10   16.50    3.10
   0   3 -10   11.00    2.90
   0   3  10   18.90    2.60
   0   3 -10   13.50    2.60
   0   3 -10   12.70    2.10
   1  -3  10  200.28   10.10
  -1  -3 -10  175.68    7.70
   1  -3  10  188.08    7.80
  -1  -3 -10  173.68    7.50
  -1   3 -10  188.98    9.40
   1   3  10  174.88    7.50
   1   3  10  200.98    8.10
  -1   3 -10  187.28    8.00
  -2  -3 -10   35.30    5.10
   2  -3  10   49.80    6.40
   2  -3  10   36.10    5.80
  -2  -3 -10   37.40    3.40
   2   3  10   39.30    3.50
  -2   3 -10   50.59    6.20
  -2   3 -10   28.30    4.70
   2   3  10   41.00    5.30
   3  -3  10  294.67   13.40
  -3  -3 -10  293.17   13.00
  -3  -3 -10  275.87    8.80
   3   3  10  292.37    9.80
  -3   3 -10  282.27   12.40
  -3   3 -10  262.27   12.50
  -4  -3 -10   20.90    3.00
   4  -3  10   17.90    4.80
  -4  -3 -10   22.50    5.10
  -4   3 -10   16.00    4.10
   4   3  10   20.80    3.10
   5  -3  10   -0.40    2.70
  -5  -3 -10    4.60    2.20
  -5  -3 -10    2.60    2.30
  -5   3 -10    3.80    2.80
   5   3  10    5.50    2.30
  -6  -3 -10    8.40    2.70
   6  -3  10   15.80    6.00
  -6  -3 -10   14.30    6.10
  -6   3 -10   23.90    6.50
   6   3  10   19.60    3.40
   7  -3  10   28.90    8.30
  -7  -3 -10   40.20    9.10
  -7  -3 -10   29.90    3.50
  -7   3 -10   29.70    7.70
  -8  -4  10   32.20    6.80
  -8  -4  10   18.70    5.50
  -8   4  10   15.90    5.10
  -8   4  10   24.00    6.70
  -7  -4  10   32.60    6.10
  -7  -4  10   31.20    6.70
  -7   4  10   41.60    6.60
  -6  -4  10   10.70    3.50
  -6  -4  10   15.90    4.60
  -6   4  10   10.30    4.40
  -6   4  10   12.90    4.50
  -5  -4  10   24.00    4.90
   5  -4 -10   28.30    4.50
  -5  -4  10   25.60    4.20
  -5   4  10   21.80    5.70
   5   4 -10   23.60    4.20
  -5   4  10   29.70    4.90
  -4  -4  10    3.50    1.90
  -4  -4  10    4.10    2.00
   4  -4 -10    0.40    1.60
   4   4 -10    1.20    1.80
  -4   4  10   -1.20    1.70
  -4   4  10   -0.80    1.50
  -3  -4  10   72.09    4.90
  -3  -4  10   90.29    7.40
  -3   4  10   75.89    5.00
  -3   4  10   85.79    4.90
   3   4 -10   89.09    5.20
  -3   4  10   67.39   11.00
  -2  -4  10   78.19    4.50
  -2  -4  10   75.59    6.30
   2   4 -10   85.49    4.50
  -2   4  10   80.59    4.30
  -2   4  10   72.89    7.20
  -2   4  10   83.59    6.50
  -2   4  10   86.49    4.20
   1  -4 -10  437.86   14.20
  -1  -4  10  445.56   15.40
   1   4 -10  430.66   10.70
  -1   4  10  450.65   14.50
  -1   4  10  441.56   10.50
   1   4 -10  439.56   15.10
   1   4 -10  450.05   11.20
   0  -4 -10   63.79    4.90
   0  -4  10   56.39    5.70
   0  -4 -10   63.99    4.20
   0   4 -10   61.09    4.20
   0   4  10   67.69    5.00
   0   4 -10   66.69    4.70
   0   4 -10   58.39    5.60
   0   4  10   65.39    4.20
  -1  -4 -10   47.50    3.90
   1  -4  10   46.00    4.20
   1  -4  10   48.10    6.10
  -1  -4 -10   50.79    4.40
  -1   4 -10   40.80    5.80
   1   4  10   47.60    4.00
   1   4  10   47.60    4.20
  -1   4 -10   50.59    4.40
   2  -4  10    0.60    1.70
  -2  -4 -10    0.70    1.20
   2  -4  10    2.90    2.30
  -2  -4 -10    1.90    1.60
  -2   4 -10    2.70    1.90
   2   4  10    2.00    2.10
  -2   4 -10    6.80    2.70
   2   4  10    1.40    1.30
  -3  -4 -10   51.29    3.50
   3  -4  10   56.19    7.40
  -3  -4 -10   58.79    5.90
   3   4  10   52.89    3.80
  -3   4 -10   51.69    6.50
  -4  -4 -10  172.78    5.70
   4  -4  10  173.98   11.60
  -4  -4 -10  195.68   11.80
  -4   4 -10  186.18   11.70
  -5  -4 -10  202.48   13.00
  -5  -4 -10  193.68    5.90
   5  -4  10  200.38   13.40
   5   4  10  171.08    5.90
  -5   4 -10  192.58   13.20
  -6  -4 -10    1.20    3.10
   6  -4  10    5.30    4.00
  -6   4 -10    0.80    3.60
  -7  -4 -10   16.00    5.90
   7  -4  10   22.00    6.70
  -7   4 -10   32.00    7.70
  -8  -5  10   18.20    5.70
  -8  -5  10   12.10    4.80
  -8   5  10   22.10    6.40
  -8   5  10   15.80    6.40
  -7  -5  10   -4.10    3.10
  -7  -5  10    1.40    3.50
  -7   5  10    0.70    3.10
  -7   5  10    2.80    3.30
  -6  -5  10   47.90    7.40
  -6  -5  10   44.30    6.40
  -6   5  10   55.39    7.30
  -6   5  10   50.69    8.60
  -5  -5  10   -1.40    2.50
   5  -5 -10   -3.00    2.80
  -5  -5  10    5.10    2.80
   5   5 -10    1.30    2.90
  -5   5  10    3.40    3.10
  -5   5  10    2.30    2.60
  -4  -5  10   46.30    5.80
  -4  -5  10   42.10    6.30
  -4   5  10   42.30    5.30
  -4   5  10   50.99    8.00
   4   5 -10   36.60    4.60
  -4   5  10   39.00    5.00
  -3  -5  10    6.00    2.50
  -3  -5  10    3.80    2.70
  -3   5  10    2.50    2.30
  -3   5  10    4.50    1.90
  -3   5  10    4.40    2.20
   3   5 -10    5.20    2.10
  -2  -5  10  413.16   15.70
  -2  -5  10  434.16   12.60
  -2   5  10  451.25   11.70
  -2   5  10  430.46   11.70
   2   5 -10  422.16   11.80
  -2   5  10  435.96   15.60
   1  -5 -10  105.09    5.70
  -1  -5  10   99.79    7.40
  -1   5  10  104.09    5.20
  -1   5  10   91.49    6.60
   1   5 -10  105.89    5.40
   1   5 -10  102.19    5.70
   1   5 -10   90.39   12.00
  -1   5  10   87.69    7.60
   0  -5  10  378.46   14.90
   0  -5 -10  368.76   11.70
   0   5 -10  388.26   15.70
   0   5 -10  377.66   12.20
   0   5  10  381.46   11.50
   0   5  10  369.36   13.90
   0   5  10  368.76   12.30
   0   5 -10  423.76   12.10
   1  -5  10   46.00    5.30
  -1  -5 -10   40.40    3.60
   1  -5  10   38.90    6.20
  -1  -5 -10   43.00    5.20
   1   5  10   40.50    4.20
   1   5  10   40.60    3.70
  -1   5 -10   50.39    4.60
  -2  -5 -10   88.79    4.60
  -2  -5 -10  104.39    7.30
   2  -5  10   93.29    7.00
   2  -5  10  104.19    8.20
   2   5  10   91.99    7.00
   2   5  10   76.49    4.40
  -2   5 -10  101.99    7.30
  -3  -5 -10  253.27   14.40
   3  -5  10  254.47   13.90
   3   5  10  264.37    7.60
   4  -5  10  355.96   17.30
  -4  -5 -10  344.87   16.20
  -4   5 -10  324.67   16.10
   5  -5  10   -1.50    3.00
  -5  -5 -10   -2.40    2.50
  -5   5 -10    4.30    3.50
  -6  -5 -10  128.09   11.80
   6  -5  10  145.49   12.00
  -6   5 -10  139.39   12.30
  -7  -5 -10    8.10    5.40
   7  -5  10    3.80    4.60
  -7   5 -10    7.80    5.50
  -8  -6  10   13.60    5.20
  -8  -6  10   10.60    6.60
  -8   6  10    4.20    5.30
  -8   6  10   12.60    5.40
  -7  -6  10    3.40    3.90
  -7  -6  10    1.10    3.80
  -7   6  10   14.90    4.80
  -7   6  10    9.80    4.60
  -6  -6  10   60.09    8.20
  -6  -6  10   65.09    8.10
  -6   6  10   74.89   11.00
  -6   6  10   54.39    7.80
  -5  -6  10  128.39    9.60
  -5  -6  10  129.39    9.00
  -5   6  10  124.49   10.60
  -5   6  10  133.29    8.90
  -4  -6  10  237.78   12.20
  -4  -6  10  233.58   10.70
   4   6 -10  217.18   10.30
  -4   6  10  216.48   10.00
  -4   6  10  207.88   12.50
  -4   6  10  220.78   12.20
  -3  -6  10   76.99    6.00
  -3  -6  10   70.99    7.20
  -3   6  10   75.09    5.30
   3   6 -10   69.59    5.30
  -3   6  10   68.79    5.70
  -3   6  10   70.89    6.80
  -2  -6  10  184.28   10.30
  -2  -6  10  169.88    8.20
  -2   6  10  154.48    9.30
  -2   6  10  167.08    7.40
   2   6 -10  162.38    7.60
  -2   6  10  157.28    7.40
   1  -6 -10    1.70    1.60
  -1  -6  10    1.20    2.30
  -1   6  10   -0.40    1.50
   1   6 -10    0.40    1.20
  -1   6  10   -1.10    2.40
   1   6 -10    0.30    1.70
  -1   6  10    1.50    1.90
   0  -6  10  252.67   12.50
   0  -6 -10  261.37   10.20
   0   6  10  259.57   10.00
   0   6  10  249.58    9.60
   0   6 -10  231.98    9.50
   0   6  10  244.48   11.20
   0   6 -10  243.88   10.40
   1  -6  10   22.50    4.90
  -1  -6 -10   26.60    4.40
   1   6  10   19.80    4.00
   1   6  10   24.30    4.00
  -1   6 -10   18.90    3.60
   1   6  10   23.60    3.30
  -2  -6 -10  108.59    7.70
   2  -6  10  113.49    8.80
   2  -6  10  105.59    7.70
   2   6  10  108.49    7.80
   2   6  10  105.69    5.00
   2   6  10  108.19    5.60
  -2   6 -10  105.99    7.80
  -3  -6 -10    5.50    2.30
   3  -6  10    3.50    3.50
   3   6  10    5.60    1.20
  -3   6 -10    6.50    3.40
   3   6  10    3.60    1.20
   4  -6  10  401.46   19.10
  -4  -6 -10  363.36   17.00
  -4   6 -10  360.96   17.00
  -5  -6 -10   -0.70    3.00
   5  -6  10    0.60    3.30
  -5   6 -10    2.80    3.10
   6  -6  10    2.80    4.00
  -6   6 -10    2.00    7.00
   7  -6  10    8.30    6.70
  -7  -6 -10    4.80    4.60
  -7   6 -10   14.40    6.30
  -7  -7  10    1.30    3.70
  -7  -7  10    4.80    4.60
  -7   7  10    8.10    4.50
  -7   7  10   -5.10    3.20
  -6  -7  10  101.89    9.60
  -6  -7  10   91.99    8.90
  -6   7  10  114.99    9.50
  -6   7  10  105.89   10.50
  -5  -7  10   78.89    9.60
  -5  -7  10   72.39    8.40
  -5   7  10   88.09   11.00
  -4  -7  10   73.49    6.50
  -4  -7  10   63.79    8.20
  -4   7  10   65.79    5.80
  -4   7  10   61.99    8.70
  -4   7  10   60.19    6.40
   4   7 -10   64.19    6.10
  -3  -7  10  207.98   11.20
  -3  -7  10  195.08   10.00
  -3   7  10  203.38    9.30
  -3   7  10  182.08   11.10
  -3   7  10  188.18    9.70
  -2  -7  10  282.97   11.70
  -2  -7  10  300.07   17.40
  -2   7  10  286.87   10.70
   2   7 -10  272.87   10.80
  -2   7  10  280.77   10.90
  -2   7  10  256.67   12.40
  -1  -7  10    2.70    3.20
  -1   7  10    3.00    2.10
  -1   7  10    6.60    3.20
   1   7 -10    1.70    2.10
  -1   7  10    1.00    1.90
   1   7 -10    0.90    1.40
   0  -7 -10  255.87   11.10
   0   7 -10  279.37   11.00
   0   7 -10  253.57   11.20
   0   7  10  255.77   11.60
   0   7  10  251.27   10.20
   0   7  10  239.18   10.30
  -1  -7 -10   87.49    6.60
   1  -7  10   92.59    8.20
  -1   7 -10   78.39    6.40
  -1   7 -10   74.09    7.00
   1   7  10   86.09    6.70
   1   7  10   91.89    5.40
   1   7  10   83.49    6.00
   2  -7  10    9.80    3.40
  -2  -7 -10   17.00    4.00
   2   7  10    9.80    2.40
   2   7  10   14.50    2.30
  -2   7 -10   11.40    3.10
  -3  -7 -10   15.70    4.30
   3  -7  10   12.10    4.70
  -3   7 -10   13.40    4.20
   4  -7  10  161.08   12.70
  -4  -7 -10  146.19   11.10
  -4   7 -10  162.38   11.60
  -5  -7 -10    1.20    3.10
   5  -7  10    3.30    3.50
  -5   7 -10   -1.60    3.10
  -6  -7 -10   31.50    7.30
   6  -7  10   33.40    6.80
  -6   7 -10   24.90    7.00
  -7  -7 -10   48.00    9.20
   7  -7  10   31.70    7.90
  -7   7 -10   49.10    9.50
  -7  -8  10   50.69    8.20
  -7  -8  10   51.79    7.80
  -7   8  10   48.60    8.20
  -7   8  10   45.60    9.50
  -6  -8  10   -3.70    2.70
  -6  -8  10   -0.70    3.70
  -6   8  10    3.00    3.40
  -6   8  10    2.70    6.20
  -5  -8  10   82.99    8.00
  -5  -8  10   90.19    8.70
  -5   8  10   90.89    8.00
  -5   8  10   89.79    9.30
  -4  -8  10   30.00    5.30
  -4  -8  10   28.50    5.50
  -4   8  10   42.40    7.80
  -4   8  10   33.30    5.20
  -3  -8  10   33.80    6.10
  -3  -8  10   38.00    5.80
  -3   8  10   32.60    5.20
   3   8 -10   35.90    4.80
  -3   8  10   45.20    6.20
  -3   8  10   32.20    6.00
  -2  -8  10   21.70    4.20
  -2  -8  10   19.10    5.00
   2   8 -10   19.70    3.80
  -2   8  10   23.70    4.30
  -2   8  10   15.50    4.30
  -1  -8  10  174.88   10.90
   1  -8 -10  175.48    9.90
   1   8 -10  187.38    9.20
   1   8 -10  182.68    9.50
  -1   8  10  196.28   10.00
  -1   8  10  173.68   10.90
  -1   8  10  196.68   10.80
   0  -8  10    1.30    2.40
   0  -8 -10   -0.20    1.30
   0   8 -10    3.20    2.60
   0   8  10    0.10    1.40
   0   8 -10    1.60    1.70
   0   8  10   -1.10    2.40
   0   8  10   -0.70    1.80
   1  -8  10  421.76   18.10
  -1  -8 -10  428.26   15.90
   1   8  10  377.76   14.70
  -1   8 -10  392.46   15.00
   1   8  10  416.56   12.20
   1   8  10  390.86   13.20
   2  -8  10    2.40    3.10
  -2   8 -10    1.60    2.40
   2   8  10    2.80    1.60
   2   8  10   -0.40    1.40
  -3  -8 -10   34.10    6.50
   3  -8  10   39.10    7.40
  -3   8 -10   30.40    5.60
  -4  -8 -10   32.40    6.50
   4  -8  10   33.10    7.00
  -4   8 -10   32.30    6.20
  -5  -8 -10   77.29   10.40
   5  -8  10   57.69    9.60
  -5   8 -10   66.29    9.90
   6  -8  10    8.30    5.90
  -6  -8 -10   13.60    5.20
  -6   8 -10    7.20    5.00
  -7  -9  10   15.60    5.90
  -7  -9  10   28.50    6.80
  -7   9  10   14.70    5.80
  -7   9  10   27.50    7.50
  -6  -9  10    5.80    3.50
  -6  -9  10    1.00    3.50
  -6   9  10    1.70    3.40
  -6   9  10   -0.80    3.10
  -5  -9  10  167.08   11.50
  -5  -9  10  152.68   11.10
  -5   9  10  167.18   12.70
  -5   9  10  168.18   11.10
  -4  -9  10   10.50    3.70
  -4  -9  10   12.70    4.40
  -4   9  10   11.80    4.10
  -3  -9  10   14.80    3.90
  -3  -9  10   15.20    4.40
  -3   9  10   17.40    3.70
  -3   9  10   12.40    4.20
  -2  -9  10    9.20    3.90
  -2  -9  10   14.80    4.10
   2   9 -10    6.10    2.70
  -2   9  10   10.80    3.10
  -2   9  10    6.80    3.00
  -2   9  10    7.30    3.00
   1  -9 -10   39.70    6.50
  -1  -9  10   47.30    7.30
  -1   9  10   49.60    6.80
  -1   9  10   38.70    5.70
   1   9 -10   37.90    5.20
   1   9 -10   33.30    5.50
   0  -9 -10    3.00    2.40
   0  -9  10    2.90    3.00
   0   9  10    5.90    3.00
   0   9  10    3.70    3.00
   0   9  10    3.20    2.20
   0   9 -10    3.10    2.20
   1  -9  10   50.79    7.80
  -1  -9 -10   64.79    6.60
  -1   9 -10   68.19    6.80
   1   9  10   56.79    5.30
   1   9  10   63.09    4.70
   2  -9  10  109.09   10.20
  -2  -9 -10   98.79    8.70
  -2   9 -10  101.09    8.40
   2   9  10  100.99    4.60
   2   9  10   99.39    5.10
   3  -9  10   80.39   11.00
  -3  -9 -10  101.69    9.40
  -3   9 -10   99.39    9.10
  -4  -9 -10    7.80    4.40
   4  -9  10    7.20    4.30
  -4   9 -10    0.50    2.60
   5  -9  10   10.00    4.80
  -5  -9 -10    9.80    4.70
  -5   9 -10    6.30    3.80
  -6  -9 -10    6.30    4.30
   6  -9  10   -0.20    5.60
  -6   9 -10   -0.60    4.40
  -7 -10  10   28.80    7.00
  -7  10  10   30.10    7.70
  -7  10  10   34.60    8.90
  -6 -10  10    3.80    4.10
  -6 -10  10    3.50    3.90
  -6  10  10    4.60    3.60
  -6  10  10   -3.90    3.10
  -5 -10  10   81.49   10.30
  -5 -10  10   80.19    8.60
  -5  10  10  110.69   11.10
  -5  10  10   92.59    9.00
  -4 -10  10  176.18   11.60
  -4 -10  10  189.08   11.90
  -4  10  10  172.68   12.50
  -4  10  10  180.88   11.20
  -3 -10  10   52.99    7.50
  -3 -10  10   34.70    7.00
  -3  10  10   35.50    5.90
  -2 -10  10   63.69    8.30
  -2 -10  10   59.79    8.40
  -2  10  10   54.59    7.60
  -2  10  10   65.69    6.80
   1 -10 -10   16.30    4.40
  -1 -10  10    6.80    3.60
   1  10 -10   16.50    3.60
  -1  10  10   14.20    3.70
   0 -10 -10    1.00    2.20
   0 -10  10    2.00    2.10
   0  10  10    2.50    2.50
   0  10 -10    1.60    2.20
   0  10  10    4.30    2.20
   1 -10  10   33.90    7.10
  -1 -10 -10   40.10    6.50
   1  10  10   46.50    4.40
   1  10  10   49.90    5.10
  -1  10 -10   40.30    6.20
   2 -10  10  108.89   10.20
  -2 -10 -10  117.99    9.70
  -2  10 -10  100.79    8.80
   2  10  10  104.29    5.20
   2  10  10  101.59    4.70
  -3 -10 -10    0.40    3.00
   3 -10  10    0.90    3.40
  -3  10 -10    9.30    4.00
  -4 -10 -10    7.30    4.20
   4 -10  10    9.50    5.10
  -4  10 -10    7.40    3.10
  -5 -10 -10   18.00    9.50
  -5  10 -10    0.60    3.70
  -6 -10 -10   21.10    7.00
   6 -10  10    5.30    6.00
  -6  10 -10   12.30    6.40
  -6 -11  10   19.20    5.40
  -6 -11  10   20.70    6.30
  -6  11  10   14.70    5.10
  -6  11  10   27.30    6.50
  -5 -11  10   67.99    9.30
  -5 -11  10   51.59    7.30
  -5  11  10   44.10    9.00
  -5  11  10   56.29    8.50
  -4 -11  10    0.40    3.20
  -4 -11  10    0.60    3.10
  -4  11  10   -4.40    2.30
  -4  11  10   -4.10    2.80
  -3 -11  10    5.40    3.80
  -3 -11  10   -1.70    2.10
  -3  11  10    3.30    2.90
  -3  11  10    2.00    2.90
  -2 -11  10    9.20    3.60
  -2 -11  10    7.80    3.60
  -2  11  10    4.30    3.20
  -2  11  10    9.90    3.70
  -1 -11  10    6.40    4.00
   1 -11 -10    7.80    3.70
  -1  11  10    4.20    2.70
   1  11 -10    3.80    2.70
   0 -11  10  169.28   12.20
   0 -11 -10  143.89   10.60
   0  11  10  150.08   10.00
   0  11 -10  171.08   10.80
   0  11  10  166.28    9.20
  -1 -11 -10    5.10    3.40
   1 -11  10    5.90    3.20
  -1  11 -10   13.40    4.00
   1  11  10    4.00    2.20
   1  11  10    6.80    3.10
  -2 -11 -10    6.80    3.30
   2 -11  10    2.30    3.00
   2  11  10    4.20    2.00
   2  11  10    5.50    1.60
  -2  11 -10    1.20    2.50
   3 -11  10    1.10    3.40
  -3 -11 -10    6.90    4.10
  -3  11 -10   13.80    4.20
   4 -11  10   51.99    9.80
  -4 -11 -10   27.90    6.90
  -4  11 -10   51.09    8.60
  -5 -11 -10   20.50    6.20
   5 -11  10   14.80    6.90
  -5  11 -10   26.50    7.10
  -6 -11 -10   44.40    8.80
   6 -11  10   41.80    9.20
  -6  11 -10   48.30   10.40
  -6 -12  10    3.70    4.30
  -6 -12  10    7.70    5.00
  -6  12  10   -2.10    4.10
  -6  12  10    2.50    4.80
  -5 -12  10    1.40    3.90
  -5 -12  10    6.40    4.30
  -5  12  10   12.00    4.80
  -5  12  10    5.40    5.10
  -4 -12  10  153.78   11.10
  -4 -12  10  179.48   12.70
  -4  12  10  173.98   12.10
  -4  12  10  160.98   12.80
  -3 -12  10   -0.90    2.80
  -3 -12  10   -4.80    2.80
  -3  12  10   -2.00    2.00
  -3  12  10   -1.80    2.60
  -2 -12  10   31.80    7.00
  -2 -12  10   24.30    6.00
  -2  12  10   29.10    6.20
  -2  12  10   36.10    6.60
  -1 -12  10   61.39    9.40
   1  12 -10   48.70    7.30
  -1  12  10   55.49    7.70
  -1  12  10   71.89    7.10
   0 -12  10   21.40    6.00
   0 -12 -10   17.70    4.80
   0  12  10   22.00    4.60
   0  12 -10   24.00    5.20
  -1 -12 -10   48.80    8.00
   1 -12  10   32.30    6.70
  -1  12 -10   39.80    7.20
   1  12  10   42.80    6.10
   1  12  10   35.20    4.70
  -2 -12 -10  160.88   12.00
   2 -12  10  167.48   13.40
   2  12  10  163.78    6.50
  -2  12 -10  176.58   12.30
   2  12  10  163.38    6.20
  -3 -12 -10    4.40    4.00
   3 -12  10   -0.60    3.30
  -3  12 -10   -0.10    3.10
   4 -12  10   57.39    9.50
  -4 -12 -10   78.39   10.70
  -4  12 -10   67.59   11.00
   5 -12  10   -2.70    4.40
  -5 -12 -10   -1.80    4.50
  -5  12 -10   -4.50    3.80
  -6 -13  10    6.10    5.60
  -6 -13  10    0.90    4.40
  -6  13  10    6.30    5.20
  -6  13  10   12.10    6.10
  -5 -13  10    5.00    4.00
  -5 -13  10   -0.10    3.90
  -5  13  10    3.10    4.60
  -5  13  10    5.80    3.90
  -4 -13  10   -2.40    3.30
  -4 -13  10   -1.20    3.70
  -4  13  10    1.00    6.20
  -4  13  10    2.30    3.20
  -3 -13  10   98.79   11.90
  -3 -13  10   68.99    9.40
  -3  13  10   86.69    9.00
  -3  13  10   68.49    9.80
  -2 -13  10   77.19   10.20
  -2 -13  10   61.09    8.40
  -2  13  10   64.89    8.70
  -2  13  10   73.39    9.40
  -1 -13  10    5.40    3.00
  -1  13  10    7.20    3.00
   1  13 -10    4.00    2.80
  -1  13  10   14.50    4.70
   0 -13 -10   13.90    4.50
   0 -13  10   15.40    5.30
   0  13 -10   11.30    4.20
   0  13  10   10.10    4.30
  -1 -13 -10   17.40    4.90
   1 -13  10   13.60    4.30
   1  13  10   16.90    3.80
   1  13  10   19.10    4.20
  -1  13 -10   18.10    5.10
   2 -13  10   -1.80    3.20
  -2 -13 -10    3.60    3.40
   2  13  10    4.00    2.10
   2  13  10    0.10    1.50
  -2  13 -10    0.90    2.50
  -3 -13 -10   71.79   10.20
   3 -13  10   45.80   13.50
  -3  13 -10   61.89    9.70
   4 -13  10    9.40    5.10
  -4 -13 -10   18.30    6.30
  -4  13 -10    6.70    4.90
  -5 -13 -10    1.40    4.60
   5 -13  10    5.60    5.40
  -5  13 -10    3.60    5.20
  -5 -14  10   26.20    7.20
  -5 -14  10   19.40    6.40
  -5  14  10   39.20    9.30
  -5  14  10   37.50   10.30
  -4 -14  10    3.80    3.80
  -4 -14  10    2.40    4.20
  -4  14  10    7.90    4.10
  -4  14  10    6.20    4.90
  -3 -14  10    3.20    4.00
  -3 -14  10    4.50    4.00
  -3  14  10   14.20    4.60
  -3  14  10    6.60    3.60
  -2 -14  10   37.10    7.30
  -2 -14  10   44.00    7.60
  -2  14  10   59.39    8.80
  -2  14  10   48.40    7.70
   2  14 -10   48.90    8.70
  -1 -14  10  175.28   13.50
   1  14 -10  193.48   12.90
  -1  14  10  199.08   12.20
  -1  14  10  200.88   13.20
   0 -14  10    7.20    4.50
   0 -14 -10    5.30    3.70
   0  14  10    3.30    2.60
   0  14 -10    6.80    3.50
  -1 -14 -10   19.70    5.70
   1 -14  10   21.60    6.30
   1  14  10   38.30    5.70
  -1  14 -10   24.00    5.30
   1  14  10   29.70    4.50
  -2 -14 -10   30.40    7.10
   2  14  10   30.40    3.90
   2  14  10   34.50    3.50
  -2  14 -10   25.50    6.10
   3 -14  10   21.30    6.30
  -3  14 -10   11.00    4.90
  -4 -14 -10    0.40    4.30
   4 -14  10    7.10    5.60
  -4  14 -10    5.20    4.20
  -4 -15  10   -2.90    4.70
  -4 -15  10    3.00    3.90
  -4  15  10    0.50    3.70
  -4  15  10   -0.60    3.90
  -3 -15  10  130.39   11.90
  -3 -15  10  141.49   13.10
  -3  15  10  124.69   11.40
  -3  15  10  136.89   13.80
  -2 -15  10    3.70    4.20
   2  15 -10    1.30    4.20
  -2  15  10    2.40    3.50
  -2  15  10    9.90    4.00
  -1 -15  10   -1.00    3.60
  -1  15  10    0.40    3.50
  -1  15  10    2.80    3.50
   1  15 -10    0.10    3.40
   0 -15 -10    2.60    3.50
   0 -15  10   -1.30    4.40
   0  15  10    3.20    3.00
   0  15 -10   -1.20    3.00
  -1 -15 -10   36.70    8.20
   1 -15  10   31.80    9.70
  -1  15 -10   40.60    7.60
   1  15  10   28.60    5.50
   1  15  10   31.90    4.90
  -2 -15 -10    3.00    4.30
   2 -15  10   -6.80    3.30
   2  15  10    2.90    3.20
   2  15  10    0.80    1.90
  -3 -15 -10   39.00    7.50
   3 -15  10   58.09   11.50
  -3  15 -10   46.50    8.80
  -4 -15 -10   17.80    6.00
   4 -15  10   15.70    7.00
  -4  15 -10   10.10    5.40
  -4 -16  10   30.80    7.60
  -4 -16  10   20.40    6.30
  -4  16  10   22.60    7.10
  -4  16  10   19.60    5.70
  -3 -16  10    2.80    4.80
  -3 -16  10    4.00    4.60
  -3  16  10    2.60    3.80
  -2 -16  10   77.29   11.50
  -2  16  10   73.69   10.50
  -2  16  10   68.69    9.80
   2  16 -10   68.49   11.10
  -1 -16  10   28.10    7.30
   1  16 -10   23.70    6.10
  -1  16  10   37.70    8.40
  -1  16  10   20.10    5.20
   0 -16  10   36.70    8.30
   0 -16 -10   44.50    8.80
   0  16 -10   20.90    6.30
   0  16  10   31.10    6.30
   1 -16  10    9.70    4.80
  -1 -16 -10    6.80    6.20
   1  16  10   17.00    4.40
  -1  16 -10   13.70    5.20
  -2 -16 -10    8.40    4.50
   2 -16  10    9.20    5.60
   2  16  10   10.00    2.80
  -2  16 -10    0.60    4.50
  -3 -16 -10    2.30    5.80
   3 -16  10   -4.50    4.60
  -3  16 -10    0.10    4.60
  -3 -17  10   -0.50    4.60
  -3 -17  10   -3.00    4.10
  -3  17  10    1.50    3.40
  -3  17  10  -10.20    3.60
  -2 -17  10   -0.70    4.40
  -2  17  10    6.90    4.40
   2  17 -10   11.60    5.40
  -1 -17  10   27.70    7.00
  -1  17  10   22.40    5.90
   1  17 -10   12.30    5.40
  -1  17  10   13.70    5.50
   0 -17 -10  103.69   13.40
   0 -17  10   77.69   11.30
   0  17 -10   66.99   10.10
   0  17  10  103.99    9.30
  -1 -17 -10   -5.20    4.20
   1 -17  10    6.60    5.40
  -1  17 -10   -3.00    3.50
   1  17  10    0.00    3.30
   2 -17  10    2.90    5.10
  -2 -17 -10    2.90    4.80
  -2  17 -10    5.10    4.00
  -1 -18  10   20.80    8.20
   1  18 -10   49.80    9.90
  -1  18  10   41.90    9.00
  -1  18  10   37.80    6.60
   0 -18  10    9.20    5.60
   0  18  10    5.50    4.90
   0  18  10    6.30    4.00
   0  18 -10    2.20    5.10
  -8   0  11   -0.30    4.10
  -8   0  11    0.50    3.60
  -7   0  11  123.29    9.50
  -7   0  11  145.59   11.50
  -6   0  11    0.00    2.50
  -6   0  11    3.20    2.40
  -5   0  11   19.20    3.70
   5   0 -11   22.00    3.70
  -5   0  11   25.40    5.40
  -4   0  11    0.80    1.70
   4   0 -11    0.80    1.20
  -4   0  11    0.40    1.40
   3   0 -11  478.45    9.00
  -3   0  11  476.95    9.10
  -2   0  11    1.00    1.70
   1   0 -11  246.48   10.70
  -1   0  11  235.28   10.80
   0   0  11    2.20    1.80
   0   0 -11    0.70    1.40
   0   0 -11    3.00    1.00
   0   0  11    2.70    1.00
   1   0  11  474.55   12.60
  -1   0 -11  451.85   14.40
   1   0  11  470.85   14.90
  -1   0 -11  472.65   12.70
   2   0  11    0.70    2.00
  -2   0 -11    0.90    1.90
   2   0  11    0.90    1.70
  -2   0 -11    0.70    1.40
   3   0  11  165.08    9.30
  -3   0 -11  169.08    9.90
   4   0  11   -2.40    1.90
  -4   0 -11   -1.50    2.60
  -4   0 -11    1.00    2.20
   5   0  11    3.70    3.40
  -5   0 -11    2.70    3.50
  -5   0 -11    5.00    3.20
  -6   0 -11   -2.60    3.00
   6   0  11   -4.60    3.00
  -7   0 -11    9.10    5.60
   7   0  11   22.10    5.80
  -8  -1  11    9.20    5.20
  -8  -1  11   14.30    5.00
  -8   1  11    9.40    4.30
  -8   1  11    5.80    4.10
  -7  -1  11   -2.30    3.40
  -7  -1  11   -1.70    3.30
  -7   1  11    2.50    3.40
  -7   1  11   -2.40    3.20
  -6  -1  11   63.49    6.40
  -6  -1  11   85.89    8.20
  -6   1  11   67.29    8.70
  -6   1  11   66.99    6.50
   5  -1 -11   23.10    4.00
  -5  -1  11   25.40    5.70
  -5  -1  11   23.00    4.00
   5   1 -11   19.00    3.60
  -5   1  11   25.70    5.40
  -5   1  11   24.40    4.20
  -4  -1  11   25.20    3.20
  -4  -1  11   24.30    5.50
   4  -1 -11   27.00    3.20
   4   1 -11   22.00    2.90
  -4   1  11   17.50    4.30
  -4   1  11   23.00    3.10
  -3  -1  11  186.78    5.40
   3   1 -11  194.58    5.30
  -3   1  11  190.88    5.10
  -2  -1  11   31.50    5.50
  -2   1  11   28.10    4.70
  -1  -1  11   15.20    3.50
   1  -1 -11   12.10    2.90
  -1   1  11   15.50    3.20
   1   1 -11   13.10    3.00
   0  -1  11  108.99    7.20
   0  -1  11   96.29    4.70
   0  -1 -11   92.59    3.80
   0   1  11  103.59    4.10
   0   1 -11  103.09    6.80
   0   1  11  100.09    6.60
   0   1 -11   97.69    4.10
  -1  -1 -11  905.31   19.50
  -1  -1 -11  874.11   21.00
   1  -1  11  918.51   23.10
   1  -1  11  927.51   19.40
   1   1  11  910.11   19.30
  -1   1 -11  938.51   22.50
  -1   1 -11  931.91   19.70
   1   1  11  892.11   21.50
   2  -1  11   41.70    5.60
   2  -1  11   43.70    5.30
  -2  -1 -11   35.30    4.60
  -2  -1 -11   34.00    4.50
  -2   1 -11   45.70    5.60
  -2   1 -11   34.80    4.70
   2   1  11   34.90    4.60
   2   1  11   34.60    4.50
  -3  -1 -11   45.20    6.10
   3  -1  11   40.60    5.90
  -3  -1 -11   37.70    4.60
   3   1  11   40.90    5.10
  -3   1 -11   44.00    5.40
  -3   1 -11   38.50    5.80
  -4  -1 -11   40.00    4.70
  -4  -1 -11   32.30    5.50
   4  -1  11   29.00    5.30
  -4   1 -11   29.10    4.40
  -4   1 -11   37.60    6.60
   4   1  11   40.10    5.60
  -5  -1 -11   12.80    4.20
  -5  -1 -11   15.00    3.70
   5  -1  11   27.60    5.90
   5   1  11   24.20    4.10
  -5   1 -11   22.00    5.70
  -6  -1 -11    2.50    3.70
   6  -1  11    0.40    3.20
  -6  -1 -11    0.80    3.90
   6   1  11    3.80    3.20
  -6   1 -11   -2.30    3.10
  -7  -1 -11   48.80    8.90
   7  -1  11   51.69    8.00
   7   1  11   54.79    7.60
  -7   1 -11   53.09    9.30
  -8  -2  11   33.20    5.80
  -8  -2  11   21.70    6.40
  -8   2  11   15.00    5.00
  -8   2  11   21.70    5.60
  -7  -2  11   28.60    5.70
  -7  -2  11   40.40    7.30
  -7   2  11   28.80    6.40
  -7   2  11   36.30    6.50
  -6  -2  11   13.70    4.00
  -6  -2  11   13.90    3.80
  -6   2  11   10.10    3.60
  -6   2  11   10.70    3.70
  -5  -2  11   18.20    4.70
  -5  -2  11   11.90    2.80
   5  -2 -11   11.90    2.90
  -5   2  11   11.80    3.70
   5   2 -11   12.10    3.40
  -5   2  11   15.40    3.40
  -4  -2  11   50.19    4.20
  -4  -2  11   41.90    6.00
   4  -2 -11   50.49    3.80
   4   2 -11   43.90    3.90
  -4   2  11   54.19    7.70
  -4   2  11   46.50    3.80
  -3  -2  11   91.19    4.10
  -3   2  11   96.79    4.20
  -3   2  11   83.29    7.10
  -3   2  11   95.09    3.80
  -2  -2  11  133.89    8.60
  -2   2  11  109.19    7.70
  -1  -2  11  158.98    8.90
   1  -2 -11  154.98    8.40
   1   2 -11  151.38    8.60
   1   2 -11  163.58    3.70
   1   2 -11  157.38    3.70
  -1   2  11  151.28    8.40
   0  -2  11   34.30    2.70
   0  -2 -11   30.80    2.60
   0  -2 -11   37.10    5.00
   0  -2  11   43.10    6.10
   0   2  11   39.60    5.10
   0   2 -11   47.10    6.00
   0   2  11   30.70    2.60
   0   2 -11   42.50    5.40
  -1  -2 -11    0.40    1.30
   1  -2  11    2.30    2.20
   1  -2  11   -0.10    1.40
  -1  -2 -11    1.60    1.70
  -1   2 -11    2.90    1.90
   1   2  11    2.00    2.00
  -1   2 -11    0.70    1.10
   1   2  11    0.20    1.50
  -2  -2 -11  145.69    8.10
   2  -2  11  155.38    9.30
  -2  -2 -11  143.99    7.00
   2  -2  11  155.18    8.30
   2   2  11  157.78    8.40
   2   2  11  149.29    7.60
  -2   2 -11  159.08    8.40
  -2   2 -11  153.58    8.50
  -3  -2 -11    8.40    2.20
   3  -2  11   13.50    3.50
  -3  -2 -11   16.80    4.00
  -3   2 -11   16.20    3.70
   3   2  11   13.50    3.10
  -3   2 -11   11.90    3.50
  -4  -2 -11    5.00    2.50
   4  -2  11   -3.60    2.40
  -4  -2 -11    3.60    2.10
  -4   2 -11    2.50    2.70
   4   2  11    3.30    2.20
  -5  -2 -11    0.50    2.60
  -5  -2 -11    3.80    3.90
   5  -2  11   -2.40    2.90
  -5   2 -11    5.50    3.30
   5   2  11    2.10    2.60
   6  -2  11   12.60    3.90
  -6  -2 -11   12.50    4.70
  -6  -2 -11    5.50    3.70
  -6   2 -11    8.90    4.30
   6   2  11   14.50    3.80
   7  -2  11    4.20    4.90
  -7  -2 -11    0.80    5.10
   7   2  11    4.80    3.80
  -7   2 -11   -5.30    3.70
  -8  -3  11   83.29   11.00
  -8  -3  11  123.19   10.70
  -8   3  11  117.89   10.70
  -8   3  11  125.69   12.30
  -7  -3  11    3.30    3.40
  -7  -3  11    3.20    3.70
  -7   3  11   20.80    7.20
  -7   3  11    5.70    3.50
  -6  -3  11   85.79    7.40
  -6  -3  11  104.39    9.30
  -6   3  11   92.49    7.50
  -6   3  11   97.59    9.40
   5  -3 -11   13.20    5.40
  -5  -3  11    7.80    3.40
  -5  -3  11   10.80    3.00
  -5   3  11   12.70    3.40
  -5   3  11    9.20    4.00
   5   3 -11    1.90    3.00
   4  -3 -11  117.39    5.90
  -4  -3  11  114.39    6.20
  -4  -3  11   96.79    8.30
  -4   3  11   96.69    8.50
   4   3 -11  114.99    6.30
  -4   3  11  111.99    6.00
  -3  -3  11  161.58    6.20
  -3  -3  11  173.78   10.50
   3   3 -11  159.58    6.10
  -3   3  11  152.78    5.90
  -3   3  11  158.68    9.90
  -2  -3  11  279.27   12.50
  -2   3  11  261.37    6.00
  -2   3  11  267.07   12.10
   2   3 -11  273.07    6.80
   2   3 -11  261.27    6.50
  -2   3  11  263.97    6.00
   1  -3 -11    2.60    1.80
  -1  -3  11    1.90    1.60
   1   3 -11    1.00    2.00
  -1   3  11    3.40    1.00
   1   3 -11    0.60    1.00
  -1   3  11    3.20    1.00
   1   3 -11    4.20    1.10
  -1   3  11    3.00    1.70
   0  -3 -11  340.17   11.90
   0  -3 -11  324.47    9.30
   0  -3  11  340.97   13.50
   0   3 -11  331.47   13.00
   0   3  11  324.97    9.00
   0   3  11  337.67   12.10
   0   3 -11  344.47   10.20
   0   3 -11  332.57    9.40
   1  -3  11   18.50    3.20
   1  -3  11   13.10    3.80
  -1  -3 -11   13.00    3.00
  -1  -3 -11   13.10    2.70
  -1   3 -11   16.00    3.90
   1   3  11   17.30    3.20
  -1   3 -11   15.50    3.10
   1   3  11   17.20    3.40
  -2  -3 -11   36.20    4.80
   2  -3  11   38.80    5.20
  -2  -3 -11   34.20    4.10
   2  -3  11   25.80    5.10
  -2   3 -11   33.80    5.60
   2   3  11   31.50    4.10
  -2   3 -11   38.20    5.20
  -3  -3 -11    3.80    1.90
   3  -3  11    6.90    2.90
  -3  -3 -11    5.10    2.90
   3   3  11    5.90    2.30
  -3   3 -11    8.50    3.00
  -4  -3 -11  144.99   10.60
  -4  -3 -11  143.39    6.30
   4  -3  11  157.98   11.00
   4   3  11  154.78    7.50
  -4   3 -11  143.99   10.40
   5  -3  11   84.39    8.70
  -5  -3 -11   80.39   10.00
  -5  -3 -11   76.89    4.90
   5   3  11   83.89    5.40
  -5   3 -11   85.29    9.00
  -6  -3 -11   99.99   10.50
   6  -3  11   97.39   10.00
  -6  -3 -11   82.89    5.50
   6   3  11   87.59    5.90
  -6   3 -11   76.09    9.80
   7  -3  11    8.40    5.00
  -7  -3 -11    4.00    4.40
  -7   3 -11    4.00    4.30
  -8  -4  11   26.70    6.00
  -8  -4  11   20.30    5.40
  -8   4  11   17.60    5.60
  -8   4  11   29.40    6.50
  -7  -4  11   32.10    5.70
  -7  -4  11   29.60    6.60
  -7   4  11   32.60    7.00
  -7   4  11   29.40    5.60
  -6  -4  11    1.30    3.00
  -6  -4  11   -0.30    2.60
  -6   4  11    2.50    3.20
  -5  -4  11  226.78   13.20
   5  -4 -11  226.88   10.20
  -5  -4  11  205.38   10.20
   5   4 -11  202.18   10.30
  -5   4  11  229.88   13.90
  -5   4  11  242.08   10.70
  -4  -4  11  202.28    8.80
  -4  -4  11  187.68   11.40
   4   4 -11  204.48    8.90
  -4   4  11  195.08    8.50
  -4   4  11  196.68    9.00
  -4   4  11  205.58   12.30
  -3  -4  11    5.20    1.80
  -3  -4  11    5.90    2.80
  -3   4  11    9.50    3.20
  -3   4  11    5.70    2.00
   3   4 -11    9.30    2.20
  -3   4  11   10.00    2.10
  -2  -4  11  255.37   12.30
  -2   4  11  259.27    7.50
   2   4 -11  265.57    8.00
  -2   4  11  274.97    8.50
  -2   4  11  279.97   12.40
   2   4 -11  257.57    7.80
  -1  -4  11  581.64   18.60
   1  -4 -11  540.15   16.60
   1   4 -11  551.84   12.40
  -1   4  11  563.94   17.40
   1   4 -11  567.44   12.90
  -1   4  11  554.64   12.00
   0  -4  11   52.99    5.60
   0  -4 -11   60.49    4.20
   0  -4 -11   41.40    4.30
   0   4 -11   60.19    4.60
   0   4  11   45.70    3.60
   0   4  11   62.29    5.10
   0   4 -11   49.00    3.80
  -1  -4 -11   89.59    5.60
   1  -4  11  112.79    8.00
  -1  -4 -11  105.09    6.30
   1  -4  11  105.39    6.30
  -1   4 -11   94.29    6.00
   1   4  11  107.09    6.10
   1   4  11   91.79    5.80
  -2  -4 -11  204.38    9.90
   2  -4  11  178.38    9.40
  -2  -4 -11  195.08    7.70
   2  -4  11  188.18   11.00
   2   4  11  178.78    9.20
   2   4  11  190.08    8.00
  -2   4 -11  209.88   10.10
  -3  -4 -11    5.80    1.90
  -3  -4 -11    6.70    2.90
   3  -4  11    5.10    3.70
  -3   4 -11    4.30    2.50
   3   4  11    4.00    1.90
   4  -4  11    5.10    3.30
  -4  -4 -11    8.50    3.90
  -4  -4 -11    9.50    2.10
  -4   4 -11    7.40    3.70
   4   4  11    7.10    2.20
  -5  -4 -11   39.60    7.40
   5  -4  11   33.90    7.10
  -5   4 -11   40.00    7.10
  -6  -4 -11   27.50    6.50
   6  -4  11   14.70    5.90
  -6   4 -11   15.10    5.40
   7  -4  11   -1.90    4.90
  -7  -4 -11    6.60    5.10
  -7   4 -11    5.60    4.70
  -8   5  11    4.50    5.30
  -7  -5  11   10.40    4.50
  -7  -5  11    5.20    4.30
  -7   5  11    9.50    5.40
  -7   5  11   14.60    4.30
  -6  -5  11   25.60    5.60
  -6  -5  11   37.40    6.10
  -6   5  11   33.10    7.40
  -6   5  11   34.90    5.80
  -5  -5  11  103.69    7.80
   5  -5 -11   99.79    7.30
  -5  -5  11  115.89    9.50
  -5   5  11  102.19    9.50
   5   5 -11  101.39    7.70
  -5   5  11  117.39    7.90
  -4  -5  11   26.50    4.90
  -4  -5  11   20.70    3.90
  -4   5  11   25.90    4.50
   4   5 -11   21.60    3.60
  -4   5  11   24.20    4.00
  -4   5  11   18.00    4.10
  -3  -5  11    8.00    3.50
  -3  -5  11    8.60    2.30
   3   5 -11    4.60    1.80
  -3   5  11    9.60    3.10
  -3   5  11    7.70    2.30
  -3   5  11    7.20    2.10
  -2  -5  11   93.59    5.60
  -2   5  11   92.09    4.90
  -2   5  11   89.99    7.10
  -2   5  11   83.09    4.60
   2   5 -11   95.89    5.10
  -1  -5  11   20.60    4.00
   1  -5 -11   31.70    3.90
  -1   5  11   19.70    4.40
   1   5 -11   31.30    3.30
  -1   5  11   34.90    5.10
   1   5 -11   28.00    3.60
  -1   5  11   27.60    3.20
   0  -5 -11   24.30    3.90
   0  -5 -11   13.80    2.70
   0  -5  11   12.50    3.50
   0   5  11   13.00    2.70
   0   5 -11   15.70    2.90
   0   5  11   18.20    3.40
   0   5 -11   15.80    3.10
   1  -5  11  143.29    7.70
   1  -5  11  153.68    9.80
  -1  -5 -11  143.49    7.70
  -1  -5 -11  134.89    6.80
   1   5  11  140.39    7.50
  -1   5 -11  146.79    7.90
   1   5  11  154.88    7.50
   2  -5  11   42.60    5.70
  -2  -5 -11   39.10    5.80
   2  -5  11   33.00    5.90
  -2  -5 -11   34.80    3.40
   2   5  11   48.10    3.80
   2   5  11   41.70    5.40
  -2   5 -11   40.40    5.70
   3  -5  11  331.97   16.30
  -3  -5 -11  324.17   15.40
  -3  -5 -11  334.17    8.90
  -3   5 -11  353.66   15.30
   3   5  11  327.67    9.50
  -4  -5 -11   -0.10    2.70
   4  -5  11   -1.40    2.50
  -4   5 -11    2.40    2.90
   4   5  11    0.10    1.10
   5  -5  11    8.90    4.20
  -5  -5 -11    2.80    3.40
  -5   5 -11    7.40    3.70
   6  -5  11    7.30    4.70
  -6   5 -11    8.10    6.70
  -7   5 -11   50.59   10.10
  -7  -6  11   22.20    6.00
  -7  -6  11   24.20    5.80
  -7   6  11   24.40    6.10
  -7   6  11   20.00    5.90
  -6  -6  11    2.40    3.30
  -6  -6  11    3.80    3.70
  -6   6  11    2.50    2.70
  -6   6  11    0.00    3.10
  -5  -6  11   80.09    7.20
  -5  -6  11   77.49    8.10
  -5   6  11   62.19    8.30
  -5   6  11   50.99    7.40
  -5   6  11   64.49    6.40
  -4  -6  11    8.90    3.10
  -4  -6  11    7.90    3.50
  -4   6  11    5.60    3.00
  -4   6  11    8.90    3.30
   4   6 -11    7.40    3.00
  -4   6  11   10.60    2.70
  -3  -6  11   12.10    3.70
  -3  -6  11    9.50    3.00
   3   6 -11   14.00    2.90
  -3   6  11   12.50    2.80
  -3   6  11   17.00    3.30
  -3   6  11   12.80    4.00
  -2  -6  11    3.10    2.00
  -2  -6  11    1.40    2.20
  -2   6  11    2.40    1.90
   2   6 -11    4.10    1.80
  -2   6  11   -0.20    2.00
  -2   6  11    3.70    1.70
  -1  -6  11  262.47   14.90
   1  -6 -11  254.97   10.10
  -1   6  11  256.57   11.50
  -1   6  11  254.07    9.20
   1   6 -11  246.78    9.70
   1   6 -11  256.17    9.40
  -1   6  11  250.17   12.80
   0  -6 -11  176.78    8.50
   0  -6  11  214.58   14.20
   0   6 -11  194.68    9.20
   0   6  11  203.58    9.20
   0   6  11  184.48    8.40
   0   6  11  192.28   11.80
   0   6 -11  190.28    8.60
   1  -6  11   37.70    6.70
  -1  -6 -11   32.30    4.70
   1   6  11   35.10    4.90
  -1   6 -11   40.70    5.40
  -1   6 -11   35.20    5.00
   1   6  11   35.60    4.30
   2  -6  11   17.60    5.00
  -2  -6 -11   22.70    4.60
   2   6  11   22.80    3.70
   2   6  11   19.20    4.70
  -2   6 -11   19.60    4.30
   2   6  11   23.30    3.20
  -3  -6 -11    5.70    3.10
   3  -6  11   14.90    5.20
   3   6  11   10.60    1.80
  -3   6 -11    9.30    3.80
  -4  -6 -11   58.49    9.30
   4  -6  11   46.40    7.70
  -4   6 -11   57.59    8.60
  -5  -6 -11  202.38   13.80
   5  -6  11  198.88   14.50
  -5   6 -11  198.68   13.80
  -6  -6 -11    4.40    4.20
   6  -6  11   -9.40    3.70
  -6   6 -11    4.60    4.50
   7  -6  11    2.90    5.30
  -7  -6 -11   17.70    6.50
  -7   6 -11   16.10    5.70
  -7  -7  11   27.90    5.80
  -7  -7  11   22.60    5.40
  -7   7  11   20.80    7.90
  -7   7  11   31.40    6.00
  -6  -7  11   11.80    4.50
  -6  -7  11    5.80    4.10
  -6   7  11    9.30    3.70
  -5  -7  11  183.08   11.70
  -5   7  11  159.08    9.80
  -5   7  11  150.18   11.90
  -4  -7  11    6.40    3.10
  -4  -7  11    7.90    3.70
   4   7 -11    5.00    2.70
  -4   7  11    9.50    3.60
  -4   7  11    6.70    2.80
  -4   7  11    7.80    3.50
  -3  -7  11  163.28   10.60
  -3  -7  11  149.09    8.50
  -3   7  11  156.78    8.10
  -3   7  11  149.29    8.30
   3   7 -11  137.99    9.30
  -3   7  11  163.98   10.80
  -2  -7  11  625.04   18.30
  -2  -7  11  620.74   20.90
  -2   7  11  562.04   16.10
  -2   7  11  614.84   16.40
  -2   7  11  617.84   20.30
   2   7 -11  621.54   17.00
   1  -7 -11    1.90    2.10
  -1  -7  11    2.70    2.60
  -1   7  11    6.10    2.40
   1   7 -11    0.60    1.60
  -1   7  11    1.60    2.40
   1   7 -11    1.70    2.30
  -1   7  11    6.50    2.10
   0  -7 -11  158.38    8.80
   0  -7  11  161.18   10.60
   0   7  11  179.68    8.80
   0   7  11  160.08    8.20
   0   7 -11  160.58   10.40
   0   7  11  171.18   11.20
   0   7 -11  164.98    8.50
   1  -7  11  229.08   13.20
  -1  -7 -11  248.38   11.40
   1   7  11  247.78    9.40
   1   7  11  245.68   10.60
  -1   7 -11  275.67   11.80
  -1   7 -11  245.48   11.90
   1   7  11  243.58   11.10
   2  -7  11   14.20    4.20
  -2  -7 -11    9.00    3.40
   2   7  11   11.60    2.40
   2   7  11   11.50    2.60
  -2   7 -11   11.50    3.40
   3  -7  11   49.80    8.80
  -3  -7 -11   54.99    8.10
  -3   7 -11   56.59    7.80
   3   7  11   51.79    2.00
   3   7  11   56.09    2.20
   4  -7  11   83.29   10.80
  -4  -7 -11   83.09    8.50
  -4   7 -11   87.99    8.80
   5  -7  11    8.00    4.80
  -5  -7 -11   13.00    4.70
  -5   7 -11   11.90    5.10
  -6  -7 -11   23.40    6.30
   6  -7  11   19.20    6.20
  -6   7 -11   37.20    8.10
  -7  -8  11    9.60    5.10
  -7  -8  11    8.30    4.90
  -7   8  11    1.20    4.40
  -7   8  11   -0.70    3.90
  -6  -8  11   93.59    8.60
  -6  -8  11  101.89    9.70
  -6   8  11  107.09   11.20
  -6   8  11   91.49    8.90
  -5  -8  11    5.70    3.60
  -5  -8  11    7.60    3.80
  -5   8  11    4.90    3.50
  -5   8  11    5.30    3.40
  -4  -8  11   18.70    4.60
  -4  -8  11   17.80    4.50
  -4   8  11    8.90    3.90
  -4   8  11   17.30    4.80
  -4   8  11   13.10    3.80
  -3  -8  11   10.50    3.60
  -3  -8  11   10.40    3.60
  -3   8  11    4.90    2.50
  -3   8  11    3.40    3.00
  -3   8  11    5.40    3.20
   3   8 -11    8.20    3.40
  -2  -8  11  104.99    7.80
  -2  -8  11  116.79    9.40
  -2   8  11  101.09    8.20
  -2   8  11   92.99    6.60
  -2   8  11  103.39    7.90
   2   8 -11   92.29    6.60
   1  -8 -11   12.50    3.30
  -1  -8  11   22.30    5.00
  -1   8  11   21.80    4.60
   1   8 -11   15.00    3.50
  -1   8  11   10.70    3.60
   1   8 -11   16.20    3.30
   0  -8 -11   72.69    6.50
   0  -8  11   72.29    9.30
   0   8 -11   59.39    6.20
   0   8  11   61.09    6.40
   0   8  11   56.59    5.70
   0   8 -11   67.79    6.00
   0   8  11   64.29    5.60
   1  -8  11    2.40    3.00
  -1  -8 -11    4.40    2.30
   1   8  11    0.10    1.40
   1   8  11    3.70    2.20
  -1   8 -11    3.90    2.60
   1   8  11   -1.90    2.40
   2  -8  11   95.09    9.40
  -2  -8 -11   88.49    7.70
   2   8  11   86.89    4.80
  -2   8 -11   86.49    7.70
   2   8  11   75.79    5.10
   3  -8  11  177.48   13.10
  -3  -8 -11  184.38   12.00
  -3   8 -11  200.28   12.60
   4  -8  11   65.99   10.00
  -4  -8 -11   74.89   10.30
  -4   8 -11   88.39   10.90
  -5  -8 -11    5.50    3.60
   5  -8  11   11.80    4.70
  -5   8 -11   10.20    4.90
  -6  -8 -11   10.40    5.80
   6  -8  11    7.40    6.00
  -6   8 -11   -5.50    4.20
  -7  -9  11    2.20    4.10
  -7  -9  11    1.20    4.50
  -7   9  11    7.70    4.80
  -7   9  11    0.40    4.10
  -6  -9  11   17.80    5.60
  -6  -9  11   20.10    6.00
  -6   9  11   21.10    5.40
  -6   9  11   32.20    7.60
  -5  -9  11    3.40    3.40
  -5  -9  11    4.90    3.50
  -5   9  11   -1.60    3.00
  -5   9  11    2.20    3.60
  -4  -9  11   57.49    7.80
  -4  -9  11   57.79    7.90
  -4   9  11   53.99    8.20
  -4   9  11   57.39    8.20
  -3  -9  11   14.00    4.20
  -3  -9  11   11.80    3.90
  -3   9  11   15.70    4.20
  -3   9  11   19.20    4.80
  -3   9  11   20.30    4.30
  -2  -9  11   79.69    8.20
  -2  -9  11   67.39    6.90
  -2   9  11   58.79    6.10
  -2   9  11   59.99    7.70
   2   9 -11   70.99    6.40
  -2   9  11   79.09    6.30
   1  -9 -11   -0.30    2.20
  -1  -9  11    0.70    2.40
   1   9 -11   -0.60    1.90
   1   9 -11   -5.10    2.50
  -1   9  11    0.90    2.30
  -1   9  11    1.70    2.30
   0  -9  11  250.97   14.30
   0  -9 -11  261.47   12.60
   0   9  11  249.78   11.80
   0   9  11  242.98   12.20
   0   9  11  260.57   11.30
   0   9 -11  244.28   11.80
  -1  -9 -11   92.99    7.90
   1  -9  11   97.49    9.60
   1   9  11   99.29    6.90
   1   9  11   92.69    5.90
  -2  -9 -11    0.40    2.50
   2  -9  11    1.00    3.30
  -2   9 -11   -0.70    2.30
   2   9  11    4.00    2.10
   2   9  11    0.20    1.50
  -3  -9 -11    2.20    3.10
   3  -9  11   -1.60    3.70
  -3   9 -11   -1.30    2.20
  -4  -9 -11  145.09   11.50
   4  -9  11  154.98   13.40
  -4   9 -11  123.79   10.80
   5  -9  11    5.20    4.70
  -5  -9 -11    4.00    3.90
  -5   9 -11    1.00    4.10
  -6  -9 -11   61.29   11.20
   6  -9  11   56.59   10.90
  -6   9 -11   40.60    8.20
  -6 -10  11   11.60    5.20
  -6 -10  11   14.80    6.00
  -6  10  11   20.50    6.30
  -6  10  11   20.90    5.10
  -5 -10  11   29.70    6.20
  -5 -10  11   32.40    6.40
  -5  10  11   26.20    5.50
  -4 -10  11   25.00    5.70
  -4 -10  11   28.10    5.90
  -4  10  11   27.60    6.60
  -4  10  11   29.30    5.80
  -3 -10  11   78.59    7.90
  -3 -10  11   92.39    8.90
  -3  10  11   99.09    9.30
  -3  10  11   82.29    8.70
  -2 -10  11  208.28   12.30
  -2 -10  11  199.48   12.60
  -2  10  11  201.28   10.70
  -2  10  11  200.48   12.10
   1 -10 -11   19.60    4.30
  -1 -10  11   33.10    6.30
  -1  10  11   33.10    6.20
   1  10 -11   36.00    5.80
   0 -10 -11    9.30    3.70
   0 -10  11    7.00    3.20
   0  10  11    7.60    3.50
   0  10  11    3.80    2.50
   1 -10  11   27.10    6.30
  -1 -10 -11   29.80    5.70
  -1  10 -11   21.60    4.70
   1  10  11   27.40    4.50
   1  10  11   36.10    4.80
  -2 -10 -11  140.29   10.70
   2 -10  11  142.59   12.10
   2  10  11  150.28    6.00
   2  10  11  143.39    6.40
  -2  10 -11  160.68   11.00
   3 -10  11  109.89   11.30
  -3 -10 -11  101.89    9.80
  -3  10 -11  119.99   10.40
   4 -10  11    1.80    3.50
  -4 -10 -11    2.20    3.70
  -4  10 -11   -0.30    2.70
  -5 -10 -11   27.30    7.30
   5 -10  11   30.50    8.60
  -5  10 -11   24.00    6.10
  -6 -10 -11   -0.40    5.20
   6 -10  11    7.60    5.20
  -6  10 -11    5.90    5.50
  -6 -11  11   13.00    4.90
  -6 -11  11    5.20    4.80
  -6  11  11    7.00    4.30
  -6  11  11   12.10    4.80
  -5 -11  11  149.88   11.70
  -5 -11  11  136.49   11.20
  -5  11  11  145.59   12.30
  -5  11  11  121.89   10.30
  -4 -11  11   39.80    7.70
  -4 -11  11   48.70    8.50
  -4  11  11   57.69    9.30
  -4  11  11   52.09    8.20
  -3 -11  11   91.09    9.40
  -3 -11  11  112.89    9.60
  -3  11  11  123.39   10.20
  -3  11  11   92.89    8.40
  -2 -11  11    9.30    3.30
  -2 -11  11   12.20    4.50
   2  11 -11   14.00    4.10
  -2  11  11    7.20    3.70
  -2  11  11    8.50    3.50
   1 -11 -11   85.19    8.60
  -1 -11  11   89.29    9.50
  -1  11  11   83.09    7.60
  -1  11  11   84.29    7.60
   1  11 -11   85.59    8.00
   0 -11  11    1.30    2.40
   0 -11 -11    2.30    3.00
   0  11  11    2.00    2.50
   0  11 -11    2.40    2.50
  -1 -11 -11  243.98   14.00
   1 -11  11  237.88   15.40
  -1  11 -11  232.28   13.30
   1  11  11  242.88   10.00
   1  11  11  232.18   10.80
  -2 -11 -11    7.80    3.40
   2 -11  11   -0.90    3.20
   2  11  11    4.20    2.30
  -2  11 -11    8.60    3.90
   2  11  11   11.10    2.30
   3 -11  11   75.59   11.40
  -3 -11 -11   56.29    9.00
  -3  11 -11   54.19    8.10
  -4 -11 -11    0.40    3.50
  -4  11 -11    3.20    3.40
   5 -11  11    1.00    4.60
  -5 -11 -11   15.00    6.40
  -5  11 -11    9.10    5.00
  -6 -12  11   -5.60    4.00
  -6 -12  11  -10.60    3.90
  -6  12  11    1.70    5.10
  -6  12  11   -5.80    3.60
  -5 -12  11   10.00    5.10
  -5 -12  11    8.60    4.30
  -5  12  11    3.10    3.70
  -5  12  11   19.90    5.50
  -4 -12  11   21.20    6.20
  -4 -12  11   33.70    7.00
  -4  12  11   18.10    5.40
  -4  12  11   21.90    6.30
  -3 -12  11   -0.60    3.20
  -3 -12  11   -0.20    2.80
  -3  12  11    0.40    2.70
  -3  12  11    3.30    3.40
  -2 -12  11    2.70    3.30
  -2  12  11   -2.50    2.10
  -2  12  11    3.20    3.00
   2  12 -11    1.00    3.00
  -1 -12  11   32.70    7.00
  -1  12  11   36.60    6.30
   1  12 -11   31.80    6.00
  -1  12  11   45.50    7.40
   0 -12  11   12.50    4.80
   0 -12 -11   10.60    3.80
   0  12 -11    5.60    3.00
   0  12  11   19.30    4.50
   1 -12  11   -3.30    3.10
  -1 -12 -11   -2.00    3.00
  -1  12 -11    2.60    2.30
   1  12  11   -0.70    1.90
   2 -12  11   56.19   11.00
  -2 -12 -11   41.30    7.70
   2  12  11   42.90    4.20
   2  12  11   45.00    3.80
  -2  12 -11   52.09    7.70
  -3 -12 -11   11.60    4.60
   3 -12  11   21.70    6.70
  -3  12 -11    4.10    3.20
   4 -12  11    2.30    4.70
  -4  12 -11    3.80    3.40
   5 -12  11   58.79   11.40
  -5 -12 -11   68.09   11.40
  -5  12 -11   73.69   11.20
  -5 -13  11    8.40    5.20
  -5 -13  11    3.10    3.50
  -5  13  11    3.20    3.70
  -5  13  11    2.00    3.60
  -4 -13  11   -1.10    3.60
  -4 -13  11    7.40    4.70
  -4  13  11   -3.70    3.30
  -4  13  11   -1.00    3.40
  -3 -13  11   59.69    9.20
  -3 -13  11   53.99    8.10
  -3  13  11   59.79    8.70
  -3  13  11   74.49   10.80
  -2 -13  11  225.38   14.60
  -2  13  11  215.88   13.10
  -2  13  11  220.88   13.50
   2  13 -11  202.18   13.30
  -1 -13  11    9.20    4.20
  -1  13  11    1.30    3.00
  -1  13  11    5.80    3.20
   1  13 -11    6.00    3.40
   0 -13 -11   28.10    6.50
   0 -13  11   20.30    6.30
   0  13 -11   19.10    4.70
   0  13  11   21.30    5.40
  -1 -13 -11   60.29    9.30
   1 -13  11   44.90    8.50
   1  13  11   53.39    5.30
   1  13  11   50.69    6.30
  -1  13 -11   75.29   10.40
  -2 -13 -11    5.40    3.40
   2 -13  11    6.50    4.50
   2  13  11    8.80    2.20
  -2  13 -11    0.40    3.00
   2  13  11    4.80    2.10
  -3 -13 -11    8.80    4.60
   3 -13  11    3.00    4.20
  -3  13 -11   -1.40    3.70
   4 -13  11   21.80    6.70
  -4 -13 -11   29.20    7.30
  -4  13 -11   24.40    5.90
   5 -13  11   12.60    6.60
  -5 -13 -11    8.70    6.30
  -5  13 -11   14.20    7.40
  -5 -14  11   -5.30    4.20
  -5 -14  11    4.30    4.80
  -5  14  11   -2.50    4.30
  -5  14  11   -3.70    4.00
  -4 -14  11   99.99   12.30
  -4 -14  11  107.19   10.50
  -4  14  11  111.99   11.70
  -4  14  11  109.19   10.60
  -3 -14  11    7.80    4.30
  -3 -14  11    5.10    3.50
  -3  14  11    8.40    3.60
  -3  14  11    3.80    3.90
  -2 -14  11   27.40    6.60
  -2  14  11   19.00    5.40
  -2  14  11   23.80    5.80
   2  14 -11   28.90    5.90
  -1 -14  11   10.60    4.80
   1  14 -11    4.90    3.80
  -1  14  11    4.50    3.40
  -1  14  11    8.80    3.80
   0 -14 -11   51.49    9.40
   0 -14  11   62.39   10.30
   0  14  11   64.29    6.70
   0  14 -11   44.50    7.70
  -1 -14 -11    3.80    3.50
   1 -14  11    0.60    3.20
   1  14  11   -2.50    3.70
  -1  14 -11   12.90    4.80
   1  14  11    2.40    2.80
  -2 -14 -11  139.69   12.70
   2 -14  11  155.08   14.20
  -2  14 -11  133.49   11.80
   2  14  11  140.79    6.00
   2  14  11  129.79    6.20
   3 -14  11    3.70    4.30
  -3 -14 -11    2.80    3.60
  -3  14 -11    2.20    4.40
  -4 -14 -11   20.60    6.40
   4 -14  11   18.90    7.00
  -4  14 -11   16.10    6.60
  -4 -15  11    6.80    6.20
  -4 -15  11    2.50    4.40
  -4  15  11    2.20    4.00
  -4  15  11   -0.70    4.10
  -3 -15  11   21.10    6.90
  -3 -15  11   23.70    6.80
  -3  15  11   12.60    5.50
  -3  15  11   19.30    5.70
  -2 -15  11  104.29   13.00
   2  15 -11  120.89   11.40
  -2  15  11  111.69   10.90
  -2  15  11   80.39   10.30
  -1 -15  11   22.40    7.30
   1  15 -11   23.80    5.90
  -1  15  11   20.20    5.10
  -1  15  11   13.30    4.90
   0 -15 -11    5.50    4.40
   0  15 -11    7.90    4.30
   0  15  11    8.30    3.30
  -1 -15 -11    0.30    3.70
   1 -15  11    1.30    4.10
  -1  15 -11   -4.90    2.80
   1  15  11    0.60    2.70
  -2 -15 -11   -0.10    4.20
   2 -15  11    0.20    3.80
   2  15  11   -1.10    1.90
  -2  15 -11    2.80    3.40
  -3 -15 -11    8.60    4.40
   3 -15  11   14.50    6.40
  -3  15 -11   12.70    4.90
  -3 -16  11   16.60    5.60
  -3 -16  11   20.70    6.20
  -3  16  11   30.50    9.10
   3  16 -11   24.10    6.70
  -3  16  11   11.70    4.70
  -2 -16  11    6.40    5.00
  -2  16  11    5.40    4.60
  -2  16  11    0.50    3.20
   2  16 -11   16.60    7.30
  -1 -16  11   44.50    8.30
   1  16 -11   45.30    8.60
  -1  16  11   50.49    7.70
  -1  16  11   60.59    9.30
   0 -16  11   32.20    7.20
   0 -16 -11   32.30    7.90
   0  16  11   25.60    5.70
   1 -16  11    8.50    4.90
  -1 -16 -11    6.30    4.30
   1  16  11   10.60    3.90
  -1  16 -11    4.00    4.70
   2 -16  11   25.20    8.40
  -2 -16 -11   40.40    8.80
   2  16  11   36.80    3.70
  -2  16 -11   40.80    8.30
   3 -16  11    4.50    5.60
  -3 -16 -11    2.60    4.90
  -3  16 -11   -1.20    4.10
  -2 -17  11    5.20    5.40
   2  17 -11    6.20    4.50
  -2  17  11    2.60    4.80
  -2  17  11    5.20    3.90
  -1 -17  11    3.90    4.50
   1  17 -11    8.60    5.70
  -1  17  11    0.90    4.20
  -1  17  11    7.90    4.40
   0 -17 -11   12.80    6.30
   0 -17  11    7.80    6.10
   0  17  11   15.70    4.30
   0  17 -11   10.80    5.30
  -1 -17 -11   48.10   10.30
   1 -17  11   39.70    9.80
  -1  17 -11   54.29    9.70
   1  17  11   38.50    6.20
  -2  17 -11    1.80    4.30
  -8   0  12   14.20    5.20
  -8   0  12    4.60    4.80
  -7   0  12   11.60    6.60
  -6   0  12   37.70    7.40
  -6   0  12   34.80    5.20
   6   0 -12   34.40    5.50
  -5   0  12    1.40    1.70
  -5   0  12   -0.30    2.40
   5   0 -12   -3.60    2.00
  -4   0  12   97.59    8.50
   4   0 -12  105.09    4.90
  -4   0  12  101.99    4.80
  -3   0  12    3.40    2.60
  -2   0  12    4.60    2.00
  -1   0  12    2.40    2.20
   1   0 -12   -0.40    1.90
   0   0 -12   74.09    3.40
   0   0 -12   65.99    5.60
   0   0  12   71.89    6.20
   0   0  12   72.79    3.40
  -1   0 -12    2.20    1.80
   1   0  12    1.60    1.80
  -1   0 -12    1.30    1.30
   1   0  12    1.10    1.30
  -2   0 -12  251.27   10.80
  -2   0 -12  232.08   10.30
   2   0  12  253.67   11.40
   2   0  12  248.88   10.60
   3   0  12    0.40    2.30
  -3   0 -12    0.00    2.30
  -3   0 -12    1.20    2.00
  -4   0 -12    1.30    2.50
   4   0  12    0.50    2.40
   5   0  12   -3.40    2.70
  -5   0 -12    0.30    3.00
  -6   0 -12   96.59   12.80
  -7   0 -12    0.00    4.40
   7   0  12    0.30    4.40
  -8  -1  12   52.99    7.80
  -8  -1  12   38.30    7.30
  -8   1  12   41.10    8.60
  -8   1  12   49.30    7.10
  -7  -1  12    7.90    3.80
  -7  -1  12    1.50    3.40
  -7   1  12    3.20    4.30
  -7   1  12    0.30    3.00
  -6  -1  12   24.20    5.30
  -6  -1  12   20.20    3.90
   6  -1 -12   17.40    4.50
  -6   1  12   25.20    6.00
   6   1 -12   21.90    4.70
  -6   1  12   29.20    4.80
   5  -1 -12   82.29    5.90
  -5  -1  12   98.69    6.10
  -5  -1  12   64.39    8.30
  -5   1  12  105.79    6.20
  -5   1  12   98.89    9.20
   5   1 -12  106.39    6.30
  -4  -1  12   25.50    3.10
  -4  -1  12   20.20    4.50
   4  -1 -12   25.20    3.00
   4   1 -12   25.90    2.90
  -4   1  12   23.60    4.80
  -4   1  12   27.50    3.10
  -3  -1  12    3.20    0.70
  -3  -1  12    2.80    2.20
  -3   1  12    2.20    1.70
  -2  -1  12  305.67   13.60
  -2   1  12  313.17   13.60
   1  -1 -12   76.89    6.20
  -1  -1  12   75.89    6.60
  -1   1  12   90.99    6.90
   0  -1 -12  168.08    5.40
   0  -1  12  175.48    9.60
   0  -1 -12  169.38    8.90
   0   1  12  156.18    8.80
   0   1 -12  180.68    5.80
   0   1  12  172.28    6.10
   0   1 -12  173.68    9.10
  -1  -1 -12  100.19    6.60
   1  -1  12   94.99    5.50
  -1  -1 -12   92.19    5.40
   1  -1  12  102.89    7.40
  -1   1 -12   79.49    6.20
  -1   1 -12   87.99    5.30
   1   1  12   94.79    6.70
   1   1  12  100.19    5.50
   2  -1  12   37.40    5.70
   2  -1  12   32.60    5.60
  -2  -1 -12   35.90    5.10
   2   1  12   37.70    5.20
   2   1  12   42.70    6.20
  -2   1 -12   38.20    4.90
  -2   1 -12   36.00    5.00
   3  -1  12    0.50    2.40
  -3  -1 -12   -1.70    1.80
   3   1  12    4.40    2.50
  -3   1 -12    3.30    2.40
  -3   1 -12    2.20    2.50
   4  -1  12   44.70    6.80
  -4  -1 -12   40.00    5.10
  -4  -1 -12   37.30    6.00
   4   1  12   56.39    6.00
  -4   1 -12   50.99    7.10
  -5  -1 -12    3.80    3.10
  -5  -1 -12    9.10    3.60
  -5   1 -12   -1.00    2.70
   5   1  12    4.50    3.00
   6  -1  12  141.79   10.80
  -6  -1 -12  145.39   12.60
  -6  -1 -12  105.79    8.80
   6   1  12  140.59    9.60
  -6   1 -12  140.79   11.90
   7  -1  12    4.10    4.90
  -7  -1 -12    3.00    4.40
   7   1  12   -1.50    3.90
  -7   1 -12    7.80    4.70
  -8  -2  12   -2.90    4.00
  -8  -2  12   -2.00    4.10
  -8   2  12   -3.20    4.00
  -8   2  12   -1.20    4.40
  -7  -2  12   48.80    6.70
  -7  -2  12   46.20    8.20
  -7   2  12   61.39    7.70
  -7   2  12   49.20    7.70
  -6  -2  12    0.70    2.60
  -6  -2  12    0.70    2.50
   6  -2 -12   -4.00    3.40
  -6   2  12    3.20    2.80
  -6   2  12   -2.30    2.50
   6   2 -12   -8.40    5.30
  -5  -2  12    2.90    2.40
  -5  -2  12    4.70    2.30
   5  -2 -12    2.70    2.30
  -5   2  12   10.20    3.90
   5   2 -12    1.50    2.20
  -5   2  12    3.60    2.20
   4  -2 -12   39.80    3.40
  -4  -2  12   46.20    3.80
  -4  -2  12   43.20    6.60
  -4   2  12   52.69    8.10
   4   2 -12   51.49    3.70
  -4   2  12   50.59    3.70
  -3  -2  12  148.79    4.60
  -3  -2  12  151.58   10.00
  -3   2  12  144.79    3.80
   3   2 -12  146.89    4.30
  -3   2  12  134.19    9.40
  -3   2  12  144.99    3.90
  -2  -2  12   29.60    7.60
  -2   2  12   43.80    6.30
   1  -2 -12  194.48    9.80
  -1  -2  12  213.38   10.90
  -1   2  12  197.18   10.20
   0  -2 -12  230.58   10.30
   0  -2 -12  235.18    7.30
   0  -2  12  242.98   11.50
   0   2  12  243.08    7.00
   0   2 -12  243.88   12.80
   0   2 -12  242.88    7.80
   0   2  12  246.68   10.90
   1  -2  12  140.49    6.80
  -1  -2 -12  148.89    9.00
   1  -2  12  150.58    9.20
  -1  -2 -12  139.89    6.80
  -1   2 -12  142.39    8.50
  -1   2 -12  141.39    6.80
   1   2  12  139.19    6.70
   1   2  12  147.09    8.10
  -2  -2 -12   24.00    4.30
   2  -2  12   25.30    4.60
   2  -2  12   21.20    4.30
  -2  -2 -12   29.90    4.10
  -2   2 -12   29.00    7.90
   2   2  12   20.50    4.00
  -2   2 -12   21.40    3.60
  -3  -2 -12  169.48   10.10
  -3  -2 -12  145.29    7.20
   3  -2  12  159.38   10.20
  -3   2 -12  149.39    9.50
   3   2  12  164.88    8.50
  -4  -2 -12  121.49    6.80
  -4  -2 -12  129.39    9.90
  -4   2 -12  122.49    9.70
   4   2  12  137.79    8.30
  -5  -2 -12   65.09    5.90
  -5  -2 -12   74.09    9.80
   5  -2  12   74.59    9.70
  -5   2 -12   74.09   10.00
   5   2  12   70.79    6.30
  -6  -2 -12   56.39    6.00
  -6  -2 -12   69.69    9.70
   6  -2  12   74.59   10.00
  -6   2 -12   52.49    8.40
   6   2  12   76.19    7.10
  -7  -2 -12    6.90    4.80
   7  -2  12    6.30    5.70
   7   2  12    8.40    3.90
  -7   2 -12   14.20    5.90
  -8  -3  12    9.80    5.00
  -8  -3  12    2.00    3.90
  -8   3  12   15.10    5.30
  -8   3  12    4.20    4.60
  -7  -3  12    0.90    3.60
  -7  -3  12   -3.90    3.10
  -7   3  12    1.90    3.50
  -7   3  12   -0.80    3.00
  -6  -3  12    2.50    2.60
  -6  -3  12    2.30    2.70
  -6   3  12   -2.70    2.20
  -6   3  12    1.10    3.30
   5  -3 -12  361.26   12.40
  -5  -3  12  427.86   18.40
  -5  -3  12  384.46   13.10
  -5   3  12  392.56   13.00
   5   3 -12  395.36   13.20
  -5   3  12  399.66   18.40
  -4  -3  12    2.40    1.80
  -4  -3  12    4.70    3.00
  -4   3  12    2.70    2.40
  -4   3  12    2.40    1.90
  -4   3  12    4.10    1.80
   4   3 -12    5.50    2.20
  -3  -3  12  525.75   19.10
  -3  -3  12  494.55   13.90
  -3   3  12  492.65   18.40
   3   3 -12  545.75   12.40
  -3   3  12  519.45   10.60
  -3   3  12  510.65   10.70
  -2  -3  12    2.80    2.50
  -2   3  12    4.90    2.60
   2   3 -12    4.80    1.00
  -2   3  12    5.80    0.70
  -2   3  12    6.10    0.70
   2   3 -12    5.00    1.10
   1  -3 -12   56.29    5.40
  -1  -3  12   60.69    6.20
   1   3 -12   57.09    2.90
  -1   3  12   77.89    6.40
   1   3 -12   59.49    2.90
  -1   3  12   56.49    2.40
  -1   3  12   62.89    2.60
   0  -3 -12   44.10    4.50
   0  -3 -12   50.59    3.50
   0  -3  12   50.59    6.70
   0   3 -12   46.50    3.80
   0   3 -12   52.09    3.60
   0   3  12   47.90    4.90
   0   3  12   45.40    3.30
   1  -3  12  272.47    9.90
  -1  -3 -12  261.97   10.20
  -1  -3 -12  254.57    9.60
   1  -3  12  242.28   12.20
   1   3  12  264.57   10.70
  -1   3 -12  261.57    9.80
   1   3  12  255.57    9.60
   2  -3  12   13.20    3.70
   2  -3  12    8.60    2.70
  -2  -3 -12   10.50    3.20
  -2  -3 -12    9.00    2.50
   2   3  12    7.80    2.80
   2   3  12   10.70    2.70
  -2   3 -12   12.30    3.40
  -3  -3 -12  218.58   11.40
  -3  -3 -12  201.58    8.40
  -3   3 -12  209.68   11.60
   3   3  12  221.28    9.50
   4  -3  12  114.59    9.90
  -4  -3 -12  110.49    6.10
  -4  -3 -12  100.09    9.20
  -4   3 -12   99.29    8.90
   4   3  12  104.79    6.50
  -5  -3 -12   11.80    2.60
  -5  -3 -12    9.80    3.40
   5  -3  12   11.90    5.30
  -5   3 -12   10.20    3.80
   5   3  12   19.20    3.50
   6  -3  12   -4.30    3.30
  -6  -3 -12    0.30    4.10
  -6  -3 -12   -1.10    3.10
   6   3  12    1.80    2.80
  -6   3 -12    0.80    4.90
   7  -3  12   80.99   10.90
  -7  -3 -12   81.49   13.10
  -7   3 -12   94.59   13.60
  -7  -4  12   33.50    6.40
  -7  -4  12   42.30    7.60
  -7   4  12   27.90    6.90
  -7   4  12   30.20    6.00
  -6  -4  12    2.70    2.80
  -6  -4  12   -0.10    2.90
  -6   4  12   -1.70    2.80
  -6   4  12    0.00    3.40
  -5  -4  12   23.30    5.60
   5  -4 -12   18.20    5.20
  -5  -4  12   14.30    3.30
   5   4 -12   15.10    4.00
  -5   4  12   17.10    3.50
  -5   4  12   23.10    5.60
  -4  -4  12   49.99    7.50
  -4  -4  12   43.30    5.00
  -4   4  12   53.29    4.80
  -4   4  12   49.99    4.20
   4   4 -12   46.80    4.40
  -4   4  12   52.29    7.90
  -3  -4  12  298.77    9.40
  -3  -4  12  299.37   14.10
   3   4 -12  306.77    9.10
  -3   4  12  324.57   14.90
  -3   4  12  314.97    8.70
  -3   4  12  295.07    8.60
  -2  -4  12   38.60    6.30
   2   4 -12   30.80    2.70
  -2   4  12   28.30    2.40
   2   4 -12   34.50    3.10
  -2   4  12   31.70    2.50
   1  -4 -12  647.84   19.00
  -1   4  12  628.04   19.20
   1   4 -12  665.23   13.90
   1   4 -12  645.64   14.00
  -1   4  12  650.83   14.30
  -1   4  12  643.54   13.20
   0  -4 -12    7.90    2.50
   0  -4 -12    6.90    2.00
   0  -4  12    8.90    3.30
   0   4  12    4.00    2.00
   0   4 -12    9.00    2.10
   0   4 -12    6.70    2.20
   0   4  12    8.30    2.20
   1  -4  12   78.99    7.50
  -1  -4 -12   76.49    5.40
   1  -4  12   79.79    5.60
  -1  -4 -12   74.49    5.30
  -1   4 -12   78.49    5.50
   1   4  12   75.89    5.70
   1   4  12   80.39    5.60
   2  -4  12   21.90    5.50
  -2  -4 -12    9.80    2.90
  -2  -4 -12   13.60    2.50
   2  -4  12   13.60    3.50
  -2   4 -12   12.70    3.30
   2   4  12    8.50    3.30
   2   4  12   12.30    2.80
  -3  -4 -12   17.60    3.10
   3  -4  12   25.90    5.70
  -3   4 -12   26.40    5.50
   3   4  12   24.20    3.80
   4  -4  12   25.90    5.10
  -4  -4 -12   26.40    3.20
  -4  -4 -12   18.60    4.80
  -4   4 -12   19.60    4.80
   4   4  12   25.20    3.40
   5  -4  12  101.09   10.30
  -5  -4 -12   98.89    4.70
  -5  -4 -12  128.09   10.60
   5   4  12  101.79    5.80
  -5   4 -12  121.99   10.70
   6  -4  12   21.10    6.50
  -6  -4 -12   24.70    8.20
  -6   4 -12   20.00    7.20
   7  -4  12  -11.50    4.60
  -7  -4 -12    6.20    5.60
  -7   4 -12    5.30    5.10
  -7  -5  12   13.40    5.00
  -7  -5  12   15.30    4.90
  -7   5  12    6.80    4.10
  -7   5  12    1.20    4.20
  -6  -5  12   46.50    7.90
  -6  -5  12   37.10    5.40
  -6   5  12   60.09    8.80
  -5  -5  12   43.70    7.60
  -5  -5  12   41.50    5.60
  -5   5  12   35.60    5.40
  -5   5  12   33.90    5.30
   5   5 -12   34.30    5.20
  -5   5  12   30.90    5.80
  -4  -5  12   12.20    3.80
  -4  -5  12   15.90    3.40
  -4   5  12    6.30    2.70
  -4   5  12   12.10    2.70
  -4   5  12    8.20    2.80
   4   5 -12   10.90    2.60
  -3  -5  12  108.09    6.10
  -3  -5  12  105.19    8.70
  -3   5  12  106.49    5.60
  -3   5  12  106.79    8.60
   3   5 -12  112.09    5.90
  -3   5  12  121.49    5.90
  -2  -5  12  719.83   22.80
  -2   5  12  728.13   22.30
  -2   5  12  707.23   15.10
   2   5 -12  720.33   15.60
  -2   5  12  689.53   15.00
   2   5 -12  699.93   15.60
  -1  -5  12    4.30    2.90
  -1   5  12    5.00    2.40
  -1   5  12    8.30    2.00
   1   5 -12    8.90    2.10
  -1   5  12    7.10    3.70
   1   5 -12    6.60    1.90
   0  -5 -12   96.99    6.50
   0  -5 -12  101.69    6.10
   0  -5  12  113.99    8.70
   0   5  12  108.29    5.90
   0   5 -12  103.79    6.50
   0   5  12  101.69    6.90
   0   5 -12  100.99    5.90
   1  -5  12   28.00    5.00
  -1  -5 -12   21.40    3.70
  -1  -5 -12   28.10    4.40
   1  -5  12   31.10    4.50
  -1   5 -12   29.80    4.70
   1   5  12   29.00    4.20
   1   5  12   32.40    4.80
   2  -5  12   24.50    4.50
  -2  -5 -12   27.80    3.50
   2  -5  12   28.00    6.10
  -2  -5 -12   24.40    4.30
  -2   5 -12   26.30    4.40
   2   5  12   23.50    3.60
   2   5  12   19.00    4.40
   3  -5  12   34.10    6.20
  -3  -5 -12   55.89    7.70
  -3  -5 -12   40.90    3.30
   3   5  12   34.60    3.60
  -3   5 -12   30.30    5.50
   4  -5  12  204.58   13.60
  -4  -5 -12  229.78   13.60
   4   5  12  206.28    8.20
  -4   5 -12  246.78   14.00
  -5  -5 -12   21.90    5.80
   5  -5  12   16.80    5.40
  -5   5 -12   10.50    5.00
  -6  -5 -12   28.80    7.20
   6  -5  12   22.00    6.40
  -6   5 -12   39.30    8.10
  -7  -5 -12    1.70    5.40
   7  -5  12    2.90    6.80
  -7   5 -12    0.90    5.90
  -7  -6  12    3.60    3.90
  -7  -6  12    3.60    4.00
  -7   6  12   -4.70    3.60
  -7   6  12    0.90    4.30
  -6  -6  12   28.20    6.20
  -6  -6  12   28.60    5.50
  -6   6  12   34.30    5.60
  -5  -6  12    0.40    2.90
  -5  -6  12    2.80    2.70
  -5   6  12    3.60    2.60
   5   6 -12   -4.20    4.00
  -5   6  12    2.60    3.20
  -5   6  12   -3.20    3.20
  -4  -6  12  297.17   14.90
  -4  -6  12  302.17   12.10
   4   6 -12  283.17   14.60
  -4   6  12  294.47   11.30
  -4   6  12  319.47   16.10
  -4   6  12  306.57   11.90
  -3  -6  12   65.89    8.30
  -3  -6  12   65.19    5.40
  -3   6  12   58.59    5.00
   3   6 -12   71.39    5.50
  -3   6  12   65.09    8.50
  -3   6  12   62.19    4.70
  -2  -6  12    1.10    2.00
   2   6 -12    2.60    1.70
  -2   6  12    0.60    1.60
   2   6 -12    2.00    1.40
  -2   6  12    2.40    2.50
  -2   6  12    1.30    1.50
   1  -6 -12  116.89    6.50
  -1  -6  12  116.59    9.10
   1   6 -12  114.69    6.30
  -1   6  12  114.79    7.80
  -1   6  12  112.29    6.00
   1   6 -12  106.69    6.40
   0  -6 -12  354.16   12.40
   0  -6  12  348.27   15.80
   0   6 -12  368.16   12.20
   0   6  12  354.36   12.90
   0   6 -12  327.97   12.30
   0   6  12  336.47   11.60
   0   6  12  348.97   14.70
   1  -6  12    9.50    3.40
  -1  -6 -12   15.30    3.60
   1   6  12   10.60    2.90
  -1   6 -12   14.40    3.50
  -1   6 -12    3.90    2.60
   1   6  12   11.10    3.70
   1   6  12    8.60    3.10
  -2  -6 -12   60.89    6.40
   2  -6  12   47.00    7.20
  -2   6 -12   46.40    6.10
   2   6  12   48.60    4.80
   2   6  12   53.49    4.40
  -3  -6 -12   61.09    7.50
   3  -6  12   73.09   10.40
   3   6  12   65.39    4.60
   3   6  12   62.69    4.00
  -3   6 -12   60.29    7.60
   4  -6  12   29.10    6.90
  -4  -6 -12   34.50    6.20
  -4   6 -12   27.80    6.60
  -5  -6 -12    6.90    3.90
   5  -6  12   12.70    5.10
  -5   6 -12   14.90    5.40
  -6  -6 -12    6.70    4.40
   6  -6  12    0.60    4.90
  -6   6 -12    4.10    4.50
  -7  -7  12   -0.80    3.90
  -7  -7  12    6.60    4.30
  -7   7  12    3.70    4.60
  -7   7  12    2.00    3.80
  -6  -7  12   42.40    6.90
  -6  -7  12   44.10    8.10
  -6   7  12   39.10    8.50
  -6   7  12   31.20    6.10
  -5  -7  12   31.50    6.60
  -5  -7  12   29.20    5.30
  -5   7  12   38.30    5.90
  -5   7  12   30.30    5.60
  -4  -7  12    0.10    2.60
  -4  -7  12    2.70    2.90
   4   7 -12   -0.70    2.90
  -4   7  12   -0.80    2.60
  -4   7  12    2.70    2.40
  -4   7  12    1.10    2.40
  -3  -7  12   72.69    6.40
  -3  -7  12   78.29    7.80
   3   7 -12   74.99    6.10
  -3   7  12   78.19    5.80
  -3   7  12   59.39    8.20
  -3   7  12   77.19    6.00
  -2  -7  12   88.29    8.30
   2   7 -12   98.09    6.30
   2   7 -12   84.89    5.90
  -2   7  12   82.79    5.70
  -2   7  12   81.09    5.50
  -2   7  12   92.69    7.90
  -1  -7  12   53.09    7.20
   1  -7 -12   58.69    5.30
   1   7 -12   50.19    4.80
  -1   7  12   59.09    6.00
   1   7 -12   52.49    5.20
  -1   7  12   54.99    4.90
   0  -7  12  116.99    9.10
   0  -7 -12  122.29    7.70
   0   7  12  112.79    8.50
   0   7  12  120.99    7.30
   0   7 -12  117.49    7.20
   0   7  12  124.49    7.50
  -1  -7 -12   85.99    6.70
   1  -7  12   74.19    9.70
  -1   7 -12   79.19    7.10
   1   7  12   64.79    6.00
   1   7  12   83.69    5.60
   1   7  12   64.59    6.00
  -1   7 -12   86.29    6.90
  -2  -7 -12    4.20    2.70
   2  -7  12    0.20    2.90
   2   7  12    7.50    2.20
   2   7  12    6.10    2.40
  -3  -7 -12   33.20    5.80
   3  -7  12   32.20    6.90
  -3   7 -12   21.80    4.70
   3   7  12   27.70    2.60
   3   7  12   29.90    3.10
  -4  -7 -12  149.19   11.30
   4  -7  12  157.78   12.60
  -4   7 -12  150.98   11.40
   5  -7  12    4.00    4.30
  -5  -7 -12   -1.20    3.20
  -5   7 -12   -2.90    3.10
  -6  -7 -12   12.00    5.10
   6  -7  12    5.10    6.20
  -6   7 -12   -1.60    4.20
  -7  -8  12   34.80    6.30
  -7  -8  12   39.40    7.90
  -7   8  12   36.40    9.30
  -7   8  12   36.20    7.30
  -6  -8  12    4.80    4.30
  -6  -8  12   -0.10    3.40
  -6   8  12    3.20    3.70
  -6   8  12    3.30    4.00
  -5  -8  12    0.80    2.60
  -5  -8  12   -1.90    2.70
  -5   8  12   -0.30    2.50
  -5   8  12    1.20    3.50
  -4  -8  12   35.10    6.60
  -4  -8  12   33.90    5.40
  -4   8  12   22.30    4.60
  -4   8  12   17.40    4.90
  -4   8  12   27.50    4.80
  -3  -8  12   39.60    6.00
  -3  -8  12   42.40    7.40
  -3   8  12   52.89    5.40
  -3   8  12   39.60    5.20
  -3   8  12   41.50    7.10
   3   8 -12   46.40    5.70
  -2  -8  12    7.30    3.80
   2   8 -12    1.60    2.10
  -2   8  12    4.10    2.50
   2   8 -12    4.20    2.40
  -2   8  12    5.60    2.80
  -2   8  12    4.10    2.10
  -1  -8  12  180.38   12.00
   1  -8 -12  180.08    9.80
   1   8 -12  211.38    9.80
  -1   8  12  187.48   10.50
   1   8 -12  192.48    9.70
  -1   8  12  213.38   11.20
   0  -8  12   13.40    4.10
   0  -8 -12   10.40    3.40
   0   8  12   14.00    3.80
   0   8 -12    7.40    2.60
   0   8  12   11.80    3.30
   0   8 -12    7.10    3.20
   1  -8  12   -1.30    2.20
  -1  -8 -12   -0.80    2.20
   1   8  12    6.00    2.80
   1   8  12    1.70    1.90
  -1   8 -12    1.80    2.20
  -2  -8 -12   89.69    8.00
   2  -8  12   69.09    9.60
   2   8  12   70.09    5.40
  -2   8 -12   73.29    7.30
   2   8  12   84.39    5.00
   3  -8  12   47.80    8.40
  -3  -8 -12   33.30    6.00
  -3   8 -12   34.50    5.90
   4  -8  12    3.00    3.30
  -4  -8 -12    1.10    3.20
  -4   8 -12    5.10    3.50
   5  -8  12   83.79   12.20
  -5  -8 -12  112.79   13.50
  -5   8 -12  109.49   10.80
  -6  -8 -12   -0.20    4.10
   6  -8  12   14.80    6.80
  -7  -9  12   -6.00    4.20
  -7   9  12    1.70    4.30
  -7   9  12   -3.20    4.20
  -6  -9  12    9.70    4.80
  -6   9  12    8.30    4.90
  -5  -9  12  219.78   12.50
  -5  -9  12  228.88   13.80
  -5   9  12  207.18   15.00
  -5   9  12  230.88   12.20
  -4  -9  12    9.40    4.10
  -4  -9  12   24.20    6.10
  -4   9  12   15.20    4.10
  -4   9  12   27.60    6.00
  -3  -9  12   57.99    7.20
  -3  -9  12   51.19    7.90
  -3   9  12   51.09    6.40
  -3   9  12   49.10    7.20
  -3   9  12   42.70    5.90
  -2  -9  12   86.39    8.50
   2   9 -12   81.69    7.10
  -2   9  12   78.59    6.60
   2   9 -12   80.09    6.80
  -2   9  12   75.59    6.80
  -2   9  12   67.99    7.10
  -1  -9  12    2.10    2.70
   1  -9 -12    6.80    2.70
  -1   9  12    1.00    2.10
   1   9 -12    4.60    2.80
   1   9 -12    6.50    2.70
  -1   9  12    6.90    3.00
   0  -9  12    0.50    3.10
   0  -9 -12    0.20    2.10
   0   9 -12    4.60    2.50
   0   9  12    0.80    1.70
   0   9  12    3.10    3.00
   0   9  12   -0.70    2.90
   1  -9  12  314.67   16.80
  -1  -9 -12  315.77   16.50
   1   9  12  276.07   12.00
  -1   9 -12  298.47   14.00
   1   9  12  308.57   11.30
  -2  -9 -12   -0.90    2.60
   2  -9  12    2.60    3.20
   2   9  12    0.60    2.10
   2   9  12    2.00    1.70
  -2   9 -12    1.40    2.70
  -3  -9 -12   49.10    7.50
   3  -9  12   49.90    8.60
  -3   9 -12   61.09    9.20
   4  -9  12   -0.20    3.80
  -4  -9 -12    0.20    3.40
  -4   9 -12   -0.20    2.70
  -5  -9 -12    3.00    4.80
   5  -9  12    1.40    6.40
  -5   9 -12    4.30    5.20
   6  -9  12    4.40    5.80
  -6  -9 -12    3.00    5.30
  -6   9 -12    1.40    4.80
  -6 -10  12   23.70    6.10
  -6 -10  12   23.60    5.80
  -6  10  12   32.80    6.70
  -6  10  12   32.10    7.70
  -5 -10  12   13.40    5.10
  -5 -10  12    8.40    4.40
  -5  10  12   17.30    4.80
  -5  10  12   10.90    4.50
  -4 -10  12   79.39   10.40
  -4 -10  12   82.89    8.60
  -4  10  12   89.59    8.00
  -4  10  12   76.09   10.40
  -3 -10  12    2.50    2.90
  -3 -10  12    3.70    2.80
  -3  10  12    0.10    1.80
  -3  10  12    4.00    3.00
  -2 -10  12   25.80    5.20
   2  10 -12   28.70    5.20
  -2  10  12   32.70    6.20
  -2  10  12   30.20    5.60
  -1 -10  12  217.68   13.90
   1 -10 -12  213.88   12.20
   1  10 -12  237.68   11.90
  -1  10  12  227.58   12.00
  -1  10  12  240.58   11.60
   0 -10 -12    5.60    3.30
   0 -10  12    7.60    4.10
   0  10 -12    4.10    2.70
   0  10  12    6.20    2.80
  -1 -10 -12    9.80    3.90
   1 -10  12    4.20    3.20
  -1  10 -12   10.80    3.70
   1  10  12    7.30    2.50
   1  10  12    6.60    3.40
  -2 -10 -12  181.38   12.00
   2 -10  12  195.78   14.10
   2  10  12  191.98    7.10
   2  10  12  178.58    7.60
  -2  10 -12  179.98   11.80
   3 -10  12   38.50    8.20
  -3 -10 -12   49.40    8.50
  -3  10 -12   26.50    4.90
   4 -10  12    1.90    3.60
  -4 -10 -12   -0.60    3.60
  -4  10 -12    2.00    3.50
  -5 -10 -12   19.30    5.20
  -5  10 -12    9.10    4.70
  -6 -11  12   11.50    5.00
  -6 -11  12   27.50    6.80
  -6  11  12   21.80    7.40
  -6  11  12   24.50    6.00
  -5 -11  12    3.50    4.20
  -5 -11  12    8.80    4.80
  -5  11  12    6.80    4.00
  -5  11  12   10.80    5.00
  -4 -11  12   -0.60    3.00
  -4 -11  12    3.00    3.40
  -4  11  12    3.20    3.00
  -4  11  12    0.10    3.60
  -3 -11  12   13.30    4.60
  -3 -11  12    8.90    4.30
  -3  11  12   16.80    5.10
  -3  11  12    9.30    4.40
  -2 -11  12   59.99    9.60
  -2  11  12   42.20    6.60
  -2  11  12   51.29    8.30
   2  11 -12   42.70    6.50
  -1 -11  12   57.29    9.30
  -1  11  12   63.49    6.70
   1  11 -12   73.19    8.80
  -1  11  12   59.79    7.40
   0 -11  12  119.59   11.20
   0 -11 -12  109.79    9.60
   0  11 -12  117.19    9.30
   0  11  12  103.69    7.90
  -1 -11 -12   34.30    6.90
   1 -11  12   20.20    5.30
  -1  11 -12   23.40    5.50
   1  11  12   27.40    4.30
   2 -11  12    5.80    4.30
  -2 -11 -12    0.50    2.90
  -2  11 -12    0.60    2.40
   2  11  12    1.10    1.70
   2  11  12   -2.10    2.30
   3 -11  12   37.70    7.70
  -3 -11 -12   32.30    6.60
  -3  11 -12   17.00    4.20
  -4 -11 -12   55.39    9.00
   4 -11  12   58.49   10.70
  -4  11 -12   53.99    9.30
  -5 -11 -12    0.70    4.30
   5 -11  12    1.60    4.50
  -5  11 -12   -7.20    4.00
  -5 -12  12   -5.80    3.50
  -5 -12  12    7.70    4.60
  -5  12  12    1.20    3.90
  -5  12  12   -2.80    3.50
  -4 -12  12  104.89   12.00
  -4 -12  12   81.09   10.90
  -4  12  12  100.19    8.80
  -3 -12  12   14.80    5.50
  -3 -12  12   16.50    4.30
  -3  12  12   24.20    5.60
  -3  12  12   15.30    4.50
  -2 -12  12   -1.00    2.70
  -2  12  12    2.30    2.90
   2  12 -12    2.60    3.20
  -2  12  12   -4.20    2.80
  -1 -12  12    8.80    3.90
   1  12 -12    3.20    3.20
  -1  12  12    6.30    3.10
  -1  12  12   -0.20    2.20
   0 -12  12  122.79   11.30
   0 -12 -12   99.29    9.40
   0  12 -12   99.89    9.00
   1 -12  12   -2.90    3.30
  -1 -12 -12   -0.40    3.10
   1  12  12   -2.80    3.20
   1  12  12   -1.10    1.90
  -1  12 -12    4.30    3.30
   2 -12  12   54.09    9.40
  -2 -12 -12   59.99    8.50
  -2  12 -12   44.70    7.40
   2  12  12   49.20    4.60
   2  12  12   67.69    4.40
   3 -12  12  100.09   14.60
  -3 -12 -12   95.79   11.80
  -3  12 -12   96.39    9.70
   4 -12  12    2.90    4.30
  -4 -12 -12   13.00    5.60
  -4  12 -12    5.20    4.80
   5 -12  12    1.10    5.40
  -5 -12 -12   -2.60    4.50
  -5  12 -12    6.00    5.10
  -5 -13  12    5.50    5.00
  -5 -13  12   10.60    4.50
  -5  13  12    0.60    4.30
  -5  13  12   -0.70    4.20
  -4 -13  12    1.90    3.90
  -4 -13  12    1.90    4.90
  -4  13  12   -1.80    3.20
  -4  13  12    0.20    3.80
  -3 -13  12   23.80    6.60
  -3 -13  12   19.60    6.30
  -3  13  12   17.90    5.90
  -3  13  12   16.20    5.30
  -2 -13  12   72.49   10.10
  -2  13  12   92.09    9.30
  -2  13  12   87.69    9.10
   2  13 -12   89.59    9.30
  -1 -13  12    7.70    4.70
   1  13 -12    4.00    3.90
  -1  13  12    7.00    3.60
  -1  13  12   13.70    4.90
   0 -13 -12    7.50    4.00
   0 -13  12    9.00    5.00
   0  13  12   10.00    3.40
   0  13 -12   11.40    4.10
  -1 -13 -12   38.60    7.40
   1 -13  12   34.50    6.50
   1  13  12   39.40    5.70
   1  13  12   38.30    5.50
  -1  13 -12   47.20    8.70
   2 -13  12   -1.30    3.50
  -2 -13 -12   -2.00    3.20
   2  13  12    1.50    1.90
   2  13  12    0.40    2.50
  -2  13 -12   -2.70    3.20
   3 -13  12   22.70    6.40
  -3 -13 -12   21.30    6.00
  -3  13 -12   19.70    6.60
  -4 -13 -12    4.60    4.50
   4 -13  12    0.80    4.90
  -4  13 -12   -0.50    3.70
  -4 -14  12   20.40    6.00
  -4 -14  12   13.90    6.00
  -4  14  12   12.20    5.00
  -4  14  12   19.80    5.90
  -3 -14  12   20.40    5.90
  -3 -14  12   14.50    5.30
  -3  14  12   31.60    6.40
  -3  14  12   27.60    6.60
  -2 -14  12   -0.40    3.40
   2  14 -12   -0.10    3.20
  -2  14  12    3.50    2.90
  -2  14  12    6.70    3.60
  -1 -14  12    9.90    4.50
  -1  14  12    7.40    4.00
  -1  14  12    6.10    3.60
   1  14 -12   12.60    4.90
   0 -14  12    1.60    3.80
   0 -14 -12   -0.30    4.40
   0  14 -12    2.70    4.00
   0  14  12    5.60    3.40
   1 -14  12   -1.20    3.80
  -1 -14 -12    0.60    3.50
  -1  14 -12   -3.90    3.60
   1  14  12   -5.00    2.30
   1  14  12   -0.50    4.00
   2 -14  12   -1.50    3.90
  -2 -14 -12   -2.50    3.60
  -2  14 -12   -1.50    3.40
   2  14  12    0.60    2.00
   3 -14  12    7.30    4.70
  -3 -14 -12   26.90    6.90
  -3  14 -12   20.20    5.70
   4 -14  12   -4.50    5.50
  -4 -14 -12    8.10    4.70
  -4  14 -12   -1.70    4.10
  -4 -15  12   -4.40    4.00
  -4 -15  12   -1.30    5.60
  -4  15  12   -5.00    3.80
  -4  15  12   -1.90    4.30
  -3 -15  12   46.90    9.60
  -3  15  12   47.40    9.00
  -3  15  12   32.80    7.00
   3  15 -12   28.00    6.50
  -2 -15  12    1.70    5.60
   2  15 -12   -1.10    3.50
  -2  15  12    3.40    4.00
  -2  15  12    5.60    4.30
  -1 -15  12   16.60    5.90
  -1  15  12   27.60    5.90
  -1  15  12   24.10    5.90
   1  15 -12   20.90    5.30
   0 -15  12    9.60    5.30
   0 -15 -12   12.20    4.70
   0  15  12   11.30    4.20
   0  15 -12    9.50    4.30
  -1 -15 -12   48.60    8.80
   1 -15  12   34.20    9.10
   1  15  12   32.00    5.10
  -1  15 -12   44.80    8.20
  -2 -15 -12    2.40    4.10
   2 -15  12    6.30    4.70
  -2  15 -12   -0.60    3.40
   2  15  12    0.10    2.00
  -3 -15 -12   33.90    8.40
   3 -15  12   38.00    8.20
  -3  15 -12   38.20    8.00
  -3 -16  12   32.70    8.60
  -3  16  12   45.30   10.40
  -3  16  12   29.90    6.70
   3  16 -12   33.30    8.10
  -2 -16  12    3.30    4.20
  -2  16  12    8.80    4.70
  -2  16  12    0.70    3.90
  -1 -16  12    0.00    4.30
  -1  16  12   10.10    4.60
  -1  16  12   10.40    4.50
   0 -16 -12   67.49   14.10
   0 -16  12   35.10    6.60
   0  16 -12   35.20    8.40
   0  16  12   45.30    7.10
   1 -16  12   -0.90    4.90
  -1 -16 -12   -7.80    4.40
   1  16  12    0.00    3.20
  -1  16 -12   -3.20    3.60
   2 -16  12    7.60    5.60
  -2 -16 -12   12.40    6.00
  -2  16 -12    4.30    4.80
  -1 -17  12  -11.50    4.10
  -1  17  12   -7.60    3.90
   1  17 -12    8.50    5.20
  -1  17  12    6.60    3.90
   0 -17 -12   64.29   10.50
   0 -17  12   66.09   11.30
   0  17 -12   76.29   10.90
   0  17  12   59.79    8.10
  -1 -17 -12   12.00    4.90
   1 -17  12   11.10    6.80
   1  17  12    2.90    3.50
  -1  17 -12   10.00    6.60
  -7   0  13   83.39    7.70
  -7   0  13   79.59   11.30
   6   0 -13   -3.80    3.10
  -6   0  13    2.20    2.50
  -6   0  13   -3.70    2.50
   5   0 -13   11.50    2.90
  -5   0  13   12.50    3.50
  -5   0  13   11.70    2.40
   4   0 -13    1.60    1.50
  -4   0  13    1.50    1.20
  -4   0  13    2.40    2.10
  -3   0  13   92.09    7.90
  -2   0  13    0.20    1.60
  -1   0  13    6.80    3.10
   0   0  13    2.10    2.00
   0   0  13    2.30    1.20
   0   0 -13    1.30    1.00
   1   0  13    1.90    1.70
  -1   0 -13    1.10    1.60
  -1   0 -13    3.50    2.00
   1   0  13    1.00    1.80
   2   0  13   -1.10    2.30
   2   0  13   -1.20    1.80
  -2   0 -13    3.80    2.00
  -2   0 -13    3.20    2.30
  -3   0 -13  186.08   10.60
  -3   0 -13  170.58    9.20
   3   0  13  181.58   10.50
   4   0  13    1.20    3.00
  -4   0 -13   -0.40    2.70
   5   0  13  151.78   10.40
  -5   0 -13  164.48   12.10
   6   0  13    4.40    3.90
   7   0  13    9.80    5.20
  -7   0 -13    7.20    5.20
  -7  -1  13   -2.20    2.90
  -7  -1  13    3.60    3.60
  -7   1  13    1.50    3.40
  -7   1  13    4.60    3.80
  -6  -1  13    5.00    3.20
   6  -1 -13    6.30    3.50
  -6  -1  13    4.70    2.80
  -6   1  13    7.60    4.00
   6   1 -13   12.40    3.60
  -6   1  13   10.90    3.10
  -5  -1  13   -2.80    2.70
  -5  -1  13    1.20    1.70
   5  -1 -13    0.80    2.40
  -5   1  13   -4.60    1.90
   5   1 -13    2.10    2.40
  -5   1  13    0.10    1.60
  -4  -1  13    0.00    1.70
  -4  -1  13    2.30    1.80
  -4   1  13    4.50    2.70
  -4   1  13    3.60    1.30
  -3  -1  13   34.90    5.60
  -3   1  13   35.60    5.60
  -2  -1  13   31.20    5.50
  -2   1  13   43.60    6.80
  -1  -1  13  124.99    8.70
  -1   1  13  115.39    8.00
   0  -1 -13  138.29    8.30
   0  -1 -13  136.09    4.90
   0  -1  13  129.69    8.60
   0   1 -13  135.09    5.00
   0   1  13  126.69    7.30
   0   1  13  130.39    8.40
  -1  -1 -13   90.69    6.50
   1  -1  13   90.49    7.20
   1  -1  13   84.99    5.30
  -1  -1 -13   95.69    5.60
   1   1  13   92.99    5.50
  -1   1 -13   93.69    5.60
   1   1  13   87.79    6.80
  -2  -1 -13   64.49    5.70
   2  -1  13   64.19    6.50
   2  -1  13   72.39    6.10
  -2  -1 -13   72.19    5.90
   2   1  13   63.39    5.90
   2   1  13   65.89    6.70
  -2   1 -13   74.39    6.00
  -3  -1 -13   53.39    7.00
   3  -1  13   63.19    6.80
  -3  -1 -13   41.60    5.40
  -3   1 -13   47.60    6.60
   3   1  13   40.20    5.80
  -4  -1 -13   33.40    6.40
   4  -1  13   27.40    6.50
  -4  -1 -13   19.30    4.00
  -4   1 -13   24.00    5.60
   4   1  13   33.80    5.80
  -5  -1 -13   64.79    6.60
   5  -1  13   69.49    8.90
  -5  -1 -13   62.69    9.10
  -5   1 -13   63.39    9.50
   5   1  13   61.09    7.50
   6  -1  13    3.20    4.10
   6   1  13   -1.60    3.90
   7  -1  13   32.10    7.90
  -7  -1 -13   25.60    6.60
   7   1  13   28.70    6.10
  -7   1 -13   22.10    6.30
  -7  -2  13   23.90    4.80
  -7  -2  13   27.60    6.60
  -7   2  13   34.30    6.00
  -7   2  13   20.70    5.40
   6  -2 -13   49.20    6.00
  -6  -2  13   45.60    7.30
  -6  -2  13   48.10    5.80
  -6   2  13   33.80    7.20
   6   2 -13   37.00    5.50
  -6   2  13   43.70    5.80
   5  -2 -13   23.80    3.60
  -5  -2  13   26.00    3.90
  -5  -2  13   17.40    4.20
   5   2 -13   21.30    3.60
  -5   2  13   21.00    3.50
  -5   2  13   19.30    4.40
  -4  -2  13   33.50    6.50
  -4  -2  13   40.40    3.20
  -4   2  13   23.40    5.60
   4   2 -13   37.10    3.00
  -4   2  13   39.90    3.30
  -3  -2  13  157.38   10.70
  -3   2  13  159.68   10.60
  -2  -2  13  121.49    9.00
  -2   2  13  127.89    8.90
  -1   2  13   72.19    6.70
   0  -2 -13  193.28    6.90
   0  -2 -13  182.28    9.30
   0  -2  13  180.08   10.50
   0   2 -13  185.68    6.70
   0   2  13  178.48    6.10
   0   2  13  190.88    9.90
   0   2 -13  187.88    8.00
  -1  -2 -13   39.60    5.30
   1  -2  13   39.40    4.10
   1  -2  13   51.89    7.00
  -1  -2 -13   41.30    4.00
  -1   2 -13   37.10    3.90
   1   2  13   44.30    5.70
   1   2  13   40.20    4.00
  -2  -2 -13  308.77   12.30
   2  -2  13  351.46   15.10
  -2  -2 -13  332.77   12.00
   2  -2  13  309.77   12.30
   2   2  13  334.27   12.90
  -2   2 -13  310.37   12.40
   2   2  13  314.07   12.40
  -3  -2 -13   79.59    7.30
  -3   2 -13   74.09    7.90
   3   2  13   76.79    6.40
  -4  -2 -13   -0.40    2.70
   4  -2  13    9.20    3.80
   4   2  13    3.50    2.70
  -4   2 -13    0.40    2.90
   5  -2  13   31.00    6.60
  -5  -2 -13   47.30    8.00
  -5   2 -13   37.70    7.30
   5   2  13   42.10    5.60
  -6  -2 -13   41.20    8.40
   6  -2  13   56.09    9.10
  -6   2 -13   67.69   11.70
   6   2  13   54.49    6.60
  -7  -2 -13   23.70    6.60
   7  -2  13   30.40    6.40
   7   2  13   20.70    5.20
  -7   2 -13   19.30    6.70
  -7  -3  13   -0.80    3.80
  -7  -3  13   -0.70    3.60
  -7   3  13    1.10    3.70
  -7   3  13    0.90    3.80
   6  -3 -13   41.80    6.20
  -6  -3  13   36.10    5.10
  -6  -3  13   31.30    6.10
  -6   3  13   38.40    5.40
   6   3 -13   35.30    5.60
  -6   3  13   34.30    6.10
  -5  -3  13    1.30    2.20
  -5  -3  13    0.40    2.60
  -5   3  13   -2.10    2.20
   5   3 -13    4.80    3.00
  -5   3  13    0.00    1.60
  -4  -3  13   89.69    8.50
  -4  -3  13   82.69    4.90
  -4   3  13   76.39    4.60
  -4   3  13   89.29    4.50
  -4   3  13   82.09   10.40
   4   3 -13   81.09    4.60
  -3  -3  13   90.19    8.20
  -3   3  13   83.39    2.50
  -3   3  13   74.29    7.60
   3   3 -13   86.69    3.40
  -3   3  13   82.39    2.50
  -2  -3  13  399.96   16.60
  -2   3  13  433.06   16.60
  -1  -3  13    3.70    2.30
  -1   3  13    2.70    0.80
   1   3 -13    2.40    1.00
  -1   3  13    1.60    2.00
  -1   3  13    2.30    0.80
   1   3 -13    0.80    1.00
   0  -3 -13  120.79    7.60
   0  -3 -13  120.99    5.30
   0   3  13  115.09    5.10
   0   3  13  115.19    7.70
   0   3 -13  109.39    5.20
   0   3 -13  106.69    5.50
  -1  -3 -13   19.80    3.70
   1  -3  13   23.30    3.70
  -1  -3 -13   18.90    3.30
  -1   3 -13   21.50    3.60
   1   3  13   16.10    3.40
   1   3  13   20.10    3.50
  -2  -3 -13    3.80    2.30
   2  -3  13    6.30    3.10
  -2  -3 -13    0.10    2.00
   2  -3  13   -0.90    2.30
   2   3  13   -0.80    2.00
   2   3  13    2.30    1.90
  -2   3 -13    0.60    1.90
   3  -3  13    7.90    3.50
  -3  -3 -13    3.90    2.20
  -3   3 -13    7.50    3.70
   3   3  13    3.10    2.40
  -4  -3 -13  173.38   11.70
  -4  -3 -13  177.98    8.10
   4  -3  13  193.08   12.70
  -4   3 -13  180.08   11.90
   4   3  13  188.98    9.20
   5  -3  13    6.50    4.90
  -5  -3 -13    2.70    2.90
  -5  -3 -13    5.30    2.70
  -5   3 -13   -4.90    2.60
   5   3  13    3.00    2.60
  -6  -3 -13   23.10    5.90
   6  -3  13   16.10    5.70
  -6   3 -13   26.00    6.30
   6   3  13   23.40    3.70
  -7  -4  13   28.90    5.70
  -7  -4  13   42.30    8.30
  -7   4  13   38.30    7.90
  -7   4  13   38.90    6.10
  -6  -4  13   71.39    7.00
  -6  -4  13   93.39    9.50
  -6   4  13   75.69    6.60
  -6   4  13   86.49   11.70
  -5  -4  13    3.20    2.90
  -5  -4  13    1.20    2.30
   5   4 -13   -0.40    3.00
  -5   4  13    1.40    2.90
  -5   4  13    2.10    2.30
  -5   4  13   -2.70    2.60
  -4  -4  13   49.30    4.20
  -4  -4  13   47.10    7.90
  -4   4  13   37.60    4.00
   4   4 -13   47.20    4.10
  -4   4  13   38.60    3.50
  -4   4  13   33.20    5.90
  -3  -4  13  164.48    6.50
  -3  -4  13  183.98   11.60
  -3   4  13  180.48   11.20
   3   4 -13  173.98    6.20
  -3   4  13  169.78    5.50
  -2  -4  13   65.39    7.00
  -2   4  13   73.29    3.00
   2   4 -13   74.69    3.50
  -2   4  13   65.39    6.80
  -2   4  13   73.29    3.00
   2   4 -13   66.59    5.20
  -1  -4  13  470.45   17.90
  -1   4  13  475.55   10.40
   1   4 -13  480.15   11.20
  -1   4  13  485.15   16.80
   0  -4 -13  217.78    8.10
   0  -4  13  234.18   12.40
   0  -4 -13  203.18   10.10
   0   4 -13  221.08    8.20
   0   4 -13  223.58    8.70
   0   4  13  245.18   11.20
   0   4  13  224.08    7.90
  -1  -4 -13    7.80    2.00
   1  -4  13    4.40    2.90
   1  -4  13    5.30    2.30
  -1  -4 -13    9.80    2.70
   1   4  13    3.00    2.20
   1   4  13    3.10    2.40
  -1   4 -13    7.10    2.40
  -2  -4 -13  291.87   12.30
   2  -4  13  273.67   11.90
   2  -4  13  295.97   14.90
  -2  -4 -13  262.27   10.00
   2   4  13  272.47   11.80
   2   4  13  261.67   10.50
  -2   4 -13  273.17   12.10
  -3  -4 -13   22.70    3.60
   3  -4  13   21.00    5.50
  -3  -4 -13   33.70    5.80
   3   4  13   26.10    3.90
  -3   4 -13   31.20    6.00
  -4  -4 -13   29.50    6.30
   4  -4  13   38.90    7.20
  -4  -4 -13   31.60    3.80
  -4   4 -13   22.90    4.90
   4   4  13   24.30    3.90
  -5  -4 -13   59.29    4.60
   5  -4  13   67.39   10.40
  -5  -4 -13   87.19   11.00
   5   4  13   70.79    4.90
  -5   4 -13   76.79   10.60
  -6  -4 -13  111.89   11.70
   6  -4  13  119.59   12.10
  -6   4 -13  129.29   12.40
  -7  -5  13    3.70    3.90
  -7  -5  13    5.00    4.50
  -7   5  13    3.80    4.20
  -7   5  13    2.90    4.20
  -6  -5  13   18.30    5.30
  -6   5  13   17.20    4.30
  -6   5  13   13.90    5.10
  -5  -5  13  271.97   14.90
  -5  -5  13  258.27   11.30
  -5   5  13  254.07   15.50
  -5   5  13  274.37   11.00
   5   5 -13  257.57   11.40
  -4  -5  13    2.30    3.30
  -4  -5  13    8.10    2.60
  -4   5  13    6.80    3.40
   4   5 -13    6.20    2.60
  -4   5  13    3.40    2.40
  -4   5  13    7.80    2.50
  -3  -5  13   11.30    2.60
  -3  -5  13    5.90    3.20
   3   5 -13    7.50    2.10
  -3   5  13    9.00    2.20
  -3   5  13   10.60    3.50
  -3   5  13    8.70    2.10
  -2  -5  13   14.50    4.20
   2   5 -13   14.90    2.50
  -2   5  13   12.50    2.20
  -2   5  13   14.40    4.20
  -2   5  13   14.50    2.20
   2   5 -13   10.80    2.20
  -1  -5  13  109.09    8.80
   1   5 -13  100.59    5.20
  -1   5  13   98.59    5.00
  -1   5  13   92.59    4.80
   1   5 -13  100.69    5.30
  -1   5  13   90.89    7.20
   0  -5  13   39.60    6.70
   0  -5 -13   36.80    3.60
   0  -5 -13   43.10    5.60
   0   5 -13   35.10    3.70
   0   5  13   42.70    5.50
   0   5  13   36.10    3.70
   0   5 -13   45.70    5.10
  -1  -5 -13  259.47   10.90
   1  -5  13  253.57   12.10
   1  -5  13  259.27   13.80
  -1   5 -13  273.37   11.00
  -1   5 -13  253.77   13.40
   1   5  13  295.17   11.30
   1   5  13  253.87   10.60
   2  -5  13   21.40    5.00
  -2  -5 -13   27.20    3.80
  -2  -5 -13   25.60    4.50
   2   5  13   21.40    4.00
   2   5  13   26.10    4.00
  -2   5 -13   27.10    5.00
  -3  -5 -13    2.60    3.10
  -3  -5 -13    0.20    1.90
   3  -5  13    2.90    3.70
  -3   5 -13    3.00    3.00
   3   5  13    2.50    2.00
   4  -5  13   62.39    9.40
  -4  -5 -13   75.99   10.00
  -4  -5 -13   71.19    4.20
  -4   5 -13   76.59    9.80
   4   5  13   69.49    4.40
   5  -5  13   19.40    5.90
  -5  -5 -13   29.80    6.40
  -5   5 -13   26.80    5.70
   6  -5  13    0.30    4.60
  -6  -5 -13    1.80    5.70
  -6   5 -13    0.90    3.80
  -7  -6  13   95.59    9.10
  -7  -6  13  100.09   10.20
  -7   6  13   99.99    9.10
  -7   6  13   76.49   11.70
  -6  -6  13    2.10    3.20
  -6  -6  13    4.00    3.40
  -6   6  13    4.70    3.30
  -6   6  13    1.50    3.20
  -5  -6  13    2.60    2.70
  -5  -6  13   10.30    4.40
  -5   6  13    6.10    3.40
  -5   6  13    7.50    4.10
  -5   6  13    4.30    2.90
   5   6 -13    7.40    3.70
  -4  -6  13   15.40    3.70
  -4  -6  13   10.70    3.90
  -4   6  13   12.70    2.90
  -4   6  13   17.20    5.40
   4   6 -13   10.10    3.60
  -4   6  13   13.90    3.60
  -3  -6  13   43.90    7.10
  -3  -6  13   45.90    4.60
  -3   6  13   47.60    4.20
  -3   6  13   39.50    6.20
  -3   6  13   43.00    4.00
   3   6 -13   41.00    4.10
  -2  -6  13    2.10    2.90
  -2   6  13    0.30    1.70
  -2   6  13    3.00    2.50
   2   6 -13    1.10    1.90
  -2   6  13   -1.20    1.40
   2   6 -13    0.00    1.40
  -1  -6  13  314.67   15.20
  -1   6  13  302.37   10.10
   1   6 -13  270.77   10.00
   1   6 -13  306.57   10.30
  -1   6  13  305.07   13.70
  -1   6  13  297.87    9.90
   0  -6  13   -3.10    1.80
   0  -6 -13    2.00    1.70
   0   6  13   -1.60    1.50
   0   6  13   -0.70    3.10
   0   6 -13    1.00    1.60
   0   6 -13   -0.60    2.30
   0   6  13    1.30    1.80
   1  -6  13    7.50    4.00
  -1  -6 -13   13.80    3.30
  -1   6 -13    4.30    3.00
   1   6  13    8.30    2.70
   1   6  13    8.50    3.00
  -1   6 -13    8.30    3.10
  -2  -6 -13    0.00    2.20
   2  -6  13    0.20    2.20
  -2   6 -13    0.60    1.90
   2   6  13    2.90    2.10
  -3  -6 -13    7.90    4.00
   3  -6  13    7.20    4.30
   3   6  13    7.80    2.50
  -3   6 -13   10.40    3.90
   3   6  13    7.80    2.20
  -4  -6 -13    8.10    3.70
   4  -6  13    3.40    4.10
  -4   6 -13    0.70    2.80
  -5  -6 -13   93.79    9.70
   5  -6  13   91.29   12.20
  -5   6 -13   96.69   10.10
  -6  -6 -13    6.10    5.00
   6  -6  13   12.80    5.90
  -6   6 -13   -2.20    4.10
  -7  -7  13    1.70    4.50
  -7  -7  13   -1.00    4.10
  -7   7  13    2.50    4.20
  -7   7  13    3.40    4.20
  -6  -7  13   12.90    5.20
  -6  -7  13   10.10    4.00
  -6   7  13   10.30    4.20
  -6   7  13   14.60    5.20
  -5  -7  13   95.39    9.30
  -5  -7  13   68.19    7.20
  -5   7  13   93.59    9.30
  -5   7  13  103.69    7.70
  -5   7  13   90.89   12.40
  -4  -7  13   18.70    5.30
  -4  -7  13   15.30    4.20
  -4   7  13    7.90    3.80
  -4   7  13   16.70    3.60
   4   7 -13   20.10    4.70
  -3  -7  13    0.40    2.70
  -3  -7  13    0.70    2.30
   3   7 -13   -0.90    2.50
  -3   7  13    2.40    2.60
  -3   7  13    4.50    2.20
  -3   7  13   -0.40    2.70
  -2  -7  13  263.27   14.10
   2   7 -13  307.47   10.80
  -2   7  13  279.57   10.20
   2   7 -13  280.37   10.50
  -2   7  13  269.17   10.00
  -2   7  13  269.77   13.70
  -1  -7  13    0.20    2.70
  -1   7  13    3.80    2.00
   1   7 -13    1.40    2.30
   1   7 -13    3.90    2.00
   0  -7 -13   38.70    5.30
   0  -7  13   28.40    5.70
   0   7 -13   40.60    5.20
   0   7  13   37.90    5.60
   0   7  13   32.70    4.60
   0   7 -13   42.00    6.00
   0   7  13   29.20    5.80
  -1  -7 -13   98.09    7.40
   1  -7  13   90.99    9.30
  -1   7 -13   89.49    7.10
  -1   7 -13   66.59    6.60
   1   7  13   92.39    6.30
   1   7  13   87.79    6.90
   2  -7  13    2.30    3.00
   2   7  13   -2.30    1.50
  -2   7 -13    1.10    2.30
   2   7  13    1.20    2.50
   3  -7  13   94.39   10.00
  -3  -7 -13   88.79    8.40
  -3   7 -13   85.09    8.30
   3   7  13   78.09    4.70
   3   7  13   78.69    5.00
   4  -7  13   32.10    7.30
  -4  -7 -13   53.19    8.70
  -4   7 -13   38.50    7.20
  -5  -7 -13   32.50    7.10
   5  -7  13   14.10    6.10
  -5   7 -13   29.70    7.10
  -6  -7 -13    7.90    5.50
   6  -7  13    4.50    5.00
  -6   7 -13    1.70    3.80
  -7  -8  13   -6.10    4.20
  -7  -8  13   -2.00    4.70
  -7   8  13   -3.20    4.20
  -7   8  13   -1.90    4.40
  -6  -8  13   43.20    7.80
  -6  -8  13   43.00    6.90
  -6   8  13   61.69   10.40
  -6   8  13   49.90    6.90
  -5  -8  13   12.70    4.00
  -5  -8  13   16.20    5.30
  -5   8  13   24.50    5.90
  -5   8  13   14.10    5.60
  -4  -8  13  388.86   18.00
  -4  -8  13  371.76   14.70
  -4   8  13  337.87   13.80
  -4   8  13  365.56   18.10
   4   8 -13  343.67   14.20
  -4   8  13  349.87   13.50
  -3  -8  13   90.99    7.50
  -3  -8  13   83.49    8.20
  -3   8  13   89.69    6.40
   3   8 -13   81.99    6.80
  -3   8  13   99.09    9.10
  -2  -8  13    5.10    3.60
  -2   8  13    6.90    2.90
   2   8 -13    8.40    2.60
   2   8 -13    8.60    3.10
  -2   8  13    5.60    3.20
  -2   8  13    7.40    2.80
  -1  -8  13    0.80    2.10
   1   8 -13    1.10    2.70
  -1   8  13    0.10    2.50
   1   8 -13    1.40    1.80
  -1   8  13    0.60    1.90
   0  -8 -13   16.00    3.50
   0  -8  13   21.70    5.50
   0   8  13   16.20    3.90
   0   8 -13   12.60    2.90
   0   8  13   14.20    4.00
   0   8  13   16.80    5.30
   0   8 -13   23.40    4.90
   1  -8  13   -2.90    2.20
  -1  -8 -13    1.20    2.50
  -1   8 -13    2.50    2.10
   1   8  13    2.40    2.20
  -2  -8 -13  159.68   10.70
   2  -8  13  157.78   12.00
   2   8  13  155.38    7.10
   2   8  13  157.58    8.20
  -2   8 -13  157.28   10.50
   3  -8  13   33.60    7.50
  -3  -8 -13   39.40    7.00
  -3   8 -13   43.80    7.30
   3   8  13   44.00    2.70
   3   8  13   40.60    2.70
  -4  -8 -13    9.50    4.20
   4  -8  13    4.90    3.80
  -4   8 -13    1.60    3.00
   5  -8  13    1.60    4.60
  -5  -8 -13    2.90    5.60
   6  -8  13   10.40    6.00
  -6  -8 -13   -2.40    4.90
  -6   8 -13    2.30    4.80
  -6  -9  13    5.90    4.30
  -6  -9  13   22.60    6.00
  -6   9  13    8.40    4.00
  -6   9  13   13.40    4.40
  -5  -9  13   21.00    5.30
  -5  -9  13   14.20    4.90
  -5   9  13   23.90    6.30
  -5   9  13   17.50    4.50
  -4  -9  13   16.80    5.50
  -4   9  13   16.60    5.00
  -4   9  13   10.80    3.80
  -3  -9  13   48.60    6.60
  -3  -9  13   50.79    8.20
  -3   9  13   42.50    5.90
  -3   9  13   33.60    6.30
  -3   9  13   38.00    5.50
  -2  -9  13   96.69    9.90
   2   9 -13  101.09    7.30
  -2   9  13   96.09    7.40
  -2   9  13   95.59    7.10
   2   9 -13   82.49    7.50
  -2   9  13  104.79    9.10
  -1  -9  13   10.10    3.70
  -1   9  13    6.50    3.30
  -1   9  13    9.30    3.90
   1   9 -13    8.50    3.00
  -1   9  13    5.00    2.70
   1   9 -13    5.90    3.50
   0  -9 -13   15.00    3.80
   0  -9  13   10.10    4.10
   0   9  13   15.70    3.60
   0   9 -13   17.40    4.30
   1  -9  13   26.60    6.10
   1   9  13   32.20    5.90
   1   9  13   35.80    4.90
  -1   9 -13   39.20    6.40
   2  -9  13   82.09   11.20
  -2  -9 -13  108.99    9.30
  -2   9 -13  102.69    8.80
   2   9  13  104.79    5.90
   2   9  13  103.29    6.40
  -3  -9 -13   36.30    7.00
   3  -9  13   37.20    7.40
  -3   9 -13   33.70    6.30
  -4  -9 -13   74.89   10.60
   4  -9  13   91.39   11.70
  -4   9 -13   89.19   11.30
  -5  -9 -13    1.30    4.40
   5  -9  13   15.40    6.00
  -5   9 -13    1.50    4.10
  -6 -10  13   55.09    8.10
  -6 -10  13   53.39   13.60
  -6  10  13   62.19    8.10
  -6  10  13   59.79   10.50
  -5 -10  13    2.20    3.90
  -5 -10  13   -1.20    3.50
  -5  10  13    1.30    3.60
  -5  10  13   -5.60    2.90
  -4 -10  13   48.80    8.10
  -4 -10  13   37.50    6.60
  -4  10  13   40.20    6.50
  -4  10  13   32.20    6.60
  -3 -10  13   83.89   11.10
  -3 -10  13   91.79    9.50
  -3  10  13   71.99    7.00
  -3  10  13   82.29    8.50
  -2 -10  13    7.10    4.10
  -2  10  13    5.10    3.10
  -2  10  13    7.60    3.40
   2  10 -13    8.70    3.30
  -1 -10  13  142.39   11.70
  -1  10  13  123.79    8.80
  -1  10  13  151.68   10.00
   1  10 -13  128.19    8.80
   0 -10  13   20.40    6.10
   0  10  13   15.30    4.20
   0  10 -13   14.80    4.20
   1 -10  13    6.50    3.80
  -1 -10 -13   -0.50    2.50
  -1  10 -13   -1.60    2.40
   1  10  13    7.00    2.30
   1  10  13    1.80    3.10
   2 -10  13  134.19   12.30
  -2 -10 -13  151.08   11.20
   2  10  13  136.29    6.50
  -2  10 -13  122.89   10.10
   2  10  13  145.69    7.30
  -3 -10 -13   70.79    9.60
   3 -10  13   81.09   11.60
  -3  10 -13   68.99   10.00
   4 -10  13   19.90    7.30
  -4 -10 -13   11.50    4.30
  -4  10 -13   17.00    5.10
   5 -10  13   10.90    6.40
  -5 -10 -13   14.10    5.40
  -5  10 -13   14.00    5.60
  -6 -11  13    2.10    4.50
  -6 -11  13    3.40    4.40
  -6  11  13   -1.30    3.80
  -6  11  13    1.50    5.20
  -5 -11  13   66.19    9.30
  -5 -11  13   95.79   12.10
  -5  11  13   57.59    9.50
  -5  11  13   65.99    8.60
  -4 -11  13    2.00    3.90
  -4 -11  13    3.60    4.90
  -4  11  13   -1.00    3.00
  -4  11  13    2.00    3.30
  -3 -11  13   34.90    7.00
  -3 -11  13   27.20    5.90
  -3  11  13   18.20    5.50
  -3  11  13   30.20    5.50
  -2 -11  13    8.60    4.10
   2  11 -13    8.10    3.20
  -2  11  13    5.60    3.20
  -2  11  13    4.20    3.40
  -1 -11  13   27.40    6.70
  -1  11  13   33.40    6.30
  -1  11  13   42.60    6.80
   1  11 -13   35.20    5.90
   0 -11 -13    8.70    3.60
   0 -11  13    9.40    4.20
   0  11 -13    5.70    3.10
   1 -11  13  192.58   14.70
  -1 -11 -13  210.68   13.20
  -1  11 -13  204.58   12.70
   1  11  13  209.28    9.60
   1  11  13  181.08   10.50
  -2 -11 -13   -5.70    3.10
   2 -11  13    2.60    3.40
   2  11  13    0.30    1.80
   2  11  13    1.40    2.50
  -2  11 -13    8.00    3.90
  -3 -11 -13   39.00    7.60
  -3  11 -13   55.49    8.50
   4 -11  13   30.00    6.80
  -4  11 -13   31.60    7.20
  -5 -11 -13    3.10    5.00
   5 -11  13   -2.30    5.50
  -5  11 -13    6.40    4.80
  -5 -12  13   12.40    4.90
  -5 -12  13   20.70    9.00
  -5  12  13   14.60    5.20
  -5  12  13    9.90    4.80
  -4 -12  13    0.80    3.40
  -4 -12  13    5.60    4.50
  -4  12  13    5.30    4.00
  -4  12  13    3.50    3.80
  -3 -12  13  146.69   12.20
  -3 -12  13  137.89   11.30
  -3  12  13  155.58   10.80
   3  12 -13  161.58   11.00
  -3  12  13  147.29   12.00
  -2 -12  13    6.00    4.10
  -2  12  13    8.70    4.10
  -2  12  13    6.70    3.20
   2  12 -13    6.20    3.50
  -1 -12  13   47.00    8.90
   1  12 -13   70.19    7.40
  -1  12  13   50.39    7.90
  -1  12  13   66.69    8.60
   0 -12  13   14.10    4.90
   0 -12 -13   18.20    4.80
   0  12  13   17.30    4.10
   0  12 -13   15.10    4.50
   1 -12  13    1.00    3.70
  -1 -12 -13   -1.90    3.00
  -1  12 -13    1.40    3.00
   1  12  13   -0.60    2.20
   1  12  13    4.20    3.90
  -2 -12 -13   61.79    9.40
  -2  12 -13   66.19    9.40
   2  12  13   49.20    5.00
   2  12  13   46.90    4.20
   3 -12  13   54.99    9.40
  -3 -12 -13   60.29   10.00
  -3  12 -13   62.69   10.10
  -4 -12 -13   -0.90    4.40
   4 -12  13    2.20    4.30
  -4  12 -13    2.80    4.50
  -5 -13  13    4.60    4.80
  -5 -13  13    7.60    4.50
  -5  13  13   16.00    5.60
  -5  13  13    6.60    4.50
  -4 -13  13    5.30    3.90
  -4 -13  13   -0.40    4.70
  -4  13  13   11.60    5.50
  -4  13  13    3.60    3.80
  -3 -13  13   33.50    7.00
   3  13 -13   25.90    6.20
  -3  13  13   32.10    6.40
  -3  13  13   37.30    6.90
  -2 -13  13   21.70    6.70
  -2  13  13   36.80    7.00
  -2  13  13   24.40    5.50
   2  13 -13   33.40    6.50
  -1 -13  13   -1.10    3.30
  -1  13  13    0.20    2.60
  -1  13  13   -0.10    2.90
   1  13 -13   -3.40    2.60
   0 -13  13   22.00    6.00
   0 -13 -13    9.40    4.80
   0  13  13   12.90    3.70
   0  13 -13   16.30    4.50
   1 -13  13   18.20   10.60
  -1 -13 -13   16.90    5.70
   1  13  13   22.70    4.90
   1  13  13   24.80    4.30
  -1  13 -13   28.80    6.60
  -2 -13 -13    4.10    4.60
   2 -13  13    6.20    5.00
   2  13  13    1.20    2.60
   2  13  13    1.60    2.00
  -2  13 -13    3.30    4.00
   3 -13  13   31.80    7.70
  -3  13 -13   25.30    7.60
   4 -13  13   23.40    7.40
  -4 -13 -13   33.60    8.10
  -4  13 -13   15.60    6.00
  -4 -14  13   31.70    6.80
  -4 -14  13   14.20    5.60
  -4  14  13   30.20    7.80
  -4  14  13   20.60    5.40
  -3 -14  13    2.60    3.90
  -3  14  13    2.50    3.70
   3  14 -13    6.20    4.30
  -3  14  13    5.30    3.90
  -2  14  13   19.50    5.50
  -2  14  13   17.90    5.90
   2  14 -13   18.90    6.20
  -1 -14  13    4.00    3.90
  -1  14  13   -0.40    2.50
  -1  14  13    2.20    3.80
   1  14 -13   -2.90    2.90
   0 -14 -13   42.60    7.90
   0 -14  13   34.80    7.20
   0  14  13   37.30    6.10
   0  14 -13   37.90    7.00
  -1 -14 -13    1.90    4.10
   1 -14  13    1.60    4.30
  -1  14 -13   -0.10    3.70
   1  14  13    1.90    3.00
   2 -14  13   61.69   11.40
  -2 -14 -13   82.09   11.10
   2  14  13   79.09    4.70
  -2  14 -13   76.39   12.90
   3 -14  13    0.10    4.40
  -3 -14 -13   -3.40    3.90
  -3  14 -13    1.10    4.80
  -3 -15  13    6.40    6.00
  -3  15  13    4.00    4.70
   3  15 -13   -2.30    3.70
  -3  15  13    0.90    4.20
  -2 -15  13   47.40    8.90
   2  15 -13   58.29    8.00
  -2  15  13   28.50    6.70
  -2  15  13   47.10    8.40
  -1 -15  13    3.30    3.80
   1  15 -13   -3.10    3.50
  -1  15  13    2.00    3.80
  -1  15  13    3.50    3.30
   0 -15 -13   17.50    6.30
   0 -15  13   20.50    6.50
   0  15  13   20.00    4.80
   0  15 -13   19.20    5.90
   1 -15  13   -9.50    5.70
  -1 -15 -13    9.80    5.20
   1  15  13   10.50    3.70
   2 -15  13    8.80    5.80
  -2 -15 -13  -10.00    3.80
  -2  15 -13    3.10    4.10
   2  15  13    1.30    3.10
  -3 -15 -13    3.80    5.90
  -3  15 -13   -1.00    4.20
  -2 -16  13    0.10    4.60
   2  16 -13    2.00    5.10
  -2  16  13   -2.70    5.10
  -2  16  13    0.90    4.30
  -1 -16  13   82.19   11.80
  -1  16  13   93.89    9.50
  -1  16  13  100.39   14.70
   1  16 -13   62.29   14.30
   0 -16  13   -2.60    4.40
   0 -16 -13    5.80   10.10
   0  16  13    3.40    3.40
   0  16 -13    2.10    3.80
  -1 -16 -13    4.50    5.40
   1 -16  13    0.30    5.10
  -1  16 -13   -4.40    4.20
  -7   0  14   -2.30    3.40
   6   0 -14   41.50    6.20
  -6   0  14   39.40    4.80
  -6   0  14   52.29    8.60
   5   0 -14   -1.40    2.00
  -5   0  14   -1.00    1.80
  -5   0  14   -0.50    1.70
  -4   0  14  457.25   19.30
  -3   0  14   -0.70    1.80
  -2   0  14   16.70    4.80
  -1   0  14    1.10    1.80
   0   0  14  161.28    5.60
   0   0  14  196.48   10.90
   0   0 -14  177.68    5.50
  -1   0 -14   -3.00    1.00
   1   0  14   -0.40    1.50
   1   0  14   -0.60    2.10
   2   0  14  162.68    9.90
   2   0  14  157.18    8.60
  -2   0 -14  159.08    8.80
   3   0  14    0.50    2.40
  -4   0 -14   -1.90    2.10
   4   0  14   -1.50    3.00
  -5   0 -14   -0.70    2.80
   5   0  14    0.80    3.50
  -6   0 -14   -0.30    3.70
   6   0  14    1.50    4.10
  -7  -1  14    9.90    4.10
  -7  -1  14    5.80    4.40
  -7   1  14   11.30    6.30
  -7   1  14    0.00    4.00
  -6  -1  14    1.60    3.20
  -6  -1  14    7.60    2.80
  -6   1  14   14.10    3.20
  -6   1  14    3.00    3.40
  -5  -1  14    1.20    1.70
   5  -1 -14    2.00    2.10
  -5  -1  14    1.40    2.70
   5   1 -14    1.60    2.10
  -5   1  14    2.90    3.20
  -5   1  14    4.50    2.00
  -4  -1  14   63.19    1.90
  -4  -1  14   53.89    7.90
  -4   1  14   61.89    8.50
  -3  -1  14    4.50    2.40
  -3   1  14    6.20    2.70
  -2  -1  14  618.64   21.50
  -2   1  14  645.34   21.50
  -1  -1  14  130.09    9.20
  -1   1  14  138.09    9.40
   0  -1  14   91.09   12.40
   0  -1 -14   78.69    3.70
   0   1  14   82.59    6.90
   0   1 -14   78.99    3.80
   0   1  14   68.79    5.40
   1  -1  14   87.39    7.40
   1  -1  14   79.39    5.20
  -1  -1 -14   76.39    5.00
  -1   1 -14   89.99    5.40
   1   1  14   83.29    5.40
   1   1  14   85.09    7.10
  -2  -1 -14   33.10    4.90
  -2  -1 -14   44.90    5.90
   2  -1  14   32.00    5.70
   2  -1  14   40.60    5.40
  -2   1 -14   46.50    5.70
   2   1  14   26.30    4.50
   2   1  14   42.20    6.20
  -3  -1 -14    0.60    2.70
   3   1  14    6.00    2.90
  -4  -1 -14  117.09    9.60
  -4  -1 -14   94.69    8.60
   4  -1  14  105.29    9.70
  -4   1 -14  122.59    9.70
   4   1  14   96.79    8.20
  -5  -1 -14    7.80    3.90
   5  -1  14   18.80    5.30
  -5   1 -14   21.30    5.30
   5   1  14   15.10    4.50
   6  -1  14    1.00    4.70
  -6  -1 -14    5.80    4.70
  -6   1 -14   12.40    4.40
   6   1  14    4.30    3.90
  -7  -2  14   37.80    5.60
  -7  -2  14   33.20    6.70
  -7   2  14   32.50    5.20
  -7   2  14   51.29    8.80
  -6  -2  14   26.70    7.10
  -6  -2  14   39.60    5.20
   6   2 -14   28.00    5.30
  -6   2  14   35.20    4.70
  -6   2  14   47.20   10.40
  -5  -2  14   16.00    2.90
  -5  -2  14   14.50    4.90
  -5   2  14   19.60    3.10
   5   2 -14   12.30    3.00
  -5   2  14   19.30    4.90
  -4  -2  14   73.19    3.40
  -4  -2  14   81.89    8.40
  -4   2  14   65.69    2.40
   4   2 -14   68.39    3.10
  -4   2  14   69.69    2.60
  -4   2  14   58.89    8.30
  -3  -2  14  173.48   11.60
  -3   2  14  213.58   12.40
  -2  -2  14   42.80    7.10
  -2   2  14   24.10    5.00
  -1  -2  14  451.95   17.60
  -1   2  14  430.96   17.60
   0  -2  14    1.90    2.00
   0  -2 -14    1.80    1.30
   0   2 -14    2.70    1.60
   0   2  14    1.60    1.90
   0   2 -14    0.80    1.90
   0   2  14    2.80    1.40
  -1  -2 -14   13.00    3.40
   1  -2  14   16.70    4.30
  -1  -2 -14   12.50    2.80
   1  -2  14   14.10    2.90
  -1   2 -14   11.90    2.60
   1   2  14   11.00    2.70
   1   2  14   11.90    3.60
   2  -2  14   34.00    5.10
  -2  -2 -14   36.90    5.00
   2  -2  14   31.00    5.60
  -2  -2 -14   36.70    4.60
   2   2  14   41.80    5.80
  -2   2 -14   39.40    5.40
   2   2  14   48.30    5.10
   3  -2  14  262.17   13.90
  -3  -2 -14  260.47   10.70
  -3  -2 -14  277.27   15.60
  -3   2 -14  258.97   13.20
   3   2  14  244.98   11.80
  -4  -2 -14    5.00    3.20
   4  -2  14    3.40    3.70
  -4  -2 -14    0.60    3.10
   4   2  14    1.60    3.20
  -4   2 -14    4.40    3.40
   5  -2  14   24.40    5.80
  -5  -2 -14   20.10    4.70
  -5  -2 -14   15.10    4.70
  -5   2 -14   19.70    5.40
   5   2  14   26.70    4.90
   6  -2  14    3.10    5.10
  -6  -2 -14    7.50    5.70
   6   2  14    2.50    3.90
  -6   2 -14   10.00    5.60
  -7  -3  14   14.80    5.00
  -7  -3  14   18.00    4.60
  -7   3  14   12.70    5.30
  -7   3  14   13.20    4.50
   6  -3 -14   -0.60    4.00
  -6  -3  14   15.20    3.50
  -6  -3  14    9.90    4.60
   6   3 -14   12.60    4.50
  -6   3  14   11.90    3.30
  -6   3  14   11.10    5.20
  -5  -3  14  145.29   11.40
  -5  -3  14  136.99    6.90
  -5   3  14  150.88    7.50
  -5   3  14  139.09    6.60
   5   3 -14  139.69    7.10
  -5   3  14  155.38   11.90
  -4  -3  14   53.19    8.60
  -4   3  14   35.60    6.10
  -4   3  14   45.10    3.40
  -4   3  14   43.10    2.70
   4   3 -14   45.30    3.50
  -3  -3  14   79.99    8.10
  -3   3  14   76.89    7.80
  -2  -3  14   70.59    7.40
  -2   3  14   80.09    7.20
  -1  -3  14  163.38   10.60
  -1   3  14  150.08   11.30
   1   3 -14  151.78    4.00
   1   3 -14  150.18    4.00
   0  -3 -14    9.60    1.80
   0  -3  14    9.30    3.40
   0   3 -14    7.20    2.00
   0   3 -14   10.60    2.20
   0   3  14    7.20    2.10
   0   3  14    8.50    3.20
  -1  -3 -14  157.68    7.60
  -1  -3 -14  129.29    7.90
   1  -3  14  156.68   10.60
   1  -3  14  143.69    7.40
  -1   3 -14  148.39    7.50
   1   3  14  151.48    7.40
   1   3  14  159.38    9.00
  -2  -3 -14   47.90    6.20
   2  -3  14   40.20    6.90
  -2  -3 -14   38.90    5.20
   2  -3  14   42.30    5.80
  -2   3 -14   40.80    5.60
   2   3  14   31.90    4.60
   2   3  14   33.30    5.10
  -3  -3 -14    2.00    2.40
  -3  -3 -14   -1.60    4.10
   3  -3  14   -0.50    3.00
  -3   3 -14    2.00    2.50
   3   3  14    2.50    2.30
  -4  -3 -14   58.59    8.50
  -4  -3 -14   50.79    5.20
   4  -3  14   50.89    8.20
   4   3  14   50.09    6.00
  -4   3 -14   46.30    7.10
  -5  -3 -14   24.40    4.20
   5  -3  14   31.40    7.50
  -5  -3 -14   32.60    6.30
  -5   3 -14   13.40    4.80
   5   3  14   43.20    5.50
   6  -3  14   24.00    5.90
  -6  -3 -14   10.10    4.60
  -6   3 -14   15.30    5.20
   6   3  14   13.90    3.50
  -7  -4  14   21.40    6.50
  -7  -4  14   24.80    5.60
  -7   4  14   50.09   10.20
  -7   4  14   29.70    5.80
  -6  -4  14   40.00    5.60
  -6  -4  14   35.90    7.20
  -6   4  14   54.39    5.50
  -6   4  14   36.50    6.10
  -6   4  14   21.50    5.60
   6   4 -14   34.30    6.50
  -5  -4  14    9.30    2.90
  -5  -4  14   11.20    3.70
  -5   4  14    9.10    2.60
  -5   4  14    5.10    3.10
  -5   4  14    7.40    4.20
   5   4 -14    7.30    3.20
  -4  -4  14   64.59    8.20
  -4  -4  14   69.09    4.60
  -4   4  14   64.99    9.40
  -4   4  14   71.29    3.90
   4   4 -14   67.79    4.60
  -4   4  14   77.49    4.30
  -3  -4  14   20.00    5.30
  -3   4  14   14.30    1.50
   3   4 -14   11.90    1.80
   3   4 -14   16.50    2.00
  -3   4  14   18.30    4.80
  -3   4  14   13.20    1.30
  -2  -4  14   17.10    4.60
   2   4 -14   15.50    1.60
  -2   4  14   18.50    4.60
   2   4 -14   16.20    1.80
  -1  -4  14  150.68   10.40
  -1   4  14  150.38    4.80
   1   4 -14  147.19    5.40
  -1   4  14  137.99    9.20
  -1   4  14  146.29    4.80
   1   4 -14  148.39    5.90
   0  -4  14   86.09    8.00
   0  -4 -14   67.69    4.60
   0   4 -14   75.39    5.10
   0   4 -14   76.99    5.00
   0   4  14   60.69    4.30
   0   4  14   70.39    6.30
   1  -4  14   23.50    3.80
  -1  -4 -14   18.00    3.90
  -1  -4 -14   16.50    3.30
   1  -4  14   23.30    5.50
   1   4  14   23.50    4.30
  -1   4 -14   20.80    3.70
   1   4  14   17.50    3.40
   2  -4  14   16.20    4.80
  -2  -4 -14   15.40    3.80
  -2  -4 -14   17.30    4.00
   2  -4  14   14.60    3.20
  -2   4 -14   15.90    3.60
   2   4  14   17.80    3.40
   2   4  14   12.30    3.50
  -3  -4 -14   42.00    4.50
  -3  -4 -14   61.49    7.90
   3  -4  14   40.80    7.20
   3   4  14   45.30    5.60
  -3   4 -14   42.80    7.00
   4  -4  14    4.60    4.10
  -4  -4 -14    5.10    3.40
  -4  -4 -14    0.10    2.60
   4   4  14    4.40    2.60
  -4   4 -14   10.10    3.60
   5  -4  14   40.10    7.50
  -5  -4 -14   29.90    6.90
  -5  -4 -14   35.90    3.90
  -5   4 -14   38.80    7.20
   5   4  14   42.80    4.50
  -6  -4 -14    0.00    3.90
   6  -4  14   12.80    5.50
  -6   4 -14   -5.90    3.70
  -7  -5  14    0.90    4.70
  -7  -5  14    1.70    4.10
  -7   5  14    0.40    4.30
  -7   5  14    3.90    4.30
  -6  -5  14   15.00    4.20
  -6  -5  14   12.90    5.30
  -6   5  14   14.50    4.90
  -6   5  14   15.50    3.90
  -5  -5  14    5.10    3.60
  -5  -5  14    4.70    2.70
  -5   5  14    2.90    3.50
  -5   5  14    3.60    3.10
  -5   5  14    3.50    2.20
   5   5 -14    0.50    3.20
  -4  -5  14  103.09    6.10
  -4  -5  14  103.09    9.30
  -4   5  14   94.69    5.40
  -4   5  14  100.09    5.30
   4   5 -14   91.49    6.00
  -4   5  14   94.79    9.60
  -3  -5  14   31.70    6.00
   3   5 -14   28.60    2.90
  -3   5  14   32.90    3.00
   3   5 -14   34.50    3.30
  -3   5  14   29.10    6.10
  -2  -5  14  120.09    9.80
  -2   5  14  108.59    8.80
   2   5 -14  103.39    4.90
   2   5 -14  125.19    5.20
  -2   5  14  114.49    4.50
  -1  -5  14   15.10    4.00
  -1   5  14   17.80    4.20
   1   5 -14   13.50    2.50
   1   5 -14   19.80    2.80
  -1   5  14   12.30    2.10
  -1   5  14    8.40    1.90
   0  -5 -14   45.50    5.10
   0  -5  14   40.40    7.10
   0   5 -14   52.29    5.00
   0   5 -14   43.10    4.10
   0   5  14   41.10    3.80
   0   5  14   55.59    5.80
   1  -5  14   75.19    9.60
  -1  -5 -14   51.49    5.20
  -1  -5 -14   60.29    5.60
   1   5  14   68.29    5.90
  -1   5 -14   62.39    5.60
  -1   5 -14   72.49    9.30
   1   5  14   65.29    5.60
   2  -5  14   83.39    8.90
  -2  -5 -14   82.69    5.90
  -2  -5 -14   97.39    7.60
   2   5  14   86.79    6.40
  -2   5 -14   71.69    6.80
  -3  -5 -14   22.30    3.60
   3  -5  14   20.10    5.60
  -3  -5 -14   37.40    6.60
   3   5  14   26.70    3.90
  -3   5 -14   34.30    6.20
  -4  -5 -14  138.59   10.90
   4  -5  14  134.39   12.10
  -4  -5 -14  133.39    6.00
  -4   5 -14  142.19   10.90
   4   5  14  136.19    6.60
  -5  -5 -14    7.30    4.10
  -5   5 -14   -0.30    4.00
  -6  -5 -14   38.70    8.60
   6  -5  14   26.10    7.90
  -6   5 -14   22.50    6.60
  -7  -6  14   -0.90    3.90
  -7  -6  14    3.00    4.30
  -7   6  14    2.50    4.00
  -7   6  14   -3.10    3.90
  -6  -6  14   57.59    9.10
  -6  -6  14   33.80    6.70
  -6   6  14   53.89    6.70
  -6   6  14   36.80    7.10
  -5  -6  14    9.10    4.50
  -5  -6  14    8.10    3.20
  -5   6  14   11.80    4.20
   5   6 -14   14.10    4.10
  -5   6  14   13.00    3.20
  -4  -6  14  298.07   11.40
  -4  -6  14  297.37   16.10
   4   6 -14  284.97   10.80
  -4   6  14  282.37   10.30
  -4   6  14  295.17   10.30
  -4   6  14  292.47   16.10
  -3  -6  14    1.60    3.10
  -3   6  14    2.20    1.60
   3   6 -14    2.10    2.20
  -3   6  14    1.30    1.80
   3   6 -14    3.30    1.80
  -3   6  14   -1.30    2.00
  -2  -6  14   40.30    6.60
  -2   6  14   40.30    3.60
  -2   6  14   38.60    7.00
   2   6 -14   50.09    4.10
  -2   6  14   41.70    3.50
   2   6 -14   43.40    3.70
  -1  -6  14   42.20    6.90
  -1   6  14   42.60    3.90
   1   6 -14   40.90    3.80
   1   6 -14   42.50    4.30
  -1   6  14   46.90    4.00
  -1   6  14   42.40    6.50
   0  -6  14  227.18   13.60
   0  -6 -14  203.28    9.20
   0   6  14  212.98   10.70
   0   6  14  211.48    9.00
   0   6 -14  196.58    8.80
   0   6 -14  200.08    9.60
  -1  -6 -14   -2.50    2.30
  -1  -6 -14    3.60    2.00
   1  -6  14   -2.30    2.20
  -1   6 -14   -0.80    3.10
   1   6  14   -0.20    2.30
   1   6  14   -1.00    1.80
  -1   6 -14    0.00    1.60
  -2  -6 -14   95.59    7.60
   2  -6  14   99.39    9.70
  -2  -6 -14   87.29    5.90
   2   6  14  101.89    6.70
  -2   6 -14   94.99    7.90
  -3  -6 -14   16.00    4.60
   3  -6  14   13.90    4.80
  -3   6 -14    5.90    3.20
   3   6  14   21.20    3.60
  -4  -6 -14    7.00    3.90
   4  -6  14    6.10    5.00
  -4   6 -14   10.30    4.00
   4   6  14    5.10    1.80
  -5  -6 -14   34.90    6.90
   5  -6  14   40.10    8.70
  -5   6 -14   36.60    7.30
  -6  -6 -14   21.40    7.10
   6  -6  14   20.00    8.50
  -6   6 -14   15.20    5.60
  -7  -7  14   10.30    5.10
  -7  -7  14    5.70    4.30
  -7   7  14   -3.70    4.60
  -7   7  14   10.20    5.00
  -6  -7  14   -1.20    4.50
  -6  -7  14    3.30    3.90
  -6   7  14    0.40    3.30
  -6   7  14    4.10    3.80
  -5  -7  14   64.49    6.50
  -5  -7  14   62.39    8.30
  -5   7  14   58.99    9.40
  -5   7  14   52.89    6.60
   5   7 -14   56.19    8.70
  -5   7  14   72.49    6.40
  -4  -7  14   13.20    3.70
  -4  -7  14   24.20    5.40
  -4   7  14   22.70    4.10
  -4   7  14   15.20    4.80
  -4   7  14   24.50    4.00
  -3  -7  14    5.50    3.50
  -3   7  14    1.80    2.40
  -3   7  14   10.20    2.50
   3   7 -14    8.30    3.10
  -3   7  14    9.80    3.90
   3   7 -14    9.40    2.80
  -2  -7  14   42.30    7.50
  -2   7  14   35.20    4.10
   2   7 -14   44.00    5.10
  -2   7  14   36.20    6.70
  -2   7  14   39.30    4.60
   2   7 -14   45.00    4.20
  -1  -7  14    1.50    2.80
  -1   7  14    5.00    2.40
  -1   7  14    3.10    1.80
  -1   7  14    1.90    2.20
   1   7 -14    4.30    2.00
   1   7 -14    4.60    2.90
   0  -7 -14  205.48    9.90
   0  -7  14  199.38   13.00
   0   7  14  211.68   10.80
   0   7 -14  196.88    9.50
   0   7  14  171.88    8.70
   0   7 -14  203.78   10.20
  -1  -7 -14    4.20    2.90
   1  -7  14    3.20    3.30
   1   7  14    3.30    2.00
   1   7  14   -1.40    2.70
  -1   7 -14    2.60    2.20
   1   7  14    2.00    3.00
  -2  -7 -14    2.00    2.50
   2  -7  14    4.20    2.90
  -2   7 -14    0.90    2.10
   2   7  14    1.70    2.70
   2   7  14    1.30    2.10
  -3  -7 -14   28.00    6.30
   3  -7  14   27.20    7.00
   3   7  14   19.00    3.00
   3   7  14   28.90    4.10
  -3   7 -14   18.60    4.60
   4  -7  14   27.20    7.90
  -4  -7 -14   34.50    6.50
  -4   7 -14   29.10    6.10
   5  -7  14    7.30    4.90
  -5  -7 -14   17.20    6.30
  -5   7 -14    8.30    7.80
   6  -7  14   -8.90    4.70
  -6  -7 -14    7.60    5.20
  -6  -8  14   19.90    7.90
  -6  -8  14   26.50    5.70
  -6   8  14   15.50    4.80
  -6   8  14   30.30    8.40
  -5  -8  14   -2.00    3.50
  -5   8  14   -2.00    3.70
  -5   8  14    3.20    2.90
  -4  -8  14   -0.20    2.70
  -4  -8  14    1.10    2.80
  -4   8  14   -1.20    2.30
  -4   8  14    4.10    3.30
  -4   8  14   -1.40    2.70
   4   8 -14    4.00    3.40
  -3  -8  14   56.89    8.50
  -3   8  14   64.09    5.30
  -3   8  14   47.50    7.70
   3   8 -14   71.49    5.80
  -3   8  14   61.29    5.70
   3   8 -14   58.39    6.70
  -2  -8  14   -1.90    2.30
   2   8 -14   -1.50    2.10
  -2   8  14   -0.50    1.90
  -2   8  14   -0.10    2.20
  -2   8  14    2.30    2.60
  -1  -8  14  124.39   10.50
  -1   8  14  114.69    7.30
  -1   8  14  118.39    7.40
  -1   8  14  120.39    8.90
   1   8 -14  124.29    7.40
   1   8 -14  128.79    8.20
   0  -8 -14  117.79    8.00
   0  -8  14  117.59   10.60
   0   8  14  123.89    8.00
   0   8  14  122.49    8.10
   0   8 -14  125.69    8.90
   0   8 -14  122.39    7.90
  -1  -8 -14   29.20    5.30
   1  -8  14   14.60    5.70
   1   8  14   19.10    4.70
   1   8  14   29.90    4.70
  -1   8 -14   30.00    5.20
   2  -8  14   16.20    5.30
  -2  -8 -14    6.20    3.80
   2   8  14   15.40    3.50
  -2   8 -14   13.40    3.70
   2   8  14   11.30    2.80
  -3  -8 -14   57.79    8.70
   3  -8  14   49.20    8.90
  -3   8 -14   64.19    9.20
   3   8  14   50.09    5.20
   4  -8  14    5.20    4.60
  -4  -8 -14   10.00    5.00
  -4   8 -14   12.60    5.00
  -5  -8 -14   32.90    6.50
   5  -8  14   42.70    9.60
  -5   8 -14   52.99    8.70
  -6  -9  14   -3.10    4.00
  -6  -9  14    5.20    4.80
  -6   9  14   -0.10    4.30
  -6   9  14    9.70    4.60
  -5  -9  14   55.39    7.20
  -5  -9  14   43.60    8.20
  -5   9  14   54.79    7.20
  -5   9  14   50.79    7.90
  -4  -9  14    4.60    3.30
  -4  -9  14    1.70    2.90
  -4   9  14    0.30    3.00
  -4   9  14   -1.40    2.50
  -3  -9  14   40.10    7.30
  -3   9  14   51.99    8.50
  -3   9  14   54.79    6.40
   3   9 -14   54.29    7.00
  -3   9  14   53.29    6.40
   3   9 -14   57.79    6.00
  -2  -9  14    0.60    2.80
  -2   9  14    2.60    2.70
   2   9 -14   -0.50    3.20
  -2   9  14    0.10    2.80
  -2   9  14    1.20    2.20
   2   9 -14   -2.10    2.00
  -1  -9  14  241.48   14.60
   1   9 -14  258.77   11.50
  -1   9  14  261.47   11.70
  -1   9  14  234.58   11.10
  -1   9  14  231.58   12.40
   1   9 -14  223.68   11.70
   0  -9 -14   -0.90    2.30
   0  -9  14    0.70    2.90
   0   9 -14    3.00    2.70
   0   9  14    0.30    2.00
   1  -9  14  311.07   17.70
  -1  -9 -14  337.57   15.40
   1   9  14  314.97   14.20
  -1   9 -14  318.97   14.70
   1   9  14  324.57   12.50
  -2  -9 -14   12.30    4.30
   2  -9  14   12.50    5.30
   2   9  14   23.20    3.50
  -2   9 -14   20.30    4.90
   2   9  14   11.30    3.50
   3  -9  14    4.20    4.00
  -3  -9 -14    6.10    3.80
  -3   9 -14    7.20    3.70
  -4  -9 -14   40.10    7.40
  -4   9 -14   46.10    8.10
  -5  -9 -14   17.40    6.20
   5  -9  14   21.40    7.50
  -5   9 -14   27.60    6.50
  -6 -10  14    0.10    4.50
  -6 -10  14   -5.30    3.80
  -6  10  14    0.40    3.80
  -6  10  14   -1.10    5.10
  -5 -10  14    2.50    3.80
  -5 -10  14    5.90    4.10
  -5  10  14    9.80    5.20
  -5  10  14    9.90    4.10
  -4 -10  14   15.10    4.40
  -4 -10  14   17.20    5.40
  -4  10  14   10.30    4.00
  -4  10  14   15.10    5.30
  -3 -10  14   45.30    8.80
  -3  10  14   40.10    7.70
   3  10 -14   36.90    6.70
  -3  10  14   33.00    5.70
  -2 -10  14   61.29    9.20
   2  10 -14   80.49    6.90
  -2  10  14   65.79    6.30
  -2  10  14   88.69    8.60
  -1 -10  14   21.30    5.20
   1  10 -14   30.50    5.00
  -1  10  14   33.60    6.20
  -1  10  14   25.70    5.00
   0 -10  14   21.70    6.40
   0  10  14   19.90    5.20
   0  10 -14   24.30    4.50
  -1 -10 -14   -0.60    3.40
   1 -10  14    1.80    3.50
   1  10  14   -0.70    3.60
   1  10  14    1.60    2.40
  -1  10 -14    2.60    3.10
  -2 -10 -14   63.69    8.70
   2 -10  14   63.29    9.80
  -2  10 -14   51.69    8.00
   2  10  14   70.89    5.20
   2  10  14   63.69    5.90
  -3 -10 -14   15.70    5.70
   3 -10  14   17.60    5.60
  -3  10 -14   13.40    4.60
  -4 -10 -14   -2.50    3.60
   4 -10  14    2.20    4.20
  -4  10 -14   -0.80    4.40
   5 -10  14    6.10    5.80
  -5 -10 -14    1.80    5.00
  -5  10 -14    8.80    5.80
  -5 -11  14   13.80    5.90
  -5 -11  14    7.10    4.40
  -5  11  14    7.70    4.10
  -5  11  14   22.90    5.60
  -4 -11  14   38.00    6.80
  -4 -11  14   54.29    9.00
  -4  11  14   46.30    8.30
  -4  11  14   47.40    7.10
  -3 -11  14    7.70    4.30
   3  11 -14    9.90    3.90
  -3  11  14    4.50    3.00
  -3  11  14   -2.10    3.10
  -2 -11  14  104.39   10.30
   2  11 -14  114.39    8.80
  -2  11  14  114.89   10.00
  -2  11  14  105.69    8.20
  -1 -11  14    0.10    3.00
  -1  11  14    1.80    2.70
   1  11 -14    2.90    3.30
  -1  11  14    5.50    3.40
   0 -11  14    7.50    3.90
   0 -11 -14    8.80    3.90
   0  11  14    8.60    3.40
   0  11 -14   12.30    4.00
   1 -11  14    2.10    3.10
  -1 -11 -14   -2.10    3.10
   1  11  14    0.50    3.60
   1  11  14    3.50    2.40
  -1  11 -14   -1.60    3.00
  -2 -11 -14  140.89   11.10
   2 -11  14  156.18   14.30
   2  11  14  128.89    7.40
  -2  11 -14  165.48   11.80
   2  11  14  156.68    7.20
  -3 -11 -14    4.10    4.10
   3 -11  14    3.10    3.90
  -3  11 -14    1.10    3.80
   4 -11  14   30.20    7.60
  -4 -11 -14   37.50    7.20
  -4  11 -14   27.70    6.50
  -5 -12  14   -0.50    5.30
  -5 -12  14    0.60    4.50
  -5  12  14    1.40    4.00
  -5  12  14    9.80    5.10
  -4 -12  14   75.89    9.80
  -4  12  14   79.99    8.00
  -4  12  14   77.19   10.40
  -3 -12  14    6.10    3.60
  -3  12  14   10.00    4.10
  -3  12  14   15.60    5.00
   3  12 -14    5.70    4.20
  -2 -12  14   29.00    7.50
  -2  12  14   27.60    5.80
  -2  12  14   39.90    6.50
   2  12 -14   38.90    6.50
  -1 -12  14    3.90    3.90
  -1  12  14    4.40    3.50
   1  12 -14    4.70    3.20
  -1  12  14    2.90    3.10
   0 -12  14  110.59   14.70
   0 -12 -14   90.19    9.10
   0  12 -14   96.79    9.10
   0  12  14   93.09    7.70
  -1 -12 -14   13.10    4.50
   1  12  14   21.10    5.20
  -1  12 -14   19.10    5.20
   1  12  14   20.20    4.00
   2 -12  14   52.59   10.00
  -2 -12 -14   85.39   11.00
  -2  12 -14   70.79    9.60
   2  12  14   68.89    5.70
   2  12  14   67.99    5.00
   3 -12  14   46.20   10.10
  -3 -12 -14   39.00    7.70
  -3  12 -14   40.10    7.70
   4 -12  14   15.70    6.90
  -4 -12 -14    6.40    5.30
  -4  12 -14    4.30    4.80
  -4 -13  14    0.90    4.00
  -4 -13  14    2.10    4.70
  -4  13  14    0.50    3.40
  -4  13  14    2.50    4.10
  -3 -13  14    5.20    4.20
   3  13 -14    3.40    4.00
  -3  13  14    7.60    4.50
  -2  13  14   23.30    4.90
   2  13 -14   31.70    6.60
  -2  13  14   25.90    6.00
  -1 -13  14   30.10   10.80
  -1  13  14   24.80    5.80
   1  13 -14   31.20    6.40
  -1  13  14   32.20    6.80
   0 -13 -14   38.50    7.50
   0 -13  14   32.80    7.40
   0  13  14   30.60    5.60
   0  13 -14   36.30    7.40
  -1 -13 -14   68.89    9.80
   1 -13  14   75.49   12.10
  -1  13 -14   88.49    9.30
   1  13  14   66.09    6.30
   2 -13  14   33.00    8.50
  -2 -13 -14   39.70    8.50
   2  13  14   38.00    4.10
  -2  13 -14   27.80    6.10
  -3 -13 -14    4.90    4.70
   3 -13  14   -4.60    3.70
  -3  13 -14    5.20    4.20
  -4 -14  14   -0.30    4.40
  -4 -14  14   -2.10    4.30
  -4  14  14    4.10    3.80
  -4  14  14   -0.90    4.70
  -3 -14  14   33.60    7.30
  -3  14  14   41.80    8.40
  -3  14  14   44.30    7.30
   3  14 -14   39.30    7.30
  -2 -14  14    2.30    3.90
  -2  14  14    4.00    4.00
   2  14 -14    3.60    3.80
  -2  14  14    3.30    3.70
  -1 -14  14   42.40    8.80
   1  14 -14   31.60    7.10
  -1  14  14   29.10    6.20
  -1  14  14   50.99    8.00
   0 -14  14    4.00    4.50
   0 -14 -14   -1.50    4.00
   0  14  14   -7.20    2.70
   0  14 -14    5.60    4.30
   1 -14  14    4.70    4.70
  -1 -14 -14    2.00    4.50
   1  14  14    9.40    3.30
  -1  14 -14   -4.90    3.50
   2 -14  14   -9.10    3.70
  -2 -14 -14    1.20    4.80
  -2  14 -14   -2.20    4.50
   2  14  14   -2.10    2.30
  -3 -14 -14   10.90    5.80
   3 -14  14   14.20    6.70
  -3  14 -14    6.70    4.70
  -3 -15  14   22.20    7.00
   3  15 -14   33.30    7.70
  -3  15  14   25.60    6.30
  -3  15  14   41.10    8.30
  -2 -15  14   15.40    6.40
  -2  15  14   12.40    6.00
  -2  15  14   12.40    5.10
   2  15 -14   17.20    5.80
  -1 -15  14   19.10    7.70
   1  15 -14   10.10    4.20
  -1  15  14   10.40    4.80
  -1  15  14   11.80    4.80
   0 -15  14   -2.10    4.20
   0 -15 -14    0.20    4.40
   0  15 -14    2.50    4.40
   0  15  14    0.40    3.20
  -1 -15 -14   58.69   11.30
   1 -15  14   74.79   11.30
   1  15  14   78.79    7.90
  -1  15 -14   76.19   12.10
   2 -15  14    4.60    6.50
  -2 -15 -14   12.30    6.50
  -2  15 -14    9.90    5.50
  -1 -16  14   30.50    8.10
   1  16 -14   27.40    6.60
  -1  16  14   23.00    5.80
   0 -16 -14   43.00    8.40
   0 -16  14   47.20    9.70
   0  16 -14   45.60    8.20
   0  16  14   59.09    7.90
  -7   0  15   35.60    7.20
  -7   0  15   35.40    5.40
  -6   0  15   -2.90    2.20
   6   0 -15   -2.60    3.20
  -6   0  15    0.10    3.30
  -5   0  15    1.90    3.10
  -5   0  15    2.90    1.90
  -4   0  15    2.00    2.60
  -3   0  15 1055.49   30.80
  -2   0  15    5.20    3.30
  -1   0  15   63.19    8.30
   0   0  15    0.50    1.20
   0   0 -15    1.30    1.00
   0   0  15    0.60    2.10
  -1   0 -15   31.40    4.10
   1   0  15   26.20    5.10
   1   0  15   28.60    3.90
  -2   0 -15   -0.80    1.90
   2   0  15    4.20    2.40
   3   0  15  225.68   14.50
  -3   0 -15  240.08   12.40
   4   0  15    2.30    3.40
  -4   0 -15    2.40    3.60
  -5   0 -15   61.39    9.60
   5   0  15   55.99    8.20
   6   0  15   -2.30    4.40
  -6   0 -15   -7.40    4.00
  -7  -1  15   28.00    5.10
  -7  -1  15   46.00    9.30
  -7   1  15   29.10    7.00
  -7   1  15   39.00    5.30
  -6  -1  15    1.90    4.30
   6  -1 -15    0.00    3.30
  -6  -1  15    1.40    2.40
   6   1 -15    0.60    3.40
  -6   1  15   -3.20    2.20
  -6   1  15    5.90    4.00
  -5  -1  15   58.29    8.70
  -5   1  15   45.10    7.50
  -5   1  15   62.79    4.40
  -4  -1  15    6.60    3.30
  -4   1  15    7.50    4.00
  -3  -1  15    1.90    2.50
  -3   1  15    5.80    3.00
  -2  -1  15  529.65   20.20
  -1  -1  15  172.78   10.90
  -1   1  15  165.38   10.70
   0  -1  15   82.89    7.70
   0  -1 -15   68.99    3.30
   0   1  15   73.59    3.80
   0   1 -15   70.39    3.40
   0   1  15   70.89    6.90
  -1  -1 -15  333.97   10.90
   1  -1  15  304.47   14.40
   1  -1  15  306.67   10.60
  -1   1 -15  318.47   10.70
   1   1  15  311.07   15.60
   1   1  15  314.67   10.60
   2  -1  15   19.40    3.90
  -2  -1 -15   18.60    3.80
   2  -1  15   12.00    4.20
   2   1  15   16.40    3.60
  -2   1 -15   14.70    3.70
   2   1  15   15.00    4.30
   3  -1  15   49.40    7.70
  -3  -1 -15   45.70    6.90
  -3   1 -15   52.49    7.20
   3   1  15   45.30    6.60
  -4  -1 -15   54.09    8.30
   4  -1  15   86.89    9.30
  -4   1 -15   97.99    9.40
   4   1  15   77.89    7.40
  -5  -1 -15    2.40    3.50
   5  -1  15    2.60    4.10
   5   1  15    0.70    4.20
  -5   1 -15   -1.70    3.90
  -6  -1 -15   10.70    5.70
   6  -1  15    7.00    4.90
  -6   1 -15    3.20    4.30
  -7  -2  15    0.30    3.70
  -7  -2  15   -0.10    4.10
  -7   2  15   15.60    4.20
  -7   2  15    5.60    3.90
  -6  -2  15   31.70    4.40
  -6  -2  15   31.40   11.10
   6   2 -15   26.00    5.00
  -6   2  15   31.30    4.10
  -6   2  15   30.70    6.30
  -5  -2  15    8.10    4.20
  -5  -2  15   10.20    2.30
   5   2 -15    8.70    2.40
  -5   2  15    9.50    4.50
  -5   2  15    7.20    2.70
  -4  -2  15   52.59    8.20
  -4   2  15   54.19    8.40
  -3  -2  15   59.99    8.60
  -3   2  15   67.09    9.20
  -2  -2  15   39.20    6.90
  -2   2  15   49.40    8.00
  -1  -2  15   17.60    4.80
  -1   2  15   17.40    4.30
   0  -2  15   75.99    7.50
   0  -2 -15   70.49    3.70
   0   2 -15   76.39    4.30
   0   2  15   70.89    3.90
   0   2  15   88.19    8.30
   1  -2  15    2.20    2.90
   1  -2  15    0.90    2.00
  -1  -2 -15    1.20    1.80
  -1   2 -15    0.00    1.80
   1   2  15    0.60    2.40
   1   2  15    2.60    2.20
   2  -2  15   89.99    8.40
   2  -2  15   78.19    6.50
  -2  -2 -15   81.79    6.50
  -2   2 -15   82.79    6.60
   2   2  15   73.59    6.50
   2   2  15   77.39    7.00
  -3  -2 -15  115.39    8.00
   3  -2  15  131.89   10.40
  -3  -2 -15  133.59    9.40
   3   2  15  154.68    9.70
  -3   2 -15  139.79    9.70
  -4  -2 -15   47.10    8.00
   4  -2  15   36.00    6.70
  -4  -2 -15   27.30    5.10
  -4   2 -15   31.70    6.40
   4   2  15   36.60    6.00
  -5  -2 -15   13.50    5.20
   5  -2  15   20.10    5.60
  -5  -2 -15    2.50    4.50
  -5   2 -15    9.60    5.60
   5   2  15   10.70    4.20
   6  -2  15  105.39   10.70
  -6  -2 -15   59.19    9.60
  -6   2 -15   74.49   11.60
   6   2  15   83.09    7.90
  -7  -3  15   10.10    4.80
  -7   3  15    6.10    3.80
  -7   3  15    5.50    4.70
  -6  -3  15    9.30    6.30
  -6  -3  15    5.90    3.00
   6   3 -15   -1.30    4.30
  -6   3  15    4.90    3.70
  -6   3  15    6.10    2.60
  -5  -3  15   -1.70    3.00
  -5  -3  15   -0.60    1.90
  -5   3  15    5.70    3.50
  -5   3  15   -2.20    2.20
  -5   3  15   -0.90    1.50
   5   3 -15   -2.40    2.10
  -4  -3  15  183.38   12.60
  -4   3  15  183.88   12.60
  -3  -3  15   37.90    6.60
  -3   3  15   44.00    7.20
  -2  -3  15  148.29   10.80
  -2   3  15  171.38   11.00
  -1  -3  15   49.50    7.10
  -1   3  15   51.89    7.50
   0  -3  15    2.60    2.50
   0  -3 -15    5.30    1.80
   0   3 -15    5.70    2.00
   0   3  15    9.50    1.90
   0   3 -15    7.70    1.90
   1  -3  15   -1.70    2.50
  -1  -3 -15    2.10    1.60
   1  -3  15    1.50    2.20
  -1   3 -15   -0.70    2.10
   1   3  15   -0.20    2.00
   1   3  15    4.90    2.60
   2  -3  15  164.18   11.50
  -2  -3 -15  148.19    8.60
   2  -3  15  151.98    9.10
  -2  -3 -15  163.48    9.30
   2   3  15  152.38    9.10
   2   3  15  179.38    9.90
  -2   3 -15  158.68    9.30
  -3  -3 -15    4.50    2.90
   3  -3  15    0.30    2.80
  -3  -3 -15   -2.50    2.40
   3   3  15   -0.50    2.40
  -3   3 -15   -1.40    2.40
   4  -3  15   55.69    9.00
  -4  -3 -15   29.00    4.70
  -4  -3 -15   43.80    8.20
   4   3  15   42.20    6.00
  -4   3 -15   38.60    6.50
   5  -3  15   16.20    5.10
  -5  -3 -15   16.90    6.00
  -5  -3 -15   18.70    5.60
  -5   3 -15   16.30    5.10
   5   3  15   14.90    3.80
   6  -3  15   19.00    5.80
  -6  -3 -15   32.70    7.10
   6   3  15   18.10    4.10
  -6   3 -15    5.90    5.20
  -7  -4  15   19.50    6.20
  -7  -4  15    9.90    4.60
  -7   4  15   13.70    6.20
  -6  -4  15   68.59    6.20
  -6  -4  15   62.19   11.00
   6   4 -15   46.40    8.50
  -6   4  15   47.20    8.30
  -6   4  15   62.09    5.60
  -5  -4  15   11.80    4.20
  -5  -4  15   16.40    3.00
   5   4 -15   18.20    3.40
  -5   4  15   24.30    6.70
  -5   4  15   12.30    2.60
  -5   4  15   11.80    2.90
  -4  -4  15    3.50    2.90
  -4   4  15    2.50    2.80
  -4   4  15   -0.30    1.20
  -4   4  15    1.10    1.10
  -3  -4  15    2.90    3.10
  -3   4  15    2.30    2.60
  -2  -4  15   66.19    8.60
  -2   4  15   87.39    8.10
  -1  -4  15   99.89    9.20
  -1   4  15  127.79    3.80
  -1   4  15  117.39    8.80
  -1   4  15  120.99    3.70
   1   4 -15  118.59    4.50
   0  -4  15    2.00    2.50
   0  -4 -15    2.40    1.70
   0   4 -15   -0.20    2.00
   0   4  15    2.30    1.70
   0   4 -15   -0.30    1.30
   1  -4  15   13.80    4.60
  -1  -4 -15   14.30    3.00
   1  -4  15   13.30    3.00
   1   4  15   14.50    3.30
  -1   4 -15   16.90    3.50
   1   4  15   11.50    3.80
  -2  -4 -15    8.70    3.00
  -2  -4 -15    4.60    2.70
   2  -4  15    7.00    4.20
  -2   4 -15    4.10    2.20
   2   4  15    3.20    2.60
   2   4  15    3.50    3.20
  -3  -4 -15   15.70    4.40
  -3  -4 -15   24.10    4.40
   3  -4  15   35.50    7.00
   3   4  15   21.80    3.90
  -3   4 -15   19.30    4.60
  -4  -4 -15    2.70    3.30
  -4  -4 -15   -0.60    2.70
   4  -4  15    0.40    3.00
   4   4  15    4.00    2.90
  -4   4 -15    0.90    3.40
  -5  -4 -15   32.60    4.40
  -5  -4 -15   53.99    9.70
   5  -4  15   54.69    9.70
   5   4  15   29.10    4.00
  -5   4 -15   26.20    6.80
   6  -4  15   54.69    9.10
  -6  -4 -15   43.30    8.80
  -6   4 -15   46.30    9.10
  -7  -5  15   12.70    5.40
  -7  -5  15   15.90    4.50
  -7   5  15   14.20    5.20
  -7   5  15    7.40    4.10
  -6  -5  15   15.80    5.60
  -6  -5  15    5.00    3.70
  -6   5  15   18.20    3.80
  -6   5  15   16.10    6.30
  -5  -5  15   95.29    9.80
  -5  -5  15   86.59    6.40
   5   5 -15  103.49    6.80
  -5   5  15   92.99    9.60
  -5   5  15  102.69    6.40
  -5   5  15   90.39    5.70
  -4  -5  15    9.00    4.10
  -4  -5  15   15.90    2.80
  -4   5  15   13.80    4.40
  -4   5  15   12.90    2.40
  -4   5  15   15.40    2.50
   4   5 -15   18.10    3.20
  -3  -5  15   21.40    5.60
  -3   5  15   25.50    2.00
   3   5 -15   27.80    3.50
   3   5 -15   24.80    3.00
  -3   5  15   22.40    5.10
  -3   5  15   24.70    1.90
  -2  -5  15    0.70    2.60
  -2   5  15   -0.20    0.90
  -2   5  15    3.40    2.80
  -2   5  15    1.10    1.00
   2   5 -15    1.30    1.30
   2   5 -15    1.20    1.80
  -1  -5  15  184.38   12.00
   1   5 -15  191.98    7.00
  -1   5  15  153.48   10.20
  -1   5  15  193.88    6.80
  -1   5  15  187.18    6.40
   1   5 -15  193.48    6.90
   0  -5 -15   21.40    3.20
   0  -5  15   29.10    5.80
   0   5 -15   28.00    3.90
   0   5 -15   25.10    3.70
   0   5  15   27.10    3.90
  -1  -5 -15  127.79    7.50
  -1  -5 -15  112.19    8.90
   1  -5  15  129.99   10.60
  -1   5 -15  119.49    7.40
  -1   5 -15  123.89    8.20
   1   5  15  127.79    8.40
  -2  -5 -15   -1.90    2.20
  -2  -5 -15   -2.60    2.50
   2  -5  15   -3.10    2.70
   2   5  15    0.00    2.30
  -2   5 -15    0.50    2.10
  -3  -5 -15   13.70    3.70
   3  -5  15   13.10    5.00
  -3  -5 -15   17.00    4.70
  -3   5 -15   17.00    4.80
   3   5  15   14.30    3.60
   4  -5  15   21.80    6.00
  -4  -5 -15   26.40    6.50
  -4  -5 -15   17.10    3.40
   4   5  15   27.40    3.70
  -4   5 -15   20.80    5.10
   5  -5  15  130.09   12.70
  -5  -5 -15  138.49   12.00
   5   5  15  116.59    4.90
  -5   5 -15  133.99   11.90
  -6  -5 -15    6.30    4.40
   6  -5  15   -8.90    6.30
  -6   5 -15   -2.60    4.50
  -6  -6  15    1.30    3.40
  -6  -6  15   -3.40    3.50
  -6   6  15    0.30    3.50
  -6   6  15    2.10    3.20
  -5  -6  15    7.40    3.20
  -5  -6  15    3.30    3.30
  -5   6  15    3.40    6.20
  -5   6  15    3.50    3.50
  -5   6  15    5.30    2.80
  -4  -6  15    7.60    2.80
  -4  -6  15    4.80    4.10
  -4   6  15    6.90    3.70
  -4   6  15   10.80    2.60
  -4   6  15   13.00    2.70
   4   6 -15    9.30    3.00
  -3  -6  15   63.79    9.30
  -3   6  15   70.59    4.10
   3   6 -15   76.49    4.70
   3   6 -15   57.99    4.60
  -3   6  15   69.89    4.10
  -3   6  15   46.30    7.90
  -2  -6  15    8.50    3.60
   2   6 -15    4.40    1.90
   2   6 -15    0.70    2.10
  -2   6  15    4.50    1.80
  -2   6  15    7.00    3.10
  -2   6  15    7.00    1.80
  -1  -6  15   88.39    9.30
   1   6 -15  104.39    5.60
  -1   6  15  105.89    5.40
  -1   6  15   86.89    7.80
  -1   6  15   91.79    5.20
   1   6 -15   96.09    5.90
   0  -6 -15    0.00    1.80
   0  -6  15   -1.00    2.70
   0   6 -15    4.60    2.60
   0   6 -15   -0.10    1.60
   0   6  15    1.10    2.50
  -1  -6 -15   51.09    5.40
  -1  -6 -15   47.10    5.70
   1  -6  15   51.39    8.30
   1   6  15   54.39    6.60
   1   6  15   46.90    6.00
  -1   6 -15   47.60    6.50
  -1   6 -15   59.49    5.60
  -2  -6 -15   -1.70    2.40
   2  -6  15    1.00    3.50
  -2  -6 -15    1.50    2.80
  -2   6 -15    3.20    2.80
   2   6  15   -2.60    1.80
   3  -6  15   52.79    8.90
  -3  -6 -15   41.10    6.80
  -3   6 -15   49.50    7.80
   3   6  15   37.20    4.60
   4  -6  15    0.60    4.00
  -4  -6 -15    2.50    3.30
   4   6  15   -0.40    2.30
   4   6  15   -3.10    2.20
  -4   6 -15   -1.00    3.20
   5  -6  15   69.69   11.40
  -5  -6 -15   49.40    8.80
  -5   6 -15   56.29   11.90
  -6  -7  15    8.80    4.20
  -6  -7  15    2.40    3.80
  -6   7  15   16.10    6.10
  -6   7  15    9.70    3.90
  -5  -7  15   74.79   10.60
  -5  -7  15   79.89    6.90
   5   7 -15   71.29    7.70
  -5   7  15   63.49    6.00
  -5   7  15   78.29    7.60
  -5   7  15   75.09   11.60
  -4  -7  15   86.99    6.30
  -4  -7  15   85.89    9.10
  -4   7  15   93.49    9.80
   4   7 -15   83.79    6.60
  -4   7  15   92.79    6.10
  -4   7  15   79.89    6.20
  -3  -7  15    2.90    3.20
   3   7 -15    0.40    2.60
  -3   7  15    1.10    2.00
  -3   7  15    0.80    2.10
  -3   7  15   -1.90    2.90
   3   7 -15   -0.70    2.00
  -2  -7  15   27.40    5.80
   2   7 -15   26.90    3.70
   2   7 -15   23.30    3.90
  -2   7  15   23.20    3.40
  -2   7  15   24.80    5.50
  -2   7  15   20.00    3.40
  -1  -7  15   76.19   10.00
   1   7 -15   90.49    6.50
  -1   7  15  101.19    8.30
  -1   7  15   97.59    6.00
  -1   7  15   87.29    5.80
   1   7 -15   96.29    5.90
   0  -7  15   65.69    9.40
   0  -7 -15   58.69    5.40
   0   7 -15   71.69    6.90
   0   7 -15   64.79    5.60
   0   7  15   69.09    9.80
   0   7  15   68.59    5.80
   1  -7  15   71.59   10.10
  -1  -7 -15   58.79    6.10
   1   7  15   67.89    7.20
   1   7  15   71.59    6.70
  -1   7 -15   65.69    6.50
   1   7  15   78.09    6.60
  -2  -7 -15   61.79    7.60
   2  -7  15   48.80    8.20
  -2   7 -15   65.89    8.00
   2   7  15   59.09    5.40
   2   7  15   58.59    7.90
  -3  -7 -15   46.80    7.80
   3  -7  15   49.00    8.60
  -3   7 -15   44.00    6.70
   3   7  15   52.49    5.40
   3   7  15   63.89    5.00
  -4  -7 -15   33.90    7.20
   4  -7  15   43.90    8.90
  -4   7 -15   23.00    5.80
   5  -7  15   44.60    9.00
  -5  -7 -15   41.50    8.10
  -5   7 -15   34.40    6.80
  -6  -8  15   22.60    5.90
  -6  -8  15   33.50    7.00
  -6   8  15   41.30    6.20
  -6   8  15   27.20    7.70
  -5  -8  15   -1.30    3.30
  -5  -8  15   -1.00    3.20
  -5   8  15    2.90    4.10
  -5   8  15   -0.10    3.10
  -4  -8  15   80.29    7.30
  -4  -8  15   83.19   10.60
  -4   8  15   69.79    9.90
   4   8 -15   68.99    7.30
  -4   8  15   73.69    5.90
  -3  -8  15   21.30    5.80
   3   8 -15   26.90    4.20
  -3   8  15   23.10    4.10
  -3   8  15   22.70    5.90
  -3   8  15   15.60    3.50
  -2  -8  15   -1.50    2.30
  -2   8  15    2.90    2.70
  -2   8  15    2.90    2.10
  -2   8  15    2.70    2.60
   2   8 -15    1.50    3.00
   2   8 -15    1.50    2.00
  -1  -8  15   55.69    8.50
  -1   8  15   42.00    5.30
   1   8 -15   45.50    4.70
   1   8 -15   45.00    5.80
  -1   8  15   55.09    8.10
  -1   8  15   53.39    5.90
   0  -8  15  196.38   13.60
   0  -8 -15  187.68   10.00
   0   8  15  187.58   10.60
   0   8 -15  178.88    9.60
   0   8 -15  168.08   10.30
   0   8  15  178.28    9.50
  -1  -8 -15   12.50    3.80
   1  -8  15    5.00    3.50
   1   8  15    6.00    3.10
   1   8  15    1.70    3.60
  -1   8 -15    5.40    3.20
   2  -8  15  177.28   13.70
  -2  -8 -15  175.38   11.40
   2   8  15  157.18    9.50
   2   8  15  161.58    8.40
  -2   8 -15  163.48   10.70
  -3  -8 -15    4.90    3.90
   3  -8  15    4.10    4.00
   3   8  15    3.90    2.00
   3   8  15   -1.50    2.40
  -3   8 -15    2.10    2.80
   4  -8  15   -1.40    4.60
  -4  -8 -15   -1.40    3.60
  -4   8 -15    5.40    3.90
   5  -8  15   12.20    5.50
  -5  -8 -15   15.70    6.20
  -5   8 -15   17.40    6.60
  -6  -9  15    4.80    5.40
  -6  -9  15   14.50    5.30
  -6   9  15    8.60    5.70
  -6   9  15   13.00    5.10
  -5  -9  15   -2.70    3.60
  -5  -9  15   -0.70    4.30
  -5   9  15    3.10    4.30
  -5   9  15    0.40    6.00
  -4  -9  15   64.19    7.70
  -4  -9  15   66.39   10.00
  -4   9  15   71.09    6.30
  -4   9  15   40.20    7.60
  -4   9  15   63.09    6.70
  -3  -9  15    1.00    2.80
  -3   9  15    0.10    3.30
  -3   9  15    1.70    2.30
   3   9 -15   -2.80    3.70
  -3   9  15   -3.20    2.60
   3   9 -15   -1.30    2.70
  -2  -9  15  116.59   10.50
   2   9 -15  101.19    8.30
  -2   9  15  118.49    9.80
  -2   9  15  114.39    7.50
   2   9 -15  126.59    7.90
  -2   9  15   87.49    7.10
  -1  -9  15   22.10    6.00
  -1   9  15   24.30    4.70
  -1   9  15   17.40    4.30
  -1   9  15   30.00    5.70
   1   9 -15   29.40    4.60
   1   9 -15   19.20    4.90
   0  -9 -15    7.60    3.60
   0  -9  15   13.70    5.20
   0   9 -15   18.40    4.20
   0   9  15   18.20    4.60
  -1  -9 -15    2.60    3.10
   1  -9  15    1.80    3.00
   1   9  15    0.60    4.00
   1   9  15    3.40    2.30
  -1   9 -15    1.80    2.90
  -2  -9 -15   44.40    6.50
   2  -9  15   45.50    8.70
  -2   9 -15   33.40    6.20
   2   9  15   35.00    5.30
   2   9  15   35.90    4.50
  -3  -9 -15    1.20    3.70
   3  -9  15    0.50    4.30
  -3   9 -15    0.10    3.10
   3   9  15    3.30    1.70
   3   9  15    0.70    2.30
   4  -9  15   67.29   11.30
  -4  -9 -15   58.79    9.40
  -4   9 -15   56.39    8.90
  -5  -9 -15    6.10    4.90
   5  -9  15   -2.20    5.00
  -5   9 -15   -7.00    4.10
  -5 -10  15    3.60    4.20
  -5 -10  15    1.70    3.80
  -5  10  15    2.40    3.70
  -5  10  15   -1.90    3.80
  -4 -10  15   15.50    5.30
  -4 -10  15   18.00    4.70
  -4  10  15   31.70    6.20
  -4  10  15   19.80    5.50
  -3 -10  15  101.89   13.50
   3  10 -15   98.49    7.90
  -3  10  15   86.99    7.20
  -3  10  15   72.09    9.90
  -2 -10  15    8.00    4.80
  -2  10  15    3.40    3.10
  -2  10  15   12.10    6.80
   2  10 -15    6.40    2.90
  -2  10  15   10.40    3.20
  -1 -10  15   36.40    7.80
   1  10 -15   28.60    5.00
  -1  10  15   22.30    5.20
  -1  10  15   22.30    4.60
   0 -10 -15  101.89   10.00
   0 -10  15  104.79   11.00
   0  10  15  103.19    8.30
   0  10 -15   94.59    7.70
   1 -10  15    3.70    4.20
  -1 -10 -15    4.40    3.70
   1  10  15    4.00    2.50
   1  10  15    2.70    4.10
  -1  10 -15    0.70    2.60
   2 -10  15   49.70    9.30
  -2 -10 -15   45.10    7.70
   2  10  15   43.10    5.00
  -2  10 -15   36.50    6.60
   2  10  15   34.40    5.30
   3 -10  15    8.40    4.50
  -3 -10 -15    5.30    4.10
  -3  10 -15    4.40    3.70
  -4 -10 -15    4.80    6.80
   4 -10  15   -4.50    4.10
  -4  10 -15   -6.60    3.60
  -5 -11  15   72.79   10.40
  -5 -11  15   94.49    9.80
  -5  11  15   93.29    8.90
  -5  11  15   65.89    9.80
  -4 -11  15    4.80    4.60
  -4 -11  15    9.10    4.30
  -4  11  15   13.30    5.80
  -4  11  15    1.60    3.10
  -3 -11  15   28.70    7.40
  -3  11  15   27.70    5.60
   3  11 -15   15.90    3.80
  -3  11  15   27.40    6.60
  -2 -11  15   21.80    6.30
  -2  11  15    8.90    4.10
   2  11 -15   13.60    4.10
  -2  11  15   15.90    4.50
  -1 -11  15   39.40    8.90
   1  11 -15   64.79    8.00
  -1  11  15   55.49    8.10
  -1  11  15   43.70    6.70
   0 -11 -15    6.20    4.00
   0 -11  15    0.70    3.30
   0  11  15    3.00    2.90
   0  11 -15    0.60    3.00
   1 -11  15   67.69   13.90
  -1 -11 -15   70.49    8.80
   1  11  15   63.69    6.10
  -1  11 -15   59.69    8.10
  -2 -11 -15   22.80    6.00
   2 -11  15   32.50    8.20
   2  11  15   25.10    3.70
  -2  11 -15   26.00    6.30
   2  11  15   25.20    4.40
  -3 -11 -15   11.10    5.50
   3 -11  15    6.00    5.10
  -3  11 -15    3.60    4.30
  -4 -11 -15    6.10    5.70
   4 -11  15    4.00    5.00
  -4  11 -15   14.00    5.90
  -4 -12  15    2.40    4.10
  -4  12  15    0.60    3.60
   4  12 -15    1.50    4.10
  -4  12  15   -2.70    3.80
  -3 -12  15   45.60    8.60
  -3  12  15   41.10    9.30
  -3  12  15   64.49    7.80
   3  12 -15   60.39    8.40
  -2 -12  15   -1.20    4.50
   2  12 -15    0.70    3.50
  -2  12  15   -1.50    2.70
  -1 -12  15   25.30    9.40
   1  12 -15   38.40    6.60
  -1  12  15   35.60    6.60
  -1  12  15   39.00    6.70
   0 -12  15   10.80    4.40
   0 -12 -15   17.70    5.70
   0  12 -15    7.60    3.50
   0  12  15    7.60    3.60
   1 -12  15   54.39   10.70
  -1 -12 -15   49.40    7.90
  -1  12 -15   38.60    6.70
   1  12  15   58.29    5.90
   2 -12  15    3.60    4.20
  -2 -12 -15    5.40    4.70
  -2  12 -15    4.40    4.20
   2  12  15    9.00    2.90
  -3 -12 -15   70.89   10.20
   3 -12  15   86.29   12.10
  -4 -12 -15    2.20    4.50
   4 -12  15   -1.20    5.50
  -4  12 -15   -6.00    3.80
  -4 -13  15    9.10    5.30
   4  13 -15    9.40    5.50
  -4  13  15    8.60    4.50
  -4  13  15    9.10    5.20
  -3 -13  15    0.10    4.20
  -3  13  15    6.60    4.00
  -3  13  15   -1.50    3.70
   3  13 -15   -3.10    3.60
  -2 -13  15   73.59   11.10
  -2  13  15   62.99    8.10
  -2  13  15   72.99   10.00
   2  13 -15   79.59   10.20
  -1 -13  15   -3.20    3.30
  -1  13  15    1.90    3.20
   1  13 -15   -0.20    3.70
  -1  13  15   -0.50    3.20
   0 -13  15    2.10    3.40
   0 -13 -15    4.10    4.20
   0  13  15    0.40    3.20
   0  13 -15    2.40    3.50
  -1 -13 -15   12.80    5.30
   1 -13  15   22.00    6.70
  -1  13 -15   11.70    4.70
   1  13  15   15.30    4.10
  -2 -13 -15   48.80    8.20
   2 -13  15   27.50    6.60
  -2  13 -15   27.70    6.60
   2  13  15   37.60    4.20
  -3 -13 -15   25.60    6.70
   3 -13  15   16.70    8.20
  -3  13 -15   30.30    6.70
  -3 -14  15    8.00    5.20
  -3  14  15    3.90    4.60
   3  14 -15    3.40    4.40
  -2 -14  15   15.30    5.60
  -2  14  15   10.60    4.60
   2  14 -15    7.20    4.80
  -2  14  15   12.70    4.90
  -1 -14  15    5.20    4.60
   1  14 -15   -5.20    3.50
  -1  14  15    0.20    3.80
  -1  14  15    0.50    3.50
   0 -14  15  110.49   14.80
   0 -14 -15   99.59   12.30
   0  14 -15  101.39   12.00
   0  14  15  103.49    9.00
   1 -14  15    1.50    4.00
  -1 -14 -15   -7.30    4.00
   1  14  15    1.70    5.40
  -1  14 -15    2.80    4.10
  -2 -14 -15   14.00    6.00
   2 -14  15   10.20    6.10
  -2  14 -15    9.40    4.90
  -2 -15  15   44.70    9.20
  -2  15  15   55.99    8.30
  -2  15  15   64.79    9.00
   2  15 -15   61.49    9.00
  -1 -15  15    2.00    5.40
  -1  15  15   -3.40    3.90
  -1  15  15   -0.30    3.90
   1  15 -15   -5.50    4.60
   0 -15  15   -2.20    4.30
   0 -15 -15   -3.60    5.10
   0  15  15    2.30    3.80
   0  15 -15    5.20    4.70
   1 -15  15   14.00    6.50
  -1 -15 -15   25.30   10.40
  -1  15 -15   26.70    6.50
  -7   0  16    1.90    4.30
  -7   0  16    0.60    3.10
  -6   0  16   32.60    3.80
  -6   0  16   41.50    7.80
  -5   0  16    2.20    3.10
  -4   0  16  135.39   11.00
  -3   0  16    1.00    2.90
  -2   0  16   18.70    5.30
  -1   0  16    2.10    2.30
   0   0 -16  236.78    6.00
   0   0  16  248.28   13.20
  -1   0 -16    0.80    1.70
   1   0  16    1.40    2.00
   1   0  16    0.90    2.20
  -2   0 -16   16.80    3.80
   2   0  16   18.40    4.40
   2   0  16   13.50    4.40
   3   0  16    2.20    3.00
  -3   0 -16   -1.70    2.50
   4   0  16   55.29    7.30
  -4   0 -16   60.89    8.60
   5   0  16    5.80    4.60
  -5   0 -16   -3.10    3.80
  -6   0 -16   97.39   12.90
   6   0  16   78.29   10.00
  -7  -1  16   40.30    4.90
  -7  -1  16   28.80    6.10
  -7   1  16   49.90    9.60
  -7   1  16   46.30    5.10
  -6  -1  16   -2.60    2.10
  -6  -1  16   -0.90    3.90
   6   1 -16    2.20    3.40
  -6   1  16   -1.00    3.70
  -6   1  16   -0.10    2.30
  -5  -1  16   29.50    6.80
  -5   1  16   34.40    7.10
  -4  -1  16   39.00    6.60
  -4   1  16   38.60    6.40
  -3  -1  16   70.09    9.50
  -3   1  16   84.29    8.70
  -2  -1  16   60.39    7.90
  -2   1  16   64.49    8.50
  -1  -1  16   -0.10    2.70
  -1   1  16   -0.10    2.70
   0  -1 -16   59.19    3.00
   0  -1  16   62.89    8.30
   0   1 -16   59.89    3.60
   0   1 -16   58.79    3.10
   0   1  16   54.99    3.00
   0   1  16   66.19    7.10
  -1  -1 -16    2.50    1.80
   1  -1  16    0.60    2.00
   1  -1  16    0.50    2.40
  -1   1 -16    1.10    1.50
   1   1  16   -2.40    1.80
   1   1  16   -0.40    2.60
  -2  -1 -16  209.08   10.30
   2  -1  16  201.98   10.40
   2  -1  16  252.67   13.50
   2   1  16  230.58   12.40
   2   1  16  216.68   10.40
  -2   1 -16  225.58   10.70
   3  -1  16   29.10    6.30
  -3  -1 -16   35.20    6.00
   3   1  16   12.30    4.30
  -3   1 -16   23.20    5.10
   4  -1  16  104.29   10.10
  -4  -1 -16   98.49    9.60
   4   1  16   86.59    8.40
  -4   1 -16   69.99    8.90
   5  -1  16   27.30    6.60
  -5  -1 -16   18.50    6.10
  -5   1 -16   21.10    6.10
   5   1  16   23.70    5.40
   6  -1  16    2.80    4.90
  -6  -1 -16   -5.40    3.70
  -6   1 -16    1.10    4.40
   6   1  16    2.70    4.70
  -7  -2  16    8.30    5.10
  -7  -2  16   -1.00    3.40
  -7   2  16   -5.40    3.80
  -7   2  16   -3.20    3.20
  -6  -2  16   23.50    3.40
  -6  -2  16   28.50    7.30
  -6   2  16   36.70    7.10
  -6   2  16   23.60    3.10
   6   2 -16   25.20    5.30
  -5  -2  16   17.90    5.30
  -5   2  16   13.50    5.00
  -4  -2  16   48.10    7.80
  -4   2  16   45.20    7.90
  -3  -2  16  203.08   13.20
  -3   2  16  181.98   12.10
  -2  -2  16   30.60    6.70
  -2   2  16   24.80    5.40
  -1  -2  16  136.19   10.30
  -1   2  16  126.19    9.70
   0  -2  16   -1.00    2.30
   0  -2 -16    0.10    1.30
   0   2  16    0.50    2.30
   0   2 -16   -1.60    1.40
   0   2 -16   -0.10    1.50
   1  -2  16   31.90    4.20
  -1  -2 -16   38.30    4.60
   1  -2  16   30.90    6.20
  -1   2 -16   36.90    3.90
   1   2  16   35.80    6.20
   1   2  16   38.90    4.40
   2  -2  16    6.40    3.50
   2  -2  16   11.20    4.50
  -2  -2 -16   10.40    3.30
   2   2  16    6.00    3.40
  -2   2 -16   14.00    3.60
   3  -2  16  159.98   11.70
  -3  -2 -16  173.98   10.70
  -3   2 -16  179.18   11.10
   3   2  16  165.78   10.60
  -4  -2 -16    0.80    3.70
   4  -2  16    2.90    4.10
  -4   2 -16   -1.30    3.10
   4   2  16    3.90    3.40
   5  -2  16   54.59    8.40
  -5  -2 -16   50.89    8.80
   5   2  16   49.80    7.10
  -5   2 -16   57.59    8.20
   6  -2  16    6.20    5.20
  -6  -2 -16    3.60    4.60
   6   2  16   10.20    4.90
  -6   2 -16    5.90    4.60
  -7  -3  16   44.30    9.10
  -7  -3  16   41.60    5.70
  -7   3  16   41.80    9.00
  -7   3  16   63.79    6.50
  -6  -3  16   -3.00    2.80
  -6  -3  16    6.30    4.40
  -6   3  16    1.10    2.30
  -6   3  16    8.00    5.00
  -5  -3  16  125.89   11.50
  -5  -3  16  120.49    5.00
   5   3 -16  124.79    4.70
  -5   3  16   82.29   11.40
  -4  -3  16    4.00    3.30
  -4   3  16    7.60    3.30
  -3  -3  16   49.40    7.80
  -3   3  16   52.69    8.00
  -2  -3  16   24.80    6.00
  -2   3  16   35.00    6.80
  -1  -3  16    6.50    3.30
  -1   3  16    6.90    3.20
   0  -3  16   22.40    5.10
   0   3  16   17.90    2.40
   0   3  16   19.80    4.30
   0   3 -16   20.90    2.60
   0   3 -16   19.00    3.00
  -1  -3 -16  178.68    8.20
   1  -3  16  171.08    8.40
   1  -3  16  172.58   11.60
   1   3  16  172.58    8.30
  -1   3 -16  172.88    8.30
   1   3  16  180.08   12.30
   2  -3  16   11.90    4.50
   2  -3  16    5.90    3.90
  -2  -3 -16    3.40    2.60
  -2   3 -16    8.80    3.00
   2   3  16   11.40    3.80
   2   3  16    5.30    3.20
   3  -3  16   -5.30    2.50
  -3  -3 -16    0.50    3.00
  -3   3 -16    1.60    3.10
   3   3  16   -1.30    2.30
  -4  -3 -16    3.50    3.80
   4  -3  16    0.70    3.40
  -4  -3 -16   -5.50    4.00
  -4   3 -16    0.10    3.10
   4   3  16    3.80    3.30
  -5  -3 -16   20.30    5.90
   5  -3  16   14.10    6.00
   5   3  16   20.80    4.90
  -5   3 -16    6.90    4.50
   6  -3  16   -6.70    5.10
  -6  -3 -16   -2.10    5.00
  -6   3 -16   -4.30    4.60
  -6  -4  16   29.90    4.30
  -6  -4  16   26.10    7.00
  -6   4  16   33.40    8.00
  -6   4  16   23.50    3.60
  -5  -4  16   51.29    8.80
  -5  -4  16   40.10    4.00
   5   4 -16   39.00    3.90
  -5   4  16   49.99   12.20
  -5   4  16   41.30    3.40
  -4  -4  16   25.80    6.50
  -4   4  16   27.60    6.30
  -3  -4  16  100.39    9.80
  -3   4  16  101.09    9.30
  -2  -4  16    0.20    2.40
  -2   4  16    2.00    2.30
  -1  -4  16    9.70    4.10
   1   4 -16    9.50    1.60
   1   4 -16   10.20    1.60
  -1   4  16   14.90    4.10
   0  -4 -16  147.39    6.60
   0  -4  16  151.08   11.40
   0   4  16  141.29    9.60
   0   4 -16  151.98    7.10
   0   4  16  142.79    6.30
   0   4 -16  147.09    6.60
   1  -4  16    0.70    2.80
  -1  -4 -16    0.60    2.10
   1   4  16    2.40    2.30
  -1   4 -16    2.40    2.00
   1   4  16   -0.70    2.50
  -1   4 -16    0.30    3.00
   2  -4  16    6.40    4.20
  -2  -4 -16    8.10    2.90
  -2   4 -16    0.50    2.40
   2   4  16    7.40    2.90
  -3  -4 -16   73.09    7.70
   3  -4  16   81.99   10.20
  -3  -4 -16   59.79    6.40
   3   4  16   58.39    7.00
  -3   4 -16   93.29    8.30
   4  -4  16    0.90    3.50
  -4  -4 -16   -1.30    2.80
   4   4  16    3.90    3.20
  -4   4 -16    0.70    3.00
   5  -4  16    0.60    4.60
  -5  -4 -16   -0.50    4.10
  -5   4 -16    0.00    4.10
   5   4  16    1.80    3.20
  -6  -5  16    4.00    3.40
  -6  -5  16    7.60    4.60
  -6   5  16    6.60    3.00
  -6   5  16    4.60    5.10
  -5  -5  16   26.50    6.40
  -5  -5  16   16.70    3.40
   5   5 -16   20.90    3.90
  -5   5  16   23.60    3.30
  -5   5  16   24.30    3.20
  -5   5  16   18.10    4.50
  -4  -5  16  199.68   13.70
  -4   5  16  171.68   12.80
   4   5 -16  174.28    5.90
  -3  -5  16   18.50    4.50
  -3   5  16   18.10    5.10
  -2  -5  16    1.90    2.60
   2   5 -16    1.50    1.10
   2   5 -16    2.30    1.10
  -2   5  16   -0.70    2.60
  -1  -5  16    5.00    3.20
  -1   5  16    6.90    3.20
  -1   5  16    5.20    1.60
   1   5 -16    6.00    1.80
   1   5 -16    4.70    2.00
   0  -5 -16    7.60    2.60
   0  -5  16    1.20    2.90
   0   5  16    2.30    2.00
   0   5 -16    3.50    2.80
   0   5 -16    3.30    1.70
   0   5  16    1.00    3.10
  -1  -5 -16   53.99    5.30
   1  -5  16   39.60    6.50
  -1   5 -16   44.30    5.60
   1   5  16   46.40    6.50
  -1   5 -16   47.90    5.90
  -2  -5 -16   47.30    5.90
   2  -5  16   50.29    8.10
  -2  -5 -16   49.00    6.30
  -2   5 -16   55.09    6.70
   2   5  16   52.39    6.40
  -3  -5 -16   -4.30    3.20
  -3  -5 -16    0.60    3.10
   3  -5  16   -0.90    3.40
   3   5  16    0.90    2.70
  -3   5 -16   -0.50    2.50
  -4  -5 -16   85.09    6.20
  -4  -5 -16   96.19    9.70
   4  -5  16   76.79   10.70
  -4   5 -16   90.69    9.50
   4   5  16   95.49    6.60
  -5  -5 -16    0.10    3.60
   5  -5  16    4.80    5.10
  -6  -6  16   67.49    9.80
  -6  -6  16   76.09    7.20
  -6   6  16   88.39   12.10
  -6   6  16   82.59    6.50
  -5  -6  16   13.30    3.60
  -5   6  16   18.20    6.60
  -5   6  16   14.70    3.30
  -5   6  16   14.20    2.90
   5   6 -16    8.90    4.40
  -4  -6  16   56.09    9.20
   4   6 -16   54.09    4.60
  -4   6  16   61.19    9.60
  -4   6  16   48.30    4.70
   4   6 -16   54.69    4.30
  -4   6  16   50.69    3.90
  -3  -6  16   26.00    5.90
   3   6 -16   26.50    3.10
  -3   6  16   20.30    2.10
   3   6 -16   21.50    3.00
  -3   6  16   22.60    2.30
  -3   6  16   27.50    6.20
  -2  -6  16   10.60    4.40
  -2   6  16    5.30    3.20
   2   6 -16    7.40    1.90
  -2   6  16    7.90    1.70
   2   6 -16    6.40    2.30
  -1  -6  16   39.40    7.80
   1   6 -16   31.90    3.80
  -1   6  16   28.00    3.30
  -1   6  16   29.00    3.40
  -1   6  16   35.00    6.40
   1   6 -16   28.00    3.60
   0  -6 -16  366.36   12.50
   0  -6  16  368.96   18.20
   0   6  16  376.96   15.60
   0   6  16  344.17   11.60
   0   6 -16  365.96   12.30
   0   6 -16  356.26   12.90
  -1  -6 -16   83.49    6.60
   1  -6  16   69.89    9.60
  -1   6 -16   74.09    6.30
   1   6  16   78.39    7.10
   1   6  16   68.89    6.50
  -1   6 -16   67.79    7.60
   2  -6  16   38.80    7.70
  -2  -6 -16   29.30    4.70
   2   6  16   40.40    5.50
  -2   6 -16   36.00    5.70
  -3  -6 -16   63.49    8.50
   3  -6  16   62.39    9.30
  -3   6 -16   49.20    7.20
   3   6  16   60.29    5.60
  -4  -6 -16   51.79    7.90
   4  -6  16   54.79   10.00
  -4   6 -16   49.70    7.80
   4   6  16   47.40    4.60
   4   6  16   50.69    5.30
   5  -6  16    7.30    9.90
  -5  -6 -16    6.60    4.30
  -5   6 -16   11.00    5.70
  -6  -7  16    7.40    4.50
  -6   7  16   -2.70    4.00
  -6   7  16    3.00    3.30
  -5  -7  16   24.70    4.60
  -5  -7  16   34.60    8.20
  -5   7  16   17.60    5.80
  -5   7  16   33.80    4.70
  -4  -7  16   82.89   11.10
  -4   7  16   60.39    4.70
  -4   7  16   64.59    5.00
   4   7 -16   68.59    6.10
   4   7 -16   80.29    5.80
  -4   7  16   49.30    8.10
  -3  -7  16    2.10    3.30
  -3   7  16   -0.80    1.80
   3   7 -16    4.50    2.50
   3   7 -16    3.00    2.10
  -3   7  16    1.70    3.00
  -3   7  16    1.90    2.20
  -2  -7  16   64.79    9.50
   2   7 -16   53.69    4.80
  -2   7  16   63.79    9.20
   2   7 -16   64.09    4.70
  -2   7  16   63.59    4.40
  -2   7  16   65.09    4.30
  -1  -7  16   95.39    9.60
   1   7 -16   90.59    6.00
  -1   7  16   96.09    5.90
  -1   7  16   97.29    5.80
  -1   7  16  106.59    8.80
   1   7 -16   95.79    6.70
   0  -7 -16   12.80    3.50
   0  -7  16    8.50    4.80
   0   7 -16   13.30    3.00
   0   7 -16    6.00    4.00
   0   7  16   15.70    4.20
   0   7  16   14.30    3.70
   1  -7  16   24.40    6.30
  -1  -7 -16   18.20    4.00
   1   7  16   20.60    4.40
  -1   7 -16   19.70    4.10
   1   7  16   17.20    5.00
  -2  -7 -16   18.70    4.10
   2  -7  16   16.50    5.20
  -2   7 -16   13.90    4.20
   2   7  16   21.90    4.90
   2   7  16   16.00    4.00
   3  -7  16   -5.00    3.50
  -3  -7 -16    3.90    3.60
   3   7  16    1.90    2.50
   3   7  16   -3.30    3.30
  -3   7 -16    0.50    3.60
  -4  -7 -16    7.80    4.90
   4  -7  16   10.30    5.50
  -4   7 -16   11.90    5.10
  -5  -7 -16   18.80    6.70
   5  -7  16   19.60    6.60
  -5   7 -16    8.30    4.40
  -6  -8  16    1.60    4.80
  -6  -8  16   10.50    4.60
  -6   8  16   -3.80    4.00
  -6   8  16    7.70    6.40
  -5  -8  16    9.90    5.40
  -5  -8  16   16.70    4.70
  -5   8  16   14.90    3.90
  -5   8  16   16.60    6.10
  -4  -8  16   10.70    4.80
  -4   8  16   13.60    3.50
  -4   8  16   14.70    3.70
   4   8 -16   21.80    8.10
   4   8 -16   18.00    3.80
  -3  -8  16   78.69   10.20
  -3   8  16   67.99    5.10
  -3   8  16   61.89    5.70
  -3   8  16   64.99    9.60
   3   8 -16   65.49    5.60
   3   8 -16   75.29    6.30
  -2  -8  16    1.30    3.10
  -2   8  16    0.20    2.50
   2   8 -16    3.90    2.20
   2   8 -16    0.50    3.00
  -2   8  16    1.10    2.10
  -2   8  16    7.80    3.80
  -1  -8  16   24.70    6.00
  -1   8  16   26.30    5.00
  -1   8  16   34.70    4.80
  -1   8  16   26.90    4.40
   1   8 -16   30.00    5.00
   1   8 -16   26.90    4.20
   0  -8 -16   19.90    4.80
   0  -8  16   15.60    5.00
   0   8  16   21.10    5.10
   0   8  16   15.90    4.10
   0   8 -16   25.40    5.30
   0   8 -16   10.60    2.90
   1  -8  16   25.70    6.80
  -1  -8 -16   49.99    6.40
   1   8  16   42.30    5.70
  -2  -8 -16   -0.30    3.20
   2  -8  16    2.60    3.30
  -2   8 -16    0.50    3.00
   2   8  16   -1.70    2.40
   2   8  16   -5.10    3.40
   3  -8  16  122.29   12.10
  -3  -8 -16  123.29   10.20
  -3   8 -16  114.39   10.40
   3   8  16  122.79    6.50
   3   8  16  128.79    7.30
   4  -8  16    7.20    5.40
  -4  -8 -16    6.10    4.30
  -4   8 -16    4.80    4.70
   5  -8  16   -1.60    4.90
  -5  -8 -16    5.80    4.90
  -5   8 -16    2.90    5.20
  -5  -9  16    6.70    5.10
  -5  -9  16    5.00    4.20
  -5   9  16   10.40    3.90
  -5   9  16   10.00    4.70
  -4  -9  16   17.30    6.60
  -4   9  16   20.20    4.20
  -4   9  16   14.80    6.20
   4   9 -16   15.90    6.50
   4   9 -16   13.70    4.10
  -3  -9  16   34.00    7.10
  -3   9  16   43.20    8.00
   3   9 -16   42.60    5.90
  -3   9  16   48.60    5.00
   3   9 -16   44.90    5.80
  -2  -9  16    9.40    4.80
  -2   9  16    8.80    3.00
  -2   9  16    3.00    3.40
   2   9 -16    6.30    4.00
   2   9 -16    3.60    2.70
  -1  -9  16  215.78   14.60
  -1   9  16  200.18   10.00
   1   9 -16  202.58   11.00
   1   9 -16  187.98    9.80
  -1   9  16  210.58   12.50
  -1   9  16  179.58    9.90
   0  -9  16    0.40    3.10
   0  -9 -16    1.30    3.30
   0   9  16    2.40    3.10
   0   9 -16    3.60    2.90
   1  -9  16   51.09    8.30
  -1  -9 -16   54.59    7.40
  -1   9 -16   58.79    6.20
   1   9  16   56.49    7.10
   2  -9  16   23.60    7.00
  -2  -9 -16   28.40    5.40
   2   9  16   26.30    4.60
  -2   9 -16   16.90    4.10
   3  -9  16    5.10    4.50
  -3  -9 -16    1.40    3.60
  -3   9 -16    2.40    3.70
   3   9  16   -4.30    2.80
  -4  -9 -16   -2.10    5.00
   4  -9  16    2.40    5.20
  -4   9 -16    6.20    4.40
  -5 -10  16    3.40    5.00
  -5 -10  16    6.40    4.70
  -5  10  16    0.50    4.10
  -5  10  16   -2.00    3.60
  -4 -10  16   12.90    5.20
  -4  10  16   11.40    3.90
  -4  10  16    4.30    4.20
   3  10 -16    3.30    3.20
  -3  10  16    7.30    3.10
  -3  10  16   16.40    5.00
  -3  10  16   21.20    4.90
  -2 -10  16   41.10    7.60
   2  10 -16   51.79    6.60
  -2  10  16   44.50    5.70
  -2  10  16   42.40    7.00
  -2  10  16   44.80    6.00
  -1 -10  16   20.90    5.80
  -1  10  16   17.10    4.30
  -1  10  16   24.70    5.80
   1  10 -16   23.70    4.90
   0 -10  16   22.30    6.80
   0 -10 -16   21.20    6.00
   0  10  16   19.30    4.60
   0  10 -16   24.50    5.20
   1 -10  16   13.40    5.50
  -1 -10 -16   12.80    4.40
   1  10  16   11.90    3.50
  -1  10 -16   10.40    4.00
  -2 -10 -16   -2.60    3.10
   2 -10  16   -1.40    3.20
  -2  10 -16    0.50    2.90
   2  10  16    0.60    3.80
   2  10  16    0.10    2.80
   3 -10  16   19.20    7.10
  -3 -10 -16   18.90    5.30
  -3  10 -16   23.70    6.10
   4 -10  16   21.20    7.80
  -4 -10 -16   16.70    5.90
  -4  10 -16   10.00    4.90
  -5 -11  16    1.10    5.00
  -5 -11  16    6.60    5.10
  -5  11  16   -2.40    4.30
  -5  11  16    3.10    5.70
  -4 -11  16    5.30    4.70
  -4  11  16   16.60    6.10
  -4  11  16   18.60    4.90
   4  11 -16   24.70    5.80
  -3 -11  16    1.30    4.10
  -3  11  16    0.10    3.70
   3  11 -16    0.20    3.70
  -3  11  16   -0.60    5.10
  -2 -11  16  116.39   11.50
  -2  11  16  139.29   11.20
   2  11 -16  119.69    9.10
  -1 -11  16   13.00    5.80
   1  11 -16   14.30    3.70
  -1  11  16   13.70    4.50
  -1  11  16   12.60    3.90
   0 -11  16   22.10    5.70
   0 -11 -16   17.80    5.00
   0  11 -16   13.40    4.40
   0  11  16   16.80    4.40
   1 -11  16   35.30    8.40
  -1 -11 -16   30.40    6.70
   1  11  16   28.80    5.10
  -1  11 -16   14.70    4.50
   2 -11  16   24.20    6.80
  -2 -11 -16   29.60    5.90
  -2  11 -16   30.60    6.30
   2  11  16   27.20    4.20
  -3 -11 -16   -1.20    4.40
   3 -11  16    6.70    4.20
  -3  11 -16    1.90    4.80
  -4 -11 -16   17.70    6.50
   4 -11  16   12.00    7.00
  -4  11 -16   13.00    5.60
  -4 -12  16    2.70    5.20
  -4  12  16    6.50    4.40
  -4  12  16    8.40    4.40
   4  12 -16    2.10    4.20
  -3 -12  16    8.10    5.10
   3  12 -16    2.20    4.20
  -3  12  16    4.80    4.60
  -3  12  16    5.80    3.70
  -2 -12  16    2.90    4.90
  -2  12  16    4.90    3.70
   2  12 -16    5.40    3.60
  -2  12  16   10.20    3.70
  -1 -12  16   -6.10    3.50
  -1  12  16    0.60    3.40
  -1  12  16   -0.40    2.90
   1  12 -16   -0.60    2.90
   0 -12  16  103.19   13.20
   0 -12 -16  130.39   11.20
   0  12  16  126.49    9.70
   0  12 -16  134.79   10.80
  -1 -12 -16    8.10    4.60
   1 -12  16   -2.90    3.50
  -1  12 -16    7.30    3.80
   2 -12  16   60.09   10.70
  -2 -12 -16   68.99    9.20
   2  12  16   74.69    5.60
  -2  12 -16   68.99    8.90
   3 -12  16   -0.50    4.30
  -3 -12 -16   -0.80    7.30
  -3  12 -16   -1.90    4.20
  -3 -13  16    0.70    4.80
  -3  13  16   -2.40    3.80
   3  13 -16    5.60    4.70
  -3  13  16   -6.00    3.40
  -2 -13  16    8.10    5.50
  -2  13  16   21.60    5.40
   2  13 -16   28.60    6.60
  -2  13  16   24.70    5.80
  -1 -13  16   95.09   12.20
  -1  13  16   99.59    9.50
   1  13 -16  115.89    9.90
  -1  13  16  117.69   10.00
   0 -13 -16   26.30    6.10
   0 -13  16   34.80    7.10
   0  13 -16   20.90    5.50
   0  13  16   33.30    6.10
  -1 -13 -16   66.49    9.90
   1 -13  16   71.19   11.10
  -1  13 -16   77.29   10.20
  -2 -13 -16    7.70    5.50
   2 -13  16   13.20    5.20
  -2  13 -16    2.40    4.40
   2  13  16   12.50    3.30
  -2 -14  16    5.20    5.20
  -2  14  16    4.60    3.70
   2  14 -16    8.70    4.80
  -2  14  16   10.90    5.60
  -1 -14  16    3.20    4.20
  -1  14  16   10.00    4.80
  -1  14  16   11.20    4.40
   1  14 -16    8.40    4.60
   0 -14 -16   -6.80    4.90
   0 -14  16    5.30    5.60
   0  14 -16    2.30    4.30
   0  14  16   -1.90    3.20
   1 -14  16    7.60    5.10
  -1 -14 -16    8.60    5.40
   1  14  16    6.70    3.90
  -1  14 -16    7.90    5.20
  -6   0  17    1.00    3.80
  -5   0  17   26.50    6.80
  -4   0  17    0.30    2.80
  -3   0  17  307.97   16.40
  -2   0  17    0.60    2.10
  -1   0  17  125.69   10.10
   0   0  17    3.70    3.10
   0   0 -17   -0.70    1.10
   0   0 -17    0.70    0.90
   1   0  17  253.37   13.80
  -1   0 -17  231.58    9.10
   1   0  17  220.88    8.90
  -2   0 -17   -0.90    2.10
   2   0  17    1.90    3.00
   2   0  17    3.80    2.90
   3   0  17  120.59   10.30
  -3   0 -17  126.19    9.30
  -4   0 -17    0.30    3.30
   4   0  17    3.20    3.90
   5   0  17   14.50    5.60
  -5   0 -17   11.00    5.40
  -6  -1  17    2.30    3.90
  -6   1  17    8.20    5.10
  -5  -1  17   16.00    5.30
  -5   1  17   11.00    5.40
  -4  -1  17   52.79    9.00
  -4   1  17   44.80    7.90
  -3  -1  17    6.80    3.60
  -3   1  17   -1.00    2.30
  -2  -1  17   41.80    7.60
  -2   1  17   32.00    6.60
  -1  -1  17  172.38   11.60
  -1   1  17  203.58   12.80
   0  -1  17   60.19    8.10
   0  -1 -17   55.19    2.40
   0   1 -17   57.79    2.70
   0   1  17   61.49    8.20
   0   1 -17   50.19    2.90
   1  -1  17   24.30    3.30
   1  -1  17   35.00    6.90
  -1  -1 -17   32.80    4.30
   1   1  17   24.70    3.50
   1   1  17   25.70    5.00
  -1   1 -17   26.70    4.00
  -2  -1 -17   19.40    3.90
   2  -1  17   21.30    5.20
   2  -1  17   25.50    4.70
   2   1  17   18.10    4.10
  -2   1 -17   23.30    4.20
   2   1  17   24.20    5.10
  -3  -1 -17    9.70    3.60
   3  -1  17   16.70    4.90
   3   1  17   15.20    4.70
  -3   1 -17   11.80    4.40
   4  -1  17   40.80    7.30
  -4  -1 -17   30.90    5.80
   4   1  17   49.20    7.80
  -4   1 -17   37.10    6.10
  -5  -1 -17   21.60    6.00
   5  -1  17   25.60    5.80
   5   1  17   23.60    5.60
  -5   1 -17   28.30    7.00
  -6  -2  17   56.49   10.10
  -6   2  17   68.19   10.50
  -5  -2  17   -2.00    3.00
  -5   2  17   -0.80    2.90
  -4  -2  17   17.40    5.20
  -4   2  17   12.50    4.30
  -3  -2  17    5.90    4.00
  -3   2  17    3.20    2.90
  -2  -2  17   22.80    6.00
  -2   2  17   31.40    6.30
  -1  -2  17   40.70    7.80
  -1   2  17   23.50    5.30
   0  -2  17  211.28   12.90
   0  -2 -17  212.38    5.70
   0   2  17  203.18    5.70
   0   2  17  211.48   12.30
   0   2 -17  203.88    6.00
   1  -2  17   25.30    4.00
   1  -2  17   31.20    6.40
  -1  -2 -17   27.50    4.00
   1   2  17   34.30    6.00
   1   2  17   31.10    4.30
  -1   2 -17   33.00    4.20
  -2  -2 -17   46.30    5.80
   2  -2  17   33.20    5.40
   2  -2  17   42.10    7.30
   2   2  17   38.00    5.50
  -2   2 -17   35.00    4.90
   2   2  17   29.10    5.80
   3  -2  17    2.00    3.70
  -3  -2 -17    1.00    2.90
   3   2  17    3.00    3.50
  -3   2 -17    4.90    3.40
   4  -2  17   -2.50    3.70
  -4  -2 -17   -1.70    3.00
  -4   2 -17    3.40    3.80
   4   2  17    2.30    3.50
   5  -2  17    1.60    4.50
  -5  -2 -17    1.30    4.20
  -5   2 -17    4.80    4.70
  -6  -3  17    7.50    4.40
  -6   3  17    2.20    3.80
  -5  -3  17    1.70    3.90
  -5   3  17    0.10    3.20
  -4  -3  17   57.09    8.30
  -4   3  17   67.39    9.40
  -3  -3  17   -1.50    2.40
  -3   3  17   -0.60    2.00
  -2  -3  17  246.78   14.80
  -2   3  17  250.17   14.50
  -1  -3  17   36.70    6.80
  -1   3  17   38.00    6.40
   0  -3 -17    6.90    2.10
   0  -3  17    7.70    3.10
   0   3  17    9.90    2.00
   0   3  17    8.60    3.30
   0   3 -17   15.10    2.30
   0   3 -17   14.90    2.70
   1  -3  17   16.00    5.10
   1  -3  17   13.20    3.50
  -1  -3 -17   16.20    3.30
  -1   3 -17   20.30    3.70
   1   3  17   11.50    3.50
   1   3  17   17.70    4.70
   2  -3  17  224.98   14.00
  -2  -3 -17  228.08   10.90
  -2   3 -17  201.78   10.60
   2   3  17  214.38   12.20
  -3  -3 -17   11.10    4.00
   3  -3  17   12.60    4.10
  -3   3 -17    9.50    4.20
   3   3  17    2.70    3.50
  -4  -3 -17   54.29    8.50
   4  -3  17   40.20    8.50
  -4   3 -17   31.60    6.30
   4   3  17   42.40    6.10
  -5  -3 -17    7.20    5.70
   5  -3  17    4.30    4.80
   5   3  17    1.00    3.90
  -5   3 -17   -0.70    4.30
  -6  -4  17   44.00    8.50
  -6  -4  17   53.19    4.80
  -6   4  17   49.40    9.30
  -5  -4  17   11.80    5.80
  -5   4  17   14.00    5.50
  -4  -4  17    2.50    3.40
  -4   4  17   -3.40    2.90
  -3  -4  17   76.19   10.00
  -3   4  17   83.29    8.70
  -2  -4  17  104.89    9.70
  -2   4  17  107.09    9.30
  -1  -4  17   14.70    4.60
  -1   4  17   16.30    4.60
   0  -4  17  216.18   13.80
   0  -4 -17  216.08    7.60
   0   4 -17  221.78    8.00
   0   4  17  208.08    7.30
   0   4  17  218.98   12.40
   0   4 -17  194.58    8.10
   1  -4  17   16.70    4.70
  -1  -4 -17    8.70    2.90
  -1   4 -17   10.20    4.40
   1   4  17   20.00    4.60
  -1   4 -17   20.00    3.70
   1   4  17   17.50    3.40
   2  -4  17   78.79   10.50
  -2  -4 -17   81.39    7.10
  -2   4 -17   81.29    6.80
  -3  -4 -17   15.20    4.50
   3  -4  17   16.10    5.40
   3   4  17   16.80    4.50
  -3   4 -17   26.10    5.00
  -4  -4 -17   17.50    5.10
   4  -4  17   28.30    7.80
  -4  -4 -17   23.90    6.00
  -4   4 -17   20.30    5.50
   4   4  17   24.50    5.20
   5  -4  17   -0.30    5.20
   5   4  17    8.10    3.60
  -6  -5  17   -3.90    3.80
  -6  -5  17    2.90    3.20
  -6   5  17   -7.00    2.50
  -6   5  17   -0.70    3.90
  -5  -5  17   33.20    7.10
  -5   5  17   26.50    6.20
   5   5 -17   29.40    3.10
  -4  -5  17   23.90    5.70
  -4   5  17   22.90    5.60
  -3  -5  17   57.79    9.40
  -3   5  17   55.99    8.50
  -2  -5  17   39.40    7.30
  -2   5  17   32.10    6.00
  -1  -5  17   44.70    8.20
  -1   5  17   44.20    2.30
   1   5 -17   38.70    3.40
  -1   5  17   47.10    2.40
   1   5 -17   43.70    4.10
  -1   5  17   47.60    6.80
   0  -5  17   -0.30    3.10
   0  -5 -17    6.60    2.40
   0   5  17    4.50    2.20
   0   5 -17    5.00    2.90
   0   5 -17    0.70    1.80
   0   5  17    2.40    2.90
   1  -5  17  107.39   10.30
  -1  -5 -17  101.39    7.00
  -1   5 -17   96.99    6.80
   1   5  17   84.19    7.90
   1   5  17  103.99    8.60
  -1   5 -17  106.99    8.60
  -2  -5 -17   41.10    6.20
   2  -5  17   46.60    8.50
   2   5  17   43.70    5.90
   3  -5  17   -1.00    3.60
  -3  -5 -17    1.50    4.00
  -3  -5 -17    2.70    3.40
  -3   5 -17    6.30    3.50
   3   5  17   -3.40    3.00
   4  -5  17   13.20    4.90
  -4  -5 -17    7.00    4.20
  -4   5 -17   22.30    6.10
   4   5  17   10.40    3.90
  -5  -5 -17   57.79    9.30
  -5   5 -17   31.20    7.10
  -6  -6  17   39.00    7.80
  -6  -6  17   34.10    5.20
  -6   6  17   35.90    4.90
  -6   6  17   56.99   10.80
  -5  -6  17   26.50    7.00
  -5   6  17   31.10    7.40
   5   6 -17   37.40    4.00
  -4  -6  17    2.00    3.50
   4   6 -17    1.90    1.70
  -4   6  17   -3.60    2.80
  -3  -6  17  180.98   13.30
   3   6 -17  167.08    4.60
   3   6 -17  163.38    4.40
  -3   6  17  183.88   13.10
  -2  -6  17   14.90    4.90
   2   6 -17   15.30    2.30
  -2   6  17   14.80    4.90
  -1  -6  17   -0.30    3.20
   1   6 -17    5.70    2.60
  -1   6  17    6.50    2.00
  -1   6  17    5.90    3.70
  -1   6  17    8.50    1.80
   1   6 -17    9.90    1.90
   0  -6  17    5.40    3.70
   0  -6 -17   11.70    3.00
   0   6 -17    3.80    2.40
   0   6 -17    7.50    3.70
   0   6  17    8.40    3.60
   0   6  17    8.70    2.90
  -1  -6 -17   82.59    6.70
   1  -6  17   84.99   10.80
   1   6  17   85.69    8.00
  -1   6 -17   85.49    8.20
  -1   6 -17   83.39    6.70
   1   6  17   68.69    6.70
   2  -6  17    7.90    3.60
  -2  -6 -17   12.10    3.60
  -2   6 -17    7.80    3.60
   2   6  17    9.00    3.60
  -3  -6 -17   98.59    8.90
   3  -6  17  114.39   11.80
  -3   6 -17  113.59    9.50
   3   6  17  111.49    7.90
  -4  -6 -17   -2.00    3.70
   4  -6  17    8.00    5.30
   4   6  17    2.60    2.80
  -4   6 -17    3.50    3.70
  -5  -6 -17   -1.80    3.60
   5  -6  17   -6.30    4.60
  -5   6 -17    5.50    4.40
  -6  -7  17    2.60    4.70
  -6  -7  17    3.20    4.00
  -6   7  17   -4.90    3.50
  -6   7  17    0.70    4.80
  -5  -7  17   50.49    8.30
   5   7 -17   36.20    4.80
  -5   7  17   37.00    3.90
  -5   7  17   26.60    6.00
  -4  -7  17   43.70    8.80
   4   7 -17   48.00    4.70
  -4   7  17   45.40    4.70
  -4   7  17   56.79    9.50
   4   7 -17   50.59    5.40
  -3  -7  17    7.00    4.40
   3   7 -17    5.80    2.30
   3   7 -17    3.40    2.80
  -3   7  17    6.50    2.30
  -3   7  17    5.30    3.40
  -2  -7  17    2.10    2.90
   2   7 -17    7.10    1.90
   2   7 -17   13.40    2.90
  -2   7  17    6.50    2.10
  -2   7  17    6.90    2.00
  -2   7  17    5.40    3.00
  -1  -7  17  153.38   12.60
  -1   7  17  154.08   11.10
  -1   7  17  142.59    6.80
   1   7 -17  146.89    7.00
  -1   7  17  135.39    6.60
   1   7 -17  146.59    7.80
   0  -7 -17    1.40    2.90
   0  -7  17   -0.70    3.20
   0   7 -17    7.90    2.80
   0   7  17    0.40    2.70
   0   7  17    3.30    3.00
   0   7 -17    0.80    3.70
  -1  -7 -17    8.90    3.60
   1  -7  17   21.20    6.10
   1   7  17    8.90    3.40
  -1   7 -17   10.40    3.40
  -2  -7 -17   63.69    8.00
   2  -7  17   70.79   10.90
   2   7  17   61.49    8.20
   2   7  17   78.59    6.80
  -2   7 -17   72.59    7.20
  -3  -7 -17    0.30    3.10
   3  -7  17   -4.50    3.90
   3   7  17   -0.50    2.90
   3   7  17   -3.60    3.60
  -3   7 -17    0.60    3.20
  -4  -7 -17   -7.90    3.50
   4  -7  17   -6.50    4.50
  -4   7 -17    1.00    3.70
  -5  -8  17   11.70    4.90
  -5   8  17    3.60    3.90
  -5   8  17    0.40    2.80
   5   8 -17   -2.00    3.20
  -4  -8  17   12.10    5.00
   4   8 -17   13.40    3.60
  -4   8  17    9.10    4.40
  -4   8  17    5.40    2.50
   4   8 -17    9.30    4.80
  -3  -8  17    9.30    4.90
   3   8 -17    9.40    2.60
  -3   8  17   10.60    2.80
  -3   8  17    8.40    4.20
   3   8 -17   -0.20    3.20
  -3   8  17    9.40    2.90
  -2  -8  17   30.60    6.90
   2   8 -17   16.90    3.80
   2   8 -17   21.60    3.80
  -2   8  17   23.80    3.60
  -2   8  17   17.90    3.20
  -2   8  17   16.30    4.70
  -1  -8  17    2.60    3.70
   1   8 -17    5.70    2.20
  -1   8  17    2.80    2.30
  -1   8  17    5.30    2.70
  -1   8  17    1.20    3.10
   0  -8  17  144.49   12.50
   0  -8 -17  135.49    8.80
   0   8  17  151.98   10.70
   0   8 -17  153.28   10.10
   0   8  17  144.69    8.70
   0   8 -17  155.58    9.00
  -1  -8 -17   35.10    5.70
   1  -8  17   39.10    7.00
   1   8  17   28.90    5.30
  -1   8 -17   40.30    6.20
   2  -8  17    1.30    4.40
  -2  -8 -17    3.60    3.30
  -2   8 -17   -0.50    2.90
   2   8  17    3.10    2.70
   2   8  17    3.00    4.00
  -3  -8 -17    4.00    3.50
   3  -8  17    2.60    4.30
  -3   8 -17    0.50    3.20
   3   8  17    2.00    2.50
   4  -8  17   26.70    7.90
  -4  -8 -17   23.50    6.00
  -4   8 -17   18.50    5.80
  -5  -9  17    2.20    4.30
  -5   9  17   -0.30    3.80
   5   9 -17    2.70    4.00
  -5   9  17   -0.70    3.40
  -4  -9  17   28.20    6.30
   4   9 -17   35.40    4.90
  -4   9  17   34.60    4.70
  -4   9  17   15.70    5.10
  -3  -9  17    1.50    3.40
   3   9 -17    3.70    5.00
   3   9 -17   -1.00    2.70
  -3   9  17    2.80    2.60
  -3   9  17    1.00    3.30
  -2  -9  17   48.40   10.20
  -2   9  17   46.00    5.60
   2   9 -17   55.99    6.90
  -2   9  17   55.79    8.70
   2   9 -17   52.39    5.80
  -2   9  17   53.49    5.00
  -1  -9  17   23.10    6.60
   1   9 -17   19.90    3.90
  -1   9  17   23.40    4.40
   1   9 -17   20.80    5.30
  -1   9  17   16.70    4.10
  -1   9  17   13.30    4.10
   0  -9  17   22.90    6.70
   0  -9 -17   22.00    4.80
   0   9 -17   26.40    4.90
   0   9  17   18.30    4.80
  -1  -9 -17    0.60    3.20
   1   9  17    2.30    3.20
  -1   9 -17   -0.30    3.10
  -2  -9 -17   19.10    5.40
   2  -9  17   41.50    9.10
   2   9  17   35.40    4.90
   2   9  17   28.40    7.60
  -2   9 -17   26.10    5.40
  -3  -9 -17   13.20    5.20
   3  -9  17   10.40    4.90
  -3   9 -17    5.90    4.60
   3   9  17   15.60    2.80
   4  -9  17   18.70    6.90
  -4   9 -17   11.30    5.20
  -5 -10  17   -0.80    4.70
  -5  10  17   -1.70    3.70
   5  10 -17   -2.90    4.30
  -5  10  17   -4.40    4.40
  -4 -10  17   19.40    5.80
  -4  10  17   28.60    4.70
  -4  10  17   17.20    6.00
   4  10 -17   16.30    4.70
  -3 -10  17  119.99   15.20
  -3  10  17  104.09    7.30
   3  10 -17   88.99    7.20
  -2 -10  17   21.80    5.70
  -2  10  17    8.50    4.30
   2  10 -17   23.50    4.10
  -2  10  17   20.20    4.10
  -2  10  17   22.40    5.80
  -1 -10  17    4.40    4.20
   1  10 -17    7.00    3.80
  -1  10  17   -1.10    2.90
  -1  10  17    4.30    3.30
   0 -10  17   25.70    5.80
   0 -10 -17   27.00    6.40
   0  10  17   33.30    6.20
   0  10 -17   29.00    5.40
   1 -10  17   14.70    5.20
  -1 -10 -17   34.80    6.20
  -1  10 -17   24.10    5.60
   1  10  17   18.30    4.30
   2 -10  17    5.50    4.50
  -2 -10 -17   -0.30    3.80
   2  10  17   -0.40    3.10
  -2  10 -17    1.00    3.30
  -3 -10 -17   76.39    9.60
   3 -10  17   75.49   11.70
  -3  10 -17  110.19   10.20
  -4 -11  17   -0.90    4.30
   4  11 -17    4.40    3.80
  -4  11  17    5.00    4.30
  -3 -11  17   -0.70    3.50
  -3  11  17   13.90    5.90
   3  11 -17    9.70    4.10
  -3  11  17    8.70    4.10
  -2 -11  17   13.50    5.10
  -2  11  17   11.60    4.70
  -2  11  17    7.10    4.30
   2  11 -17   17.20    4.60
  -1 -11  17   53.49    9.40
  -1  11  17   49.20    7.00
  -1  11  17   42.80    7.10
   1  11 -17   47.00    7.10
   0 -11 -17   -0.30    3.60
   0 -11  17    3.40    4.40
   0  11  17    5.00    3.60
   0  11 -17    1.70    3.10
   1 -11  17   55.49    8.90
  -1 -11 -17   45.10    7.50
  -1  11 -17   66.09    8.90
   1  11  17   44.70    6.40
   2 -11  17    5.60    5.10
  -2 -11 -17   -2.90    3.70
  -2  11 -17    4.70    4.10
   2  11  17    1.20    3.00
   3 -11  17    4.20    5.10
  -3 -11 -17   -6.30    4.10
  -3  11 -17    7.10    5.30
  -3 -12  17   67.29   10.80
   3  12 -17   85.79    8.50
  -3  12  17   67.69    9.70
  -3  12  17   76.69    8.90
  -2 -12  17   -0.30    3.70
  -2  12  17    7.90    4.60
  -2  12  17    0.20    3.50
   2  12 -17   14.50    4.30
  -1 -12  17    5.50    5.20
   1  12 -17    3.80    3.90
  -1  12  17    3.10    4.30
  -1  12  17    8.20    3.60
   0 -12  17   -0.80    4.40
   0 -12 -17   -4.10    4.20
   0  12 -17   -4.30    3.80
   0  12  17   -0.90    3.10
  -1 -12 -17   15.20    5.20
   1 -12  17   13.60    6.50
  -1  12 -17    7.70    4.00
   1  12  17   10.70    4.10
  -2 -12 -17    2.80    4.60
   2 -12  17   -1.40    3.80
  -2  12 -17    0.80    4.30
   2  12  17   -2.20    3.20
  -3 -13  17   18.40    6.70
  -3  13  17   33.40    7.70
   3  13 -17   20.80    6.10
  -3  13  17   20.00    6.10
  -2 -13  17   28.00    7.90
   2  13 -17   31.90    6.40
  -2  13  17   31.10    8.40
  -2  13  17   30.80    7.00
  -1 -13  17   17.30    6.90
   1  13 -17    8.90    4.60
  -1  13  17   14.80    4.60
  -1  13  17   12.60    5.20
   0 -13  17    7.20    4.90
   0 -13 -17   -1.20    5.10
   0  13  17    9.50    4.20
   0  13 -17    5.60    3.70
  -1 -13 -17   24.40    5.90
   1 -13  17   29.90    7.60
  -1  13 -17   21.20    5.50
   1  13  17   20.90    5.30
  -1 -14  17    2.10    5.20
  -1  14  17   -1.10    4.00
   1  14 -17   -3.20    4.20
  -1  14  17   -2.00    4.00
   0 -14  17   22.60    7.40
   0 -14 -17   39.00    7.50
   0  14 -17   29.50    6.70
   0  14  17   29.30    5.90
  -6   0  18   77.49   11.60
  -5   0  18   -3.10    3.50
  -4   0  18   66.29    9.40
  -3   0  18    0.60    3.00
  -2   0  18   31.00    5.90
  -1   0  18    0.40    3.30
   0   0  18   13.90    4.70
   1   0  18    0.10    3.10
   1   0  18   -2.20    2.30
  -1   0 -18   -1.30    1.70
   2   0  18    0.40    3.70
   2   0  18    3.40    3.30
  -2   0 -18    5.50    2.60
  -3   0 -18    2.70    3.50
   3   0  18    2.30    3.60
   4   0  18   11.10    4.80
  -4   0 -18   13.40    4.70
  -5   0 -18    0.00    5.20
   5   0  18   -5.40    4.40
  -6  -1  18    5.70    4.60
  -6   1  18   10.00    4.60
  -5  -1  18   42.20    7.60
  -5   1  18   55.39   10.10
  -4  -1  18   38.70    7.60
  -4   1  18   46.30    8.90
  -3  -1  18    7.70    4.20
  -3   1  18    2.00    3.50
  -2  -1  18  138.99   10.90
  -2   1  18  134.49   11.00
  -1  -1  18   67.39    9.30
  -1   1  18   83.79    8.60
   0  -1  18   19.50    4.60
   0   1  18   14.00    4.50
  -1  -1 -18    2.00    2.10
   1  -1  18    0.70    2.30
   1  -1  18    4.40    3.10
   1   1  18   -0.80    2.40
   1   1  18    2.80    2.80
  -1   1 -18    0.50    2.00
  -2  -1 -18   36.30    5.20
   2  -1  18   33.10    6.70
   2  -1  18   32.40    5.80
   2   1  18   35.10    5.60
   2   1  18   32.20    6.60
  -2   1 -18   33.40    4.90
  -3  -1 -18    6.20    4.10
   3  -1  18    2.70    4.00
   3   1  18   -1.20    3.30
  -3   1 -18    6.50    3.60
   4  -1  18   51.39    8.10
  -4  -1 -18   69.19    9.10
   4   1  18   40.90    7.50
  -4   1 -18   66.09    8.50
   5  -1  18    5.70    5.30
  -5  -1 -18    1.10    4.50
   5   1  18   -4.80    4.60
  -5   1 -18   -1.20    6.30
  -6  -2  18   17.60    5.70
  -6   2  18   30.00    6.70
  -5  -2  18   37.90    8.10
  -5   2  18   20.00    6.40
  -4  -2  18    3.30    3.50
  -4   2  18    4.90    4.10
  -3  -2  18   72.19    9.90
  -3   2  18   85.89   11.10
  -2  -2  18  121.59   10.60
  -2   2  18  105.39    9.80
  -1  -2  18   48.80    7.70
  -1   2  18   53.89    8.00
   0  -2  18   13.30    4.20
   0   2 -18    4.40    1.50
   0   2  18    3.20    3.40
   0   2 -18    5.90    1.40
   1  -2  18  102.49   10.10
  -1  -2 -18  109.19    6.40
   1  -2  18   79.29    6.10
  -1   2 -18  100.39    6.30
   1   2  18   89.39    8.60
   1   2  18   89.79    6.00
  -2  -2 -18    7.20    3.30
   2  -2  18    0.20    3.40
   2   2  18   -3.00    3.50
  -2   2 -18    2.60    2.90
   2   2  18   -1.10    3.20
   3  -2  18   40.50    7.10
  -3  -2 -18   59.09    7.80
   3   2  18   48.90    7.20
  -3   2 -18   61.39    8.30
  -4  -2 -18   10.00    4.40
   4  -2  18    8.40    4.60
   4   2  18    6.90    4.20
  -4   2 -18    8.60    4.10
   5  -2  18   10.60    5.50
   5   2  18   11.60    5.20
  -6  -3  18    8.40    5.70
  -6   3  18   -4.80    3.70
  -5  -3  18   56.39    9.70
  -5   3  18   31.90    6.20
  -4   3  18   16.30    6.90
  -3  -3  18    0.80    3.20
  -3   3  18    2.10    3.00
  -2  -3  18    2.20    3.10
  -2   3  18   -3.30    2.30
  -1  -3  18   76.29   10.20
  -1   3  18   86.69    8.90
   0  -3 -18   31.10    2.60
   0  -3  18   21.20    5.60
   0   3  18   28.20    3.00
   0   3  18   39.40    6.40
   0   3 -18   27.80    3.20
   1  -3  18  121.39   10.80
  -1  -3 -18  133.99    7.30
  -1   3 -18  121.59    7.00
  -1   3 -18  117.59    8.10
   1   3  18  109.79    7.00
   1   3  18  118.49    9.30
   2  -3  18    7.00    3.90
  -2  -3 -18   14.60    3.80
   2   3  18   13.80    4.60
  -2   3 -18   12.40    3.70
  -3  -3 -18    5.10    4.00
   3  -3  18    4.60    4.70
  -3   3 -18    5.30    3.90
   3   3  18    6.60    4.00
   4  -3  18    7.80    4.40
  -4  -3 -18   18.00    4.90
   4   3  18   15.50    5.20
  -4   3 -18    9.50    5.20
  -5  -3 -18   93.19   13.40
   5  -3  18  111.39   11.90
  -5   3 -18   77.59   10.50
   5   3  18   98.89    9.00
  -6  -4  18   39.80    9.10
  -6   4  18   36.40    8.80
  -5  -4  18   49.90    9.20
  -5   4  18   42.90    7.70
  -4  -4  18   24.80    6.40
  -4   4  18   21.40    8.10
  -3  -4  18   21.50    6.10
  -3   4  18   11.70    4.30
  -2  -4  18    2.90    3.60
  -2   4  18    2.00    3.10
  -1  -4  18    3.60    4.10
  -1   4  18    3.10    3.20
   0  -4  18   64.99   10.00
   0   4 -18   47.90    4.60
   0   4  18   40.50    3.60
   0   4 -18   39.00    3.70
   0   4  18   46.90    6.70
  -1  -4 -18   22.40    3.90
   1  -4  18   20.80    5.20
   1   4  18   19.90    5.30
   1   4  18   12.50    3.90
  -1   4 -18   24.50    4.20
  -2  -4 -18    4.10    3.00
   2  -4  18   -2.30    3.10
   2   4  18    6.70    3.50
  -2   4 -18    1.60    3.00
  -3  -4 -18  119.89    9.90
   3  -4  18  156.78   12.90
  -3   4 -18  123.49    9.90
  -4  -4 -18    3.80    3.80
   4  -4  18    2.50    4.80
  -4   4 -18   -0.50    3.70
   4   4  18    5.60    4.50
  -5  -4 -18    1.80    4.30
  -5   4 -18   -1.50    4.30
   5   4  18    8.40    4.30
  -6  -5  18   19.70    6.50
  -6   5  18   33.90    7.90
  -5  -5  18    9.60    4.90
  -5   5  18   11.70    5.30
  -4  -5  18  146.69   12.80
  -4   5  18  152.48   12.30
  -3  -5  18   35.80    7.20
  -3   5  18   23.80    6.10
  -2  -5  18   11.60    4.20
  -2   5  18   -0.40    3.20
  -1  -5  18   45.70    7.80
   1   5 -18   44.60    2.60
  -1   5  18   59.29    8.00
   1   5 -18   50.59    2.50
   0  -5  18    6.10    4.30
   0  -5 -18    1.90    2.20
   0   5 -18   -0.30    2.70
   0   5  18    2.60    2.20
   0   5 -18    4.50    2.20
   0   5  18   -3.40    2.60
   1  -5  18   -0.60    3.10
  -1  -5 -18    3.90    2.40
  -1   5 -18    9.30    4.30
   1   5  18    2.30    2.90
  -1   5 -18    1.10    2.30
   1   5  18    0.00    3.50
   2  -5  18  150.48   13.00
  -2   5 -18  154.88   10.00
   2   5  18  168.88   10.40
  -3  -5 -18   22.30    5.40
   3  -5  18   14.20    5.60
  -3   5 -18   22.80    5.60
   3   5  18   18.70    4.40
  -4  -5 -18   22.00    6.10
   4  -5  18   27.50    8.50
  -4   5 -18   24.50    5.20
   4   5  18   16.10    4.20
  -5  -6  18   -0.10    3.60
  -5   6  18   -4.10    3.50
  -4  -6  18   -0.50    3.60
  -4   6  18   -0.20    3.60
  -3  -6  18   13.60    5.80
  -3   6  18   11.70    4.30
  -2  -6  18    0.10    3.00
  -2   6  18   -0.20    2.80
  -1  -6  18   -1.70    2.60
  -1   6  18    2.60    1.50
   1   6 -18    1.70    2.10
  -1   6  18   -0.60    2.80
   1   6 -18    1.20    1.80
   0  -6 -18  126.49    7.20
   0  -6  18  148.29   12.30
   0   6 -18  121.29    7.50
   0   6  18  140.79   10.40
   0   6 -18  140.49    7.50
   0   6  18  129.89    6.90
   1  -6  18   -0.20    3.60
  -1  -6 -18   -1.00    2.60
   1   6  18    0.40    3.60
  -1   6 -18   -2.10    4.70
   1   6  18    3.40    3.40
  -1   6 -18   -3.30    2.40
  -2  -6 -18   11.40    4.20
   2  -6  18   26.10    7.30
  -2   6 -18   28.60    5.50
  -3  -6 -18    8.70    4.70
   3  -6  18   31.40    7.80
  -3   6 -18   11.00    4.80
   3   6  18    5.50    3.80
  -4  -6 -18   55.99    9.10
   4  -6  18   43.90    8.80
  -4   6 -18   63.29    8.80
   4   6  18   64.09    6.00
  -5  -7  18   10.00    5.20
   5   7 -18    6.80    3.50
  -5   7  18    5.50    4.90
  -4  -7  18   52.39    8.70
   4   7 -18   61.39    4.00
  -4   7  18   40.10    7.90
  -3  -7  18   19.70    6.20
   3   7 -18   21.20    2.40
  -3   7  18   29.10    6.80
  -2  -7  18    0.10    4.20
  -2   7  18    5.60    4.00
   2   7 -18    5.70    2.10
   2   7 -18    2.40    2.50
  -2   7  18    6.10    1.40
  -2   7  18    5.00    1.40
  -1  -7  18   30.70    7.00
   1   7 -18   32.50    4.30
   1   7 -18   37.20    5.00
  -1   7  18   36.10    3.80
  -1   7  18   34.30    7.00
  -1   7  18   25.90    3.50
   0  -7  18   23.20    6.80
   0  -7 -18   28.90    4.80
   0   7  18   24.10    4.10
   0   7  18   33.40    6.50
   0   7 -18   31.20    4.70
   0   7 -18   37.30    5.70
  -1  -7 -18   73.19    6.80
   1  -7  18   78.39   10.90
  -1   7 -18   85.99    7.30
   1   7  18   67.99    7.30
  -2  -7 -18    4.50    3.90
   2  -7  18    2.90    4.30
   2   7  18   10.90    3.60
  -2   7 -18    5.80    3.70
   3  -7  18   20.30    7.20
  -3  -7 -18   22.50    5.40
   3   7  18   13.90    4.20
  -3   7 -18   16.30    4.90
  -4  -7 -18   20.60    6.30
   4  -7  18   23.30    6.20
  -4   7 -18   18.30    5.70
  -5  -8  18   38.60    7.70
  -5   8  18   28.80    6.60
   5   8 -18   29.40    4.50
  -4  -8  18    0.40    3.70
  -4   8  18    5.60    4.20
   4   8 -18    3.90    2.80
  -3  -8  18  104.19   10.70
   3   8 -18  105.09    7.00
   3   8 -18  103.09    5.70
  -3   8  18  116.99   12.20
  -2  -8  18   -1.30    4.20
  -2   8  18    6.70    2.60
  -2   8  18   -4.00    2.90
  -2   8  18    0.50    2.00
   2   8 -18    1.90    2.50
   2   8 -18    4.80    3.40
  -1   8  18    2.90    2.70
  -1   8  18   -2.60    2.10
   1   8 -18   -1.20    4.00
   1   8 -18   -2.10    2.30
  -1   8  18    0.30    2.60
   0  -8 -18   26.00    4.50
   0  -8  18   37.80   10.50
   0   8 -18   36.60    5.10
   0   8  18   24.10    4.90
   0   8 -18   19.60    5.20
   0   8  18   23.80    5.50
  -1  -8 -18    9.10    4.70
   1  -8  18   14.40    8.90
   1   8  18   12.60    4.40
  -1   8 -18    2.60    3.40
   2  -8  18   11.50    5.30
  -2  -8 -18   12.50    4.20
  -2   8 -18   10.80    4.60
   2   8  18    4.90    3.20
   3  -8  18   46.70    9.40
  -3  -8 -18   40.60    6.90
  -3   8 -18   51.39    8.70
   3   8  18   44.40    5.00
  -4  -8 -18   -0.60    4.90
   4  -8  18   -5.00    5.00
  -4  -9  18    4.00    4.90
   4   9 -18    0.70    3.20
  -4   9  18    0.10    3.80
  -4   9  18   -1.50    2.80
  -3  -9  18   15.80    5.50
  -3   9  18   17.60    5.60
   3   9 -18   17.80    3.80
  -3   9  18   17.90    3.20
  -2  -9  18    5.40    4.70
  -2   9  18    9.30    4.10
   2   9 -18   11.60    3.50
  -2   9  18    7.40    3.00
  -2   9  18    8.60    3.80
  -1  -9  18  107.89   11.40
  -1   9  18  111.39    9.50
  -1   9  18  104.59    6.90
  -1   9  18  121.69   10.00
   1   9 -18   88.79    9.30
   1   9 -18  107.89    7.60
   0  -9 -18    7.70    3.80
   0  -9  18   16.80    6.20
   0   9  18   15.60    4.30
   0   9 -18    7.80    3.20
  -1  -9 -18   41.70    6.70
   1  -9  18   17.10    5.20
   1   9  18   36.30    5.80
  -1   9 -18   46.50    6.90
   2  -9  18   59.49   11.10
  -2  -9 -18   60.39    8.30
  -2   9 -18   59.09    8.70
   2   9  18   63.59    6.60
   3  -9  18    1.50    4.30
  -3  -9 -18    6.90    5.20
  -3   9 -18    3.80    4.30
   3   9  18   -0.20    2.80
  -4 -10  18   13.70    5.80
  -4  10  18   10.30    5.50
   4  10 -18   -2.20    3.80
  -4  10  18   -0.40    3.10
  -3 -10  18   75.19   11.10
  -3  10  18   60.19    5.70
  -3  10  18   55.39    9.40
   3  10 -18   76.69    6.90
  -2 -10  18   29.60    7.40
   2  10 -18   42.40    5.50
  -2  10  18   34.10    7.50
  -2  10  18   36.50    5.30
  -1 -10  18   12.00    5.10
   1  10 -18   18.70    4.60
  -1  10  18   16.90    4.30
  -1  10  18   13.50    4.60
   0 -10  18   86.59   12.00
   0  10  18  103.99    9.20
   0  10 -18   92.29    8.30
  -1 -10 -18    4.70    4.20
   1 -10  18   -2.00    3.70
   1  10  18    0.60    3.60
  -1  10 -18   -4.50    3.10
  -2 -10 -18   -2.00    4.10
   2 -10  18    1.30    4.00
  -2  10 -18   -0.80    3.80
   2  10  18    1.70    3.00
  -3 -10 -18    4.40    4.70
   3 -10  18   11.30    6.20
  -3  10 -18    6.70    4.90
  -3 -11  18    2.90    5.00
  -3  11  18   -2.00    3.00
  -3  11  18   -2.20    3.40
  -2 -11  18   54.19    9.20
  -2  11  18   75.29   10.00
   2  11 -18   51.29    7.20
  -2  11  18   69.09    6.80
  -1 -11  18    0.10    3.70
   1  11 -18    5.10    3.40
  -1  11  18    3.60    3.50
  -1  11  18    3.00    3.80
   0 -11 -18    5.20    4.70
   0 -11  18    1.80    4.00
   0  11 -18    4.90    3.70
   0  11  18   -0.40    3.90
  -1 -11 -18   -3.40    4.10
   1 -11  18   11.40    5.10
  -1  11 -18   -2.90    3.80
   1  11  18    0.50    3.60
  -2 -11 -18   25.90    6.60
   2 -11  18   27.50    8.30
   2  11  18   37.20    4.70
  -2  11 -18   30.20    7.20
  -3 -12  18   21.50    6.40
  -3  12  18    9.70    4.30
  -3  12  18   10.50    5.20
   3  12 -18    8.80    4.60
  -2 -12  18   49.99   10.70
  -2  12  18   58.79    7.50
   2  12 -18   67.99    8.30
  -2  12  18   51.79    8.10
  -1 -12  18    5.60    4.50
   1  12 -18    2.70    4.30
  -1  12  18    2.50    3.50
  -1  12  18   -1.30    4.00
   0 -12 -18   26.90    7.20
   0 -12  18   35.10    8.40
   0  12  18   30.20    5.70
   0  12 -18   27.30    6.00
  -1 -12 -18    5.10    4.10
   1 -12  18    1.20    4.30
  -1  12 -18    8.80    4.30
   1  12  18    3.30    4.10
  -1 -13  18   77.09   12.90
   1  13 -18   62.09    8.80
  -1  13  18   70.29    8.90
  -1  13  18   85.99    9.10
   0 -13 -18    7.60    5.00
   0 -13  18    4.20    4.90
   0  13  18    5.10    4.10
   0  13 -18   17.30    5.40
  -6   0  19    7.90    5.40
  -5   0  19   13.50    5.90
  -4   0  19    0.70    3.40
  -3   0  19   11.00    5.10
  -2   0  19    2.30    3.20
  -1   0  19    3.50    3.40
   0   0  19    2.70    3.70
  -1   0 -19   65.59    5.10
   1   0  19   51.59    8.60
   1   0  19   62.39    5.10
   2   0  19    3.20    3.30
  -2   0 -19   -0.80    2.70
   2   0  19    3.80    3.90
  -3   0 -19  108.39    8.90
   3   0  19   88.99    9.20
  -4   0 -19   -2.30    3.80
   4   0  19   -0.20    4.20
  -6  -1  19    5.80    5.40
  -6   1  19    1.40    4.80
  -5  -1  19   29.90    6.80
  -5   1  19   22.00    7.10
  -4  -1  19    5.10    3.70
  -4   1  19    5.20    4.40
  -3  -1  19   31.40    7.40
  -3   1  19   25.80    5.40
  -2  -1  19    8.40    4.00
  -2   1  19   18.00    5.30
  -1  -1  19  118.89   10.70
  -1   1  19  122.69   10.50
   0  -1  19   32.50    6.60
   0   1  19   37.00    7.00
   1  -1  19   46.90    4.80
  -1  -1 -19   54.99    4.90
   1  -1  19   46.50    7.60
  -1   1 -19   54.89    4.80
   1   1  19   45.70    4.60
   1   1  19   46.30    7.80
  -2  -1 -19   10.30    3.50
   2  -1  19    3.60    3.40
   2   1  19   11.30    4.50
  -2   1 -19    5.90    3.00
   2   1  19    8.40    4.60
   3  -1  19    0.60    3.90
  -3  -1 -19   -1.50    3.20
   3   1  19    4.10    4.20
  -3   1 -19    2.80    3.40
   4  -1  19    7.50    4.90
  -4  -1 -19    6.50    4.20
   4   1  19    1.30    4.30
  -4   1 -19    7.10    4.70
  -6  -2  19   17.10    7.30
  -6   2  19   16.60    5.80
  -5  -2  19   10.50    5.20
  -5   2  19    4.60    4.00
  -4  -2  19    7.00    4.30
  -4   2  19    2.10    3.10
  -3  -2  19   43.30    8.00
  -3   2  19   59.19    8.10
  -2  -2  19  138.59   11.70
  -2   2  19  131.09   11.30
  -1  -2  19   11.00    4.90
  -1   2  19    6.80    3.60
   0  -2  19  105.89   10.00
   0   2  19  115.09    9.70
  -1  -2 -19    0.40    2.30
   1  -2  19    0.90    3.10
  -1   2 -19   -0.60    2.20
   1   2  19    1.20    2.80
   1   2  19   -2.60    2.70
   2  -2  19    1.40    3.90
  -2  -2 -19   -3.10    2.50
  -2   2 -19    1.60    2.70
   2   2  19    5.00    3.60
   3  -2  19   53.99    8.70
  -3  -2 -19   80.09    7.90
  -3   2 -19   79.79    7.90
   3   2  19   74.39    9.40
   4  -2  19   21.30    6.20
  -4  -2 -19   25.30    6.50
   4   2  19   25.60    6.30
  -4   2 -19   28.30    6.90
  -5  -3  19    3.10    5.90
  -5   3  19   23.60    5.70
  -4  -3  19   79.29   10.30
  -4   3  19  103.09   10.90
  -3  -3  19    4.60    4.90
  -3   3  19    1.80    3.50
  -2  -3  19   67.29    9.70
  -2   3  19   94.39    9.30
  -1  -3  19    5.20    3.90
  -1   3  19    2.20    2.90
   0  -3  19    4.20    3.70
   0   3 -19    0.00    1.60
   0   3 -19    2.50    1.40
   0   3  19   -0.80    2.80
  -1  -3 -19   15.30    3.10
   1  -3  19   14.30    5.30
  -1   3 -19   10.70    4.20
   1   3  19   14.50    3.40
  -1   3 -19   16.80    3.50
   1   3  19    8.60    4.20
   2  -3  19  137.29   12.00
  -2  -3 -19  119.49    8.40
   2   3  19  123.49   10.30
  -2   3 -19  116.49    8.50
   3  -3  19   -4.70    3.60
  -3  -3 -19    3.30    3.60
   3   3  19    2.80    3.80
  -3   3 -19   -0.20    3.60
   4  -3  19   16.10    6.80
  -4  -3 -19   16.50    5.10
   4   3  19   23.40    6.00
  -4   3 -19   16.20    5.30
  -5  -4  19   36.30    7.80
  -5   4  19   53.59    9.90
  -4  -4  19    1.60    3.80
  -4   4  19    1.30    3.70
  -3  -4  19   59.79   12.90
  -3   4  19   40.20    7.40
  -2  -4  19   53.69    8.00
  -2   4  19   53.79    8.30
  -1  -4  19   17.90    4.80
  -1   4  19   27.20    6.20
   0  -4  19   44.70    7.70
   0   4 -19   53.79    4.10
   0   4 -19   47.00    4.20
   0   4  19   43.90    7.30
  -1  -4 -19  136.09    7.60
   1  -4  19  157.98   12.70
  -1   4 -19  140.99    7.80
  -1   4 -19  143.09   12.20
   1   4  19  126.89   10.50
   1   4  19  139.49    7.70
  -2  -4 -19    5.80    3.50
   2  -4  19    7.70    4.10
  -2   4 -19   -1.10    3.60
   2   4  19    2.50    3.40
   3  -4  19   13.90    5.80
  -3  -4 -19   15.80    5.00
   3   4  19   11.10    4.40
  -3   4 -19   20.20    5.00
   4  -4  19   95.69   19.90
  -4  -4 -19   51.29    8.20
  -4   4 -19   68.29    9.60
  -5  -5  19   53.39    9.30
  -5   5  19   45.80    9.10
  -4  -5  19    6.30    4.20
  -4   5  19    0.30    3.30
  -3  -5  19   37.40    8.00
  -3   5  19   23.80    6.70
  -2  -5  19    7.00    5.00
  -2   5  19    6.10    4.50
  -1  -5  19   39.80    7.40
  -1   5  19   55.29    8.10
   0  -5  19    7.20    4.30
   0  -5 -19    2.50    2.50
   0   5  19   -1.90    2.70
   0   5 -19    0.90    3.00
   0   5 -19    4.00    2.30
   0   5  19    6.50    2.40
  -1  -5 -19   75.29    6.30
   1  -5  19   70.49   10.00
  -1   5 -19   86.39    6.60
  -1   5 -19   58.29    7.30
   1   5  19   78.49   10.40
   1   5  19   76.49    8.20
   2  -5  19   40.00    7.70
  -2   5 -19   46.40    6.80
   2   5  19   40.90    6.50
   3  -5  19   40.20   10.50
  -3  -5 -19   21.10    5.90
   3   5  19   13.50    4.90
  -3   5 -19   18.00    5.40
   4  -5  19    0.80    5.60
  -4  -5 -19   -5.40    4.60
   4   5  19   -3.90    4.10
  -4   5 -19    1.80    4.10
  -5  -6  19   59.09   10.10
  -5   6  19   84.79   11.00
  -4  -6  19   -0.90    4.10
  -4   6  19   -3.30    3.80
  -3  -6  19   58.79    9.40
  -2  -6  19    2.30    4.80
  -2   6  19   -2.50    2.90
  -1  -6  19   19.50    5.60
   1   6 -19   10.40    2.40
  -1   6  19    8.60    4.20
   0  -6 -19   49.40    5.10
   0  -6  19   33.50    7.50
   0   6  19   29.00    6.10
   0   6 -19   42.30    4.70
   0   6  19   37.10    4.10
   0   6 -19   38.70    5.10
  -1  -6 -19  146.79    9.00
   1  -6  19  134.69   12.60
  -1   6 -19  129.29   10.20
  -1   6 -19  144.59    8.70
   1   6  19  151.98   10.60
   1   6  19  126.39    8.50
  -2  -6 -19    2.10    3.30
  -2   6 -19   -0.80    3.10
   2   6  19    4.40    3.20
  -3  -6 -19   53.79    8.20
   3  -6  19   42.70    9.20
   3   6  19   41.50    6.60
  -3   6 -19   52.09    7.90
   4  -6  19   14.00    6.30
  -4  -6 -19   -2.00    4.30
   4   6  19    3.00    3.90
  -4   6 -19    1.20    4.50
  -5  -7  19   10.60    6.50
  -5   7  19    5.20    4.90
  -4  -7  19   12.30    5.10
  -4   7  19   25.40    6.80
  -3  -7  19   23.80    7.00
  -3   7  19   15.60    5.30
  -2  -7  19    9.50    4.70
   2   7 -19   19.70    2.90
   2   7 -19   11.30    1.80
  -2   7  19   15.90    5.40
  -1  -7  19   62.09    9.50
  -1   7  19   66.09    6.60
   1   7 -19   55.89    5.50
  -1   7  19   50.19    7.50
   1   7 -19   59.49    4.70
  -1   7  19   63.69    4.10
   0  -7 -19   28.90    4.50
   0  -7  19   21.90    6.70
   0   7 -19   28.20    4.10
   0   7  19   22.30    4.20
   0   7  19   33.10    6.50
   1  -7  19   36.10    8.20
  -1  -7 -19   30.90    5.40
   1   7  19   36.20    6.10
  -1   7 -19   25.20    5.20
   2  -7  19   17.30    6.60
  -2  -7 -19   21.10    5.10
  -2   7 -19   15.10    4.70
   2   7  19   23.70    4.80
  -3  -7 -19    5.90    4.50
   3  -7  19    8.80    6.10
  -3   7 -19   -0.20    3.50
   3   7  19   -8.70    3.10
  -4  -8  19    4.60    4.10
  -4   8  19    6.10    4.50
  -3  -8  19   -0.80    4.20
  -3   8  19    3.40    3.80
   3   8 -19    5.50    3.70
  -2  -8  19   59.39    9.50
   2   8 -19   68.49    4.80
  -2   8  19   65.69    3.90
   2   8 -19   59.09    6.20
  -2   8  19   73.09   10.40
  -1  -8  19   29.00    7.20
  -1   8  19   20.90    3.60
  -1   8  19   38.00    4.10
   1   8 -19   34.90    4.60
   1   8 -19   29.40    5.50
  -1   8  19   23.50    6.00
   0  -8 -19   54.09    6.60
   0  -8  19   35.40    7.90
   0   8  19   44.80    7.50
   0   8 -19   46.50    7.40
   0   8 -19   36.80    5.30
   1  -8  19   27.40    6.30
  -1  -8 -19   19.10    5.60
  -1   8 -19   14.80    4.70
   1   8  19   13.40    5.30
   2  -8  19   -1.90    3.60
  -2  -8 -19   -0.90    4.10
  -2   8 -19    2.00    3.40
   2   8  19    2.20    3.20
   3  -8  19   -0.10    5.10
  -3  -8 -19    3.00    4.00
   3   8  19    0.70    3.20
  -3   8 -19   -4.20    3.90
  -4  -9  19   16.50    6.30
   4   9 -19   25.60    4.70
  -4   9  19   13.40    5.10
  -3  -9  19   26.40    7.30
   3   9 -19   24.50    3.80
  -3   9  19    8.10    4.80
  -2  -9  19   43.70    8.30
  -2   9  19   60.69    4.60
  -2   9  19   52.19    8.20
   2   9 -19   66.69    5.70
  -1  -9  19    7.20    5.40
  -1   9  19    7.70    3.70
   1   9 -19    6.00    3.30
  -1   9  19    3.60    3.10
   0  -9 -19   58.79    6.80
   0  -9  19   64.39    9.80
   0   9  19   80.39    8.40
   0   9 -19   66.99    6.90
   1  -9  19    5.50    4.80
  -1  -9 -19    0.30    3.90
   1   9  19   -6.60    3.20
  -1   9 -19   -3.30    3.30
  -2  -9 -19   61.69    8.50
   2  -9  19   57.69   10.60
  -2   9 -19   73.49    8.90
   2   9  19   48.90    7.60
   3  -9  19    4.10    6.00
  -3  -9 -19   -0.10    5.00
  -3   9 -19   -1.70    4.50
  -3 -10  19   -3.00    4.80
  -3  10  19    1.30    4.40
   3  10 -19   -7.30    3.50
  -3  10  19    0.20    2.90
  -2 -10  19   30.10    8.50
   2  10 -19   24.10    5.00
  -2  10  19   32.80    4.60
  -1 -10  19    0.70    5.20
  -1  10  19   -1.20    3.60
  -1  10  19    1.90    3.40
   1  10 -19    4.20    3.60
   0 -10  19   30.10    7.50
   0  10  19   31.50    5.90
   0  10 -19   33.60    6.20
  -1 -10 -19   21.60    5.10
   1 -10  19    5.60    5.00
  -1  10 -19   20.20    5.00
   1  10  19   19.20    5.30
  -2 -10 -19   -2.10    4.20
   2 -10  19    3.10    5.20
  -2  10 -19    0.50    4.30
   2  10  19    5.30    3.60
  -3 -11  19    1.20    4.90
   3  11 -19    5.70    4.40
  -3  11  19    3.30    3.60
  -3  11  19   11.60    5.60
  -2 -11  19    3.10    4.80
   2  11 -19   -1.50    4.40
  -2  11  19    5.60    3.50
  -2  11  19    2.80    4.00
  -1 -11  19   61.59   11.50
   1  11 -19   43.30    6.40
  -1  11  19   44.70    7.40
   0 -11  19   -1.00    4.60
   0 -11 -19    8.50    5.00
   0  11  19   -2.70    3.40
   0  11 -19   -0.70    3.90
   1 -11  19   33.60    8.70
  -1 -11 -19   22.10    6.20
   1  11  19   28.50    5.40
  -1  11 -19   19.40    5.70
  -1 -12  19    9.70    6.20
  -1  12  19   -1.10    3.80
  -1  12  19    4.20    4.40
   1  12 -19    3.60    4.60
   0 -12  19    2.20    4.80
   0  12  19    5.80    4.20
   0  12 -19   -5.30    3.90
  -5   0  20   -4.10    3.80
  -4   0  20    3.40    3.60
  -3   0  20    1.20    3.40
  -2   0  20   68.79   10.10
  -1   0  20   -2.10    3.10
   0   0  20    9.40    4.50
   1   0  20    8.10    4.30
   1   0  20   -1.80    2.70
  -1   0 -20   -0.30    2.20
  -2   0 -20    0.40    3.10
   2   0  20    1.10    3.40
  -3   0 -20   -9.20    3.00
   3   0  20   -1.40    4.20
   4   0  20   -0.70    4.70
  -4   0 -20   17.30    5.90
  -5  -1  20    2.40    4.30
  -5   1  20    3.90    5.10
  -4  -1  20   41.40    8.80
  -4   1  20   33.20    7.40
  -3  -1  20    0.90    3.70
  -3   1  20    4.20    3.50
  -2  -1  20    9.40    5.00
  -2   1  20    5.20    4.20
  -1  -1  20   49.60    9.20
  -1   1  20   78.29   11.00
   0  -1  20   30.30    6.40
   0   1  20   24.60    5.70
   1  -1  20    0.20    3.40
  -1  -1 -20    1.20    2.40
  -1   1 -20    2.30    2.30
   1   1  20    0.60    3.30
   1   1  20    1.40    2.80
  -2  -1 -20  132.09    8.80
   2  -1  20  126.19   11.30
   2   1  20  136.39   10.90
  -2   1 -20  153.48    9.20
  -3  -1 -20   11.90    4.40
   3  -1  20   14.40    4.70
  -3   1 -20   15.60    4.90
   3   1  20   15.90    5.90
  -4  -1 -20    3.80    4.90
   4  -1  20   12.60    5.80
  -4   1 -20   -3.20    4.40
   4   1  20   -4.30    4.70
  -5  -2  20   43.40    8.60
  -5   2  20   35.30    7.30
  -4  -2  20   37.40    8.10
  -4   2  20   29.10    7.70
  -3  -2  20   18.30    5.70
  -3   2  20   11.60    4.30
  -2  -2  20   76.69   11.00
  -2   2  20   74.59   10.90
  -1  -2  20   38.30    8.00
  -1   2  20   25.20    6.60
   0  -2  20   26.70    6.20
   0   2  20   32.80    6.50
   1  -2  20   56.89    9.00
  -1  -2 -20   55.09    4.90
   1   2  20   60.79    8.30
  -1   2 -20   54.19    6.10
  -1   2 -20   60.99    5.10
   1   2  20   53.59    5.20
  -2  -2 -20   14.90    4.10
   2  -2  20   10.40    4.80
   2   2  20   18.90    5.00
  -2   2 -20   15.90    4.60
  -3  -2 -20   25.60    5.20
   3  -2  20    9.30    5.40
  -3   2 -20   24.70    5.90
   3   2  20    9.10    4.80
   4  -2  20   66.09   10.10
  -4  -2 -20   63.69    8.60
   4   2  20   67.39    8.70
  -4   2 -20   70.99    8.70
  -5  -3  20    9.30    5.10
  -5   3  20    0.50    4.00
  -4  -3  20    7.00    4.60
  -4   3  20    5.00    4.30
  -3  -3  20   26.10    7.20
  -3   3  20   13.00    5.50
  -2   3  20    4.10    3.80
  -1  -3  20   43.70    7.80
  -1   3  20   31.30    6.80
   0  -3  20   15.40    5.50
   0   3  20   22.00    5.20
   1  -3  20    9.30    4.10
  -1  -3 -20    7.10    3.00
   1   3  20    3.70    3.90
  -1   3 -20    6.00    4.20
  -1   3 -20    4.90    2.90
   1   3  20   16.80    3.60
   2  -3  20    2.70    3.90
  -2  -3 -20    1.10    3.60
   2   3  20    1.40    3.90
  -2   3 -20   10.30    4.00
   3  -3  20   48.70    8.90
  -3  -3 -20   38.00    6.30
   3   3  20   29.60    6.20
  -3   3 -20   36.50    6.80
  -4  -3 -20    0.90    5.10
   4   3  20    7.90    5.10
  -4   3 -20    0.50    5.10
  -5  -4  20   10.70    4.60
  -5   4  20    7.40    5.00
  -4  -4  20    5.40    4.00
  -4   4  20    4.60    4.50
  -3  -4  20   44.80    8.10
  -3   4  20   56.29   10.00
  -2  -4  20   27.90    7.70
  -2   4  20   26.00    6.60
  -1  -4  20    8.00    4.70
  -1   4  20    7.60    3.80
   0  -4  20   32.40    7.70
   0   4 -20   41.50    5.00
   0   4  20   42.10    6.90
   0   4 -20   43.30    2.90
   1  -4  20   69.09   10.70
  -1  -4 -20   69.99    5.90
   1   4  20   60.79    6.20
   1   4  20   84.49   10.20
  -1   4 -20   78.59    7.60
  -1   4 -20   71.89    6.00
  -2  -4 -20    5.50    3.70
   2  -4  20    7.70    5.10
   2   4  20   -0.60    3.40
  -3  -4 -20   12.90    4.70
   3  -4  20    6.10    8.90
   3   4  20   10.30    5.00
  -3   4 -20   12.20    5.10
   4  -4  20    7.50    5.70
  -4  -4 -20    5.40    5.20
   4   4  20   11.90    5.40
  -4   4 -20    8.90    5.30
  -5  -5  20   -9.30    4.40
  -5   5  20   -2.80    4.20
  -4  -5  20   46.60    9.30
  -4   5  20   35.00    7.30
  -3  -5  20    5.00    4.10
  -3   5  20   -0.10    3.90
  -2  -5  20   21.10    6.30
  -2   5  20   16.70    5.40
  -1  -5  20   30.80    7.10
  -1   5  20   31.20    6.30
   0   5 -20  201.28    7.90
   0   5 -20  211.48    7.40
   0   5  20  212.28   13.40
  -1  -5 -20    4.60    3.30
  -1   5 -20   -2.30    2.70
  -1   5 -20    0.50    5.40
   1   5  20    3.40    4.20
   2  -5  20   51.49    8.90
  -2  -5 -20   30.00    6.20
  -2   5 -20   35.80    6.10
   2   5  20   29.80    6.10
   3  -5  20   17.30    6.10
  -3  -5 -20   10.00    5.10
  -3   5 -20   10.00    4.70
   3   5  20   -2.60    4.00
  -4  -6  20    2.00    5.40
  -4   6  20   13.80    5.80
  -3  -6  20    1.60    4.20
  -3   6  20    3.50    3.70
  -2  -6  20   80.99   10.80
  -2   6  20   93.89   10.10
  -1  -6  20    1.70    3.50
  -1   6  20    6.20    4.30
   0  -6  20   70.69   10.80
   0   6  20   94.09    9.10
   0   6 -20   89.49    5.80
   0   6  20   85.29    5.40
   0   6 -20   72.49    7.00
  -1  -6 -20    1.50    3.40
   1  -6  20   -2.40    4.00
  -1   6 -20    2.50    3.40
   1   6  20    7.50    4.10
   2  -6  20   -1.60    4.30
  -2  -6 -20    7.80    4.00
   2   6  20   -5.70    3.30
  -2   6 -20   -0.70    3.60
  -3  -6 -20   17.30    5.60
   3  -6  20   14.60    5.80
  -3   6 -20    9.40    4.40
   3   6  20    6.70    4.70
  -4  -7  20   48.70    8.90
  -4   7  20   42.20    8.60
  -3  -7  20    1.40    4.00
  -3   7  20   -1.50    3.60
  -2  -7  20   -2.70    3.50
  -2   7  20    5.80    4.50
  -1  -7  20   13.60    5.90
   1   7 -20   18.70    4.50
  -1   7  20   26.00    6.90
   1   7 -20   15.90    3.50
   0  -7  20   13.70    4.70
   0   7  20   19.50    4.90
   0   7 -20   19.50    3.60
   1  -7  20    4.40    4.60
  -1  -7 -20   -0.20    3.40
  -1   7 -20   -1.30    3.40
   1   7  20    6.20    4.00
  -2  -7 -20    5.60    4.80
   2  -7  20    3.30    5.30
  -2   7 -20   -0.60    3.50
   2   7  20   -3.00    3.50
   3  -7  20   18.30    7.70
  -3  -7 -20   14.60    5.50
   3   7  20   12.90    4.70
  -3   7 -20   14.10    5.50
  -4  -8  20    5.90    5.80
  -4   8  20   12.20    5.30
  -3  -8  20   48.10    8.60
  -3   8  20   41.70    8.40
  -2  -8  20    3.00    4.90
  -2   8  20    4.70    6.60
   2   8 -20    5.80    2.60
  -1  -8  20   14.50    6.10
  -1   8  20    9.70    2.40
  -1   8  20    9.10    4.40
   1   8 -20    3.70    2.90
   0  -8  20   22.50    5.70
   0   8 -20   28.40    4.90
   0   8  20   20.40    5.30
   1  -8  20   70.79   11.00
  -1  -8 -20   53.89    7.70
   1   8  20   60.99    8.40
  -1   8 -20   49.60    6.70
   2  -8  20   13.70    5.70
  -2  -8 -20    6.50    5.10
  -2   8 -20    9.50    4.60
   2   8  20   13.40    5.10
  -3  -9  20   37.50    8.40
  -3   9  20   27.20    7.30
  -2  -9  20    7.50    4.60
   2   9 -20   -0.90    3.10
  -2   9  20    8.40    4.50
  -1  -9  20   29.90    7.70
  -1   9  20   32.70    4.10
   1   9 -20   34.90    4.70
  -1   9  20   39.00    7.00
   0  -9  20    5.90    5.90
   0   9 -20   -7.60    3.60
   0   9  20    5.60    4.00
  -1  -9 -20    5.10    4.50
   1  -9  20   -1.00    4.90
   1   9  20   -7.10    3.70
  -1   9 -20    0.30    3.50
   2  -9  20    6.00    6.00
  -2  -9 -20    7.50    4.70
  -2   9 -20    6.90    4.60
   2   9  20   10.20    4.50
  -2 -10  20   70.79   12.10
   2  10 -20   92.99    7.20
  -2  10  20   68.19    9.90
  -2  10  20   74.39    7.50
  -1 -10  20    0.90    5.10
  -1  10  20    1.30    4.60
  -1  10  20    1.70    3.10
   1  10 -20   -2.90    3.60
   0 -10  20   48.30    9.50
   0  10  20   42.90    6.90
   0  10 -20   36.80    5.80
  -1 -10 -20    3.40    4.80
   1 -10  20    0.40    4.30
  -1  10 -20    7.30    4.40
   1  10  20   16.90    5.70
  -1 -11  20    9.90    7.00
   1  11 -20    5.30    4.50
  -1  11  20   13.80    6.30
  -1  11  20    5.60    4.20
   0 -11  20   11.80    6.10
   0  11  20    2.50    4.00
   0  11 -20    8.30    5.20
   0  11  20    2.60    4.00
  -5   0  21  101.39   13.30
  -4   0  21    6.50    5.00
  -3   0  21   12.10    5.30
  -2   0  21   -4.10    3.40
  -1   0  21    5.80    4.40
   0   0  21    2.10    3.90
   1   0  21   18.40    6.10
  -1   0 -21   19.10    3.10
  -2   0 -21   -2.00    3.50
   2   0  21    1.30    4.40
  -3   0 -21    6.30    4.10
   3   0  21    5.10    4.80
  -5  -1  21    5.50    5.70
  -5   1  21    5.00    5.70
  -4  -1  21   23.10    5.90
  -4   1  21   17.90    5.90
  -3  -1  21  122.29   12.10
  -3   1  21   87.09   11.00
  -2  -1  21    4.60    3.70
  -2   1  21    3.20    4.40
  -1  -1  21   83.99   12.10
  -1   1  21   75.69   10.50
   0  -1  21   -0.40    3.50
   0   1  21    0.60    4.20
   1  -1  21    9.70    4.00
  -1  -1 -21   11.40    2.80
  -1   1 -21    9.60    4.30
   1   1  21    7.30    2.90
  -1   1 -21   12.80    2.90
   1   1  21    9.70    4.80
  -2  -1 -21    9.70    3.80
   2  -1  21   10.10    5.20
  -2   1 -21   12.90    4.40
   2   1  21    4.20    4.00
   3  -1  21   21.20    6.70
  -3  -1 -21   20.10    5.00
   3   1  21   17.30    6.00
  -3   1 -21   25.80    5.70
  -4  -2  21    1.70    4.20
  -4   2  21   13.30    5.10
  -3  -2  21    7.60    4.80
  -3   2  21    8.90    4.50
  -2  -2  21   48.60    8.80
  -2   2  21   65.09   11.20
  -1  -2  21   -6.10    6.80
  -1   2  21    4.80    4.50
   0  -2  21   25.70    6.60
   0   2  21   40.60    7.60
   1  -2  21   15.50    5.20
  -1  -2 -21   12.40    3.20
  -1   2 -21    5.10    4.60
   1   2  21   11.90    4.40
  -1   2 -21   11.60    3.20
   2  -2  21    2.10    4.20
  -2  -2 -21    0.40    3.90
   2   2  21    0.70    3.90
  -2   2 -21   -5.30    3.70
  -3  -2 -21    3.90    4.20
   3  -2  21   10.10    5.40
   3   2  21   12.10    4.90
  -3   2 -21   13.30    5.80
  -4  -3  21   66.79   10.80
  -4   3  21   70.99   10.80
  -3  -3  21    5.90    5.30
  -3   3  21   15.40    5.70
  -2  -3  21    4.80    3.80
  -2   3  21    6.50    4.50
  -1  -3  21   22.70    6.80
  -1   3  21   15.90    5.30
   0  -3  21   63.09   15.60
   0   3  21   53.39    8.30
  -1  -3 -21    4.10    2.80
  -1   3 -21   -1.00    2.50
   1   3  21    4.50    3.80
  -1   3 -21  -10.00    5.20
  -2  -3 -21   59.19    7.40
  -2   3 -21   55.29    6.80
   2   3  21   59.19    8.80
   3  -3  21    0.80    4.60
  -3  -3 -21    0.90    4.80
   3   3  21    5.70    4.70
  -3   3 -21    5.80    4.40
  -4  -4  21    2.60    4.50
  -4   4  21    0.20    3.70
  -3  -4  21   -1.20    4.60
  -3   4  21    5.00    4.30
  -2  -4  21   95.89   12.00
  -2   4  21  106.09   13.70
  -1  -4  21   -0.40    3.70
  -1   4  21   -3.50    3.40
   0  -4  21   21.30    6.60
   0   4  21   15.70    5.20
   1  -4  21   75.49   11.40
  -1  -4 -21   76.49    6.20
   1   4  21   64.49    9.10
  -1   4 -21   86.69    6.30
  -2  -4 -21    1.70    4.10
   2  -4  21    9.10    4.70
   2   4  21    0.20    4.10
   3  -4  21    6.50    5.50
  -3  -4 -21   23.30    5.90
   3   4  21   10.70    5.00
  -3   4 -21   16.50    5.40
  -4  -5  21    8.10    5.10
  -4   5  21    0.30    4.50
  -3  -5  21   39.30    8.90
  -3   5  21   44.60    8.70
  -2  -5  21   15.00    5.10
  -2   5  21   17.10    5.50
  -1  -5  21   77.79   11.30
  -1   5  21   63.09    9.60
   0  -5  21    2.00    4.70
   0   5 -21    1.90    2.30
   0   5  21    6.20    4.00
   1  -5  21   -0.90    4.40
  -1  -5 -21   -3.20    3.30
   1   5  21   -0.10    3.50
  -1   5 -21   -3.00    3.00
  -2  -5 -21   16.40    5.70
   2  -5  21   14.90    5.90
  -2   5 -21   15.50    5.20
   2   5  21   13.90    5.20
   3  -5  21   -2.40    5.30
  -3  -5 -21    3.70    5.30
  -3   5 -21    4.00    4.70
   3   5  21   -2.60    4.50
  -4  -6  21   -6.90    4.30
  -4   6  21    1.60    5.10
  -3  -6  21   41.00    9.20
  -3   6  21   45.00    9.00
  -2  -6  21   35.40    8.20
  -2   6  21   28.70    6.90
  -1  -6  21    3.90    4.00
  -1   6  21    8.90    4.20
   0  -6  21   -6.50    4.00
   0   6 -21    4.10    2.70
   0   6  21   -2.10    3.50
  -1  -6 -21   84.49    6.90
   1  -6  21   83.39   12.30
  -1   6 -21   81.29    7.20
   1   6  21   93.69    9.40
   2  -6  21    3.90    5.30
  -2  -6 -21    3.60    4.40
   2   6  21    5.80    4.80
  -2   6 -21    5.60    4.30
  -3  -7  21   22.80    6.60
  -3   7  21   22.90    7.50
  -2  -7  21   -1.60    4.20
  -2   7  21   -8.60    3.40
  -1  -7  21    2.80    5.50
  -1   7  21    3.50    5.10
   0  -7  21   11.10    5.50
   0   7  21   13.50    3.10
   0   7 -21    8.40    3.80
   0   7  21   14.70    5.20
   1  -7  21   -0.60    5.50
  -1  -7 -21    3.00    4.10
  -1   7 -21   -1.90    3.30
   1   7  21    2.40    3.90
   2  -7  21   26.40    8.40
  -2  -7 -21   29.20    5.90
   2   7  21   32.20    6.10
  -2   7 -21   31.40    6.70
  -3  -8  21    7.00    6.50
  -3   8  21   -0.50    4.90
  -2  -8  21   31.70    7.40
  -2   8  21   25.80    6.10
  -1  -8  21   -1.90    4.90
   1   8 -21    0.40    3.00
  -1   8  21    2.70    4.30
   0  -8  21   30.60    7.60
   0   8  21   27.60    4.20
   0   8  21   32.90    6.80
   0   8 -21   20.20    4.30
  -1  -8 -21    0.20    4.20
   1  -8  21    5.70    5.40
   1   8  21   -1.50    4.20
  -1   8 -21   -4.30    4.00
  -2  -9  21    8.30    6.70
  -2   9  21   11.20    4.80
  -1  -9  21   12.50    6.30
   1   9 -21   12.80    4.10
   0  -9  21    8.40    7.50
   0   9  21    6.40    4.90
   0   9 -21    9.70    4.40
   0   9  21    6.50    3.50
   1  -9  21   -0.10    5.60
  -1  -9 -21    4.00    5.40
  -1   9 -21   11.60    5.00
   1   9  21   11.70    5.20
  -4   0  22   55.19   10.10
  -3   0  22    1.80    4.40
  -2   0  22   46.90    8.80
  -1   0  22    0.60    4.60
   1   0  22    0.80    4.10
  -2   0 -22   29.80    5.10
   2   0  22   29.20    7.30
  -4  -1  22   13.70    6.30
  -4   1  22   15.40    7.10
  -3  -1  22    2.20    3.80
  -3   1  22    0.40    3.80
  -2  -1  22    8.30    4.80
  -2   1  22    4.30    4.60
  -1  -1  22    8.30    4.90
  -1   1  22    7.60    5.00
   0  -1  22   86.19   11.40
   0   1  22  108.99   11.20
   1  -1  22    4.10    7.90
   1   1  22    2.70    4.40
  -2  -1 -22   34.10    5.50
   2   1  22   37.70    8.30
  -2   1 -22   31.60    5.60
  -4  -2  22    3.20    4.20
  -4   2  22    6.00    4.80
  -3  -2  22   -1.20    3.80
  -3   2  22    1.00    4.70
  -2  -2  22    5.90    4.10
  -2   2  22    4.20    4.40
  -1  -2  22   46.90    9.00
   0  -2  22   18.60    6.80
   0   2  22   21.80    5.90
   1  -2  22   95.89   12.30
   1   2  22   78.59   10.20
  -1   2 -22   64.59    5.10
  -2  -2 -22    4.50    4.60
   2   2  22    5.40    4.30
  -2   2 -22    3.70    4.10
  -4  -3  22    6.70    5.20
  -4   3  22   15.90    7.00
  -3  -3  22   48.40    9.70
  -3   3  22   40.50    9.10
  -2  -3  22   -0.20    4.20
  -2   3  22    4.60    4.90
  -1  -3  22  166.78   13.80
  -1   3  22  157.08   13.80
   0  -3  22    1.80    4.50
   0   3  22   -5.00    3.80
  -1  -3 -22    5.00    3.60
   1  -3  22    7.50    5.10
   1   3  22    2.30    3.90
  -1   3 -22    4.40    3.20
  -2  -3 -22    4.50    4.30
   2  -3  22   10.70    4.80
  -2   3 -22    0.40    4.40
   2   3  22   13.80    5.30
  -3  -4  22   21.90    6.40
  -3   4  22   20.70    6.50
  -2  -4  22   15.40    6.00
  -2   4  22   16.10    5.40
  -1  -4  22   39.10    8.10
  -1   4  22   40.10    9.50
   0  -4  22   10.40    5.90
   0   4  22    6.20    4.70
  -1  -4 -22   17.20    4.10
   1  -4  22   18.80    6.40
   1   4  22   27.70    5.90
  -1   4 -22   23.10    4.10
  -2  -4 -22    2.60    4.50
   2  -4  22   -0.70    4.60
   2   4  22   -1.20    4.30
  -3  -5  22    1.20    4.90
  -3   5  22   -5.90    3.70
  -2  -5  22   -2.00    3.90
  -2   5  22   -1.30    4.60
  -1  -5  22   14.10    6.00
  -1   5  22   22.20    7.10
   0  -5  22   73.19   12.00
   0   5  22   69.49    9.50
   1  -5  22   11.60    6.30
  -1  -5 -22   -1.00    3.90
  -1   5 -22    4.30    3.70
   1   5  22   13.50    5.40
   2  -5  22   27.60    7.40
   2   5  22   29.80    6.50
  -2   5 -22   22.30    5.70
  -3  -6  22   -1.70    5.10
  -3   6  22    0.80    4.90
  -2  -6  22   27.00    7.00
  -2   6  22   31.60    6.90
  -1  -6  22    1.60    5.60
  -1   6  22   -3.40    3.90
   0  -6  22   11.30    5.80
   0   6  22    6.90    4.70
  -1  -6 -22   15.90    4.40
   1  -6  22   14.90    6.80
  -1   6 -22   13.60    4.60
   1   6  22    7.90    4.80
  -2  -7  22   -3.30    4.00
  -2   7  22    2.10    4.50
  -1  -7  22   65.59   11.60
  -1   7  22   64.39    9.70
   0  -7  22   13.00    6.00
   0   7 -22   19.90    4.30
   0   7  22   15.60    5.60
  -1  -7 -22   -1.60    4.80
   1  -7  22   19.10    6.80
  -1   7 -22    7.70    4.50
   1   7  22    1.20    4.50
  -1  -8  22    1.50    5.30
  -1   8  22    0.40    4.60
  -3   0  23   25.40    7.50
  -2   0  23   -1.00    3.50
  -1   0  23   74.29   11.20
   0   0  23   -1.60    4.10
   1   0  23   35.60    8.00
  -3  -1  23   19.10    6.90
  -3   1  23   26.50    8.00
  -2  -1  23   23.60    6.80
  -2   1  23   17.50    6.20
  -1  -1  23   38.50    8.50
  -1   1  23   39.20    7.80
   0  -1  23   -3.60    4.40
   0   1  23    4.00    3.70
   1  -1  23    6.30    4.60
   1   1  23   11.00    5.60
  -3  -2  23    4.90    5.50
  -3   2  23    3.70    5.40
  -2  -2  23  136.79   13.60
  -2   2  23   99.89   13.40
  -1  -2  23   12.50    6.10
  -1   2  23   15.60    5.70
   0  -2  23   11.80    5.50
   0   2  23   12.70    5.60
   1  -2  23   14.40    5.90
   1   2  23    7.10    6.30
  -3  -3  23   29.80    8.30
  -3   3  23   18.70    7.00
  -2  -3  23    1.20    4.40
  -2   3  23    7.30    5.00
  -1  -3  23    8.40    5.30
  -1   3  23    1.90    4.30
   0  -3  23   24.30    7.40
   0   3  23   27.30    7.30
   1  -3  23    1.90    5.20
   1   3  23  -10.10    6.10
  -2  -4  23   28.90    7.00
  -2   4  23   50.89    8.90
  -1  -4  23   -4.70    4.40
  -1   4  23    3.00    4.80
   0  -4  23   -2.00    5.00
   0   4  23    3.30    5.00
   1  -4  23   16.40    7.60
   1   4  23   18.40    5.70
  -2  -5  23   -1.60    5.60
  -2   5  23   -5.00    3.80
  -1  -5  23    0.50    5.20
  -1   5  23    1.20    4.50
   0  -5  23   -7.10    4.60
   0   5  23   -2.30    4.40
  -1   0  24    1.50    4.50
  -1  -1  24    8.10    4.80
  -1   1  24    8.70    6.10
   0   0   0    0.00    0.00

_computing_structure_solution     'SHELXT 2018/2 (Sheldrick, 2018)'
;
_shelx_hkl_checksum   34524

