 
data_VV-39_a
 
_audit_creation_method            'SHELXL-2018/3'
_shelx_SHELXL_version_number      '2018/3'
_chemical_name_systematic         ?
_chemical_name_common             ?
_chemical_melting_point           ?
_chemical_formula_moiety          ?
_chemical_formula_sum
 'C4 H3.25 Cd0.25 N1.75 O1.50' 
_chemical_formula_weight          127.93

loop_
 _atom_type_symbol
 _atom_type_description
 _atom_type_scat_dispersion_real
 _atom_type_scat_dispersion_imag
 _atom_type_scat_source
 'C'  'C'   0.0033   0.0016
 'International Tables Vol C Tables 4.2.6.8 and 6.1.1.4'
 'H'  'H'   0.0000   0.0000
 'International Tables Vol C Tables 4.2.6.8 and 6.1.1.4'
 'N'  'N'   0.0061   0.0033
 'International Tables Vol C Tables 4.2.6.8 and 6.1.1.4'
 'O'  'O'   0.0106   0.0060
 'International Tables Vol C Tables 4.2.6.8 and 6.1.1.4'
 'Cd'  'Cd'  -0.8075   1.2024
 'International Tables Vol C Tables 4.2.6.8 and 6.1.1.4'
 
_space_group_crystal_system       triclinic
_space_group_IT_number            2
_space_group_name_H-M_alt         'P -1'
_space_group_name_Hall            '-P 1'
 
_shelx_space_group_comment
;
The symmetry employed for this shelxl refinement is uniquely defined
by the following loop, which should always be used as a source of
symmetry information in preference to the above space-group names.
They are only intended as comments.
;
 
loop_
 _space_group_symop_operation_xyz
 'x, y, z'
 '-x, -y, -z'
 
_cell_length_a                    8.7319(4)
_cell_length_b                    9.8669(5)
_cell_length_c                    11.3875(5)
_cell_angle_alpha                 100.274(2)
_cell_angle_beta                  90.123(2)
_cell_angle_gamma                 115.935(2)
_cell_volume                      864.59(7)
_cell_formula_units_Z             8
_cell_measurement_temperature     150(2)
_cell_measurement_reflns_used     ?
_cell_measurement_theta_min       ?
_cell_measurement_theta_max       ?
 
_exptl_crystal_description        ?
_exptl_crystal_colour             ?
_exptl_crystal_density_meas       ?
_exptl_crystal_density_method     ?
_exptl_crystal_density_diffrn     1.966          
_exptl_crystal_F_000              508
_exptl_transmission_factor_min    ?
_exptl_transmission_factor_max    ?
_exptl_crystal_size_max           ?
_exptl_crystal_size_mid           ?
_exptl_crystal_size_min           ?
_exptl_absorpt_coefficient_mu     1.320
_shelx_estimated_absorpt_T_min    ?
_shelx_estimated_absorpt_T_max    ?
_exptl_absorpt_correction_type    ?
_exptl_absorpt_correction_T_min   ?
_exptl_absorpt_correction_T_max   ?
_exptl_absorpt_process_details    ?
_exptl_absorpt_special_details    ?
_diffrn_ambient_temperature       150(2)
_diffrn_radiation_wavelength      0.71073
_diffrn_radiation_type            MoK\a
_diffrn_source                    ?
_diffrn_measurement_device_type   ?
_diffrn_measurement_method        ?
_diffrn_detector_area_resol_mean  ?
_diffrn_reflns_number             9978
_diffrn_reflns_av_unetI/netI      0.0728
_diffrn_reflns_av_R_equivalents   0.0432
_diffrn_reflns_limit_h_min        -11
_diffrn_reflns_limit_h_max        11
_diffrn_reflns_limit_k_min        -13
_diffrn_reflns_limit_k_max        13
_diffrn_reflns_limit_l_min        -15
_diffrn_reflns_limit_l_max        15
_diffrn_reflns_theta_min          1.825
_diffrn_reflns_theta_max          29.179
_diffrn_reflns_theta_full         25.242
_diffrn_measured_fraction_theta_max   0.991
_diffrn_measured_fraction_theta_full  0.992
_diffrn_reflns_Laue_measured_fraction_max    0.991
_diffrn_reflns_Laue_measured_fraction_full   0.992
_diffrn_reflns_point_group_measured_fraction_max   0.991
_diffrn_reflns_point_group_measured_fraction_full  0.992
_reflns_number_total              4643
_reflns_number_gt                 3742
_reflns_threshold_expression      'I > 2\s(I)'
_reflns_Friedel_coverage          0.000
_reflns_Friedel_fraction_max      .
_reflns_Friedel_fraction_full     .
 
_reflns_special_details
;
 Reflections were merged by SHELXL according to the crystal
 class for the calculation of statistics and refinement.
 
 _reflns_Friedel_fraction is defined as the number of unique
 Friedel pairs measured divided by the number that would be
 possible theoretically, ignoring centric projections and
 systematic absences.
;
 
_computing_data_collection        ?
_computing_cell_refinement        ?
_computing_data_reduction         ?
_computing_structure_solution     'SHELXT 2018/2 (Sheldrick, 2018)'
_computing_structure_refinement 'SHELXL-2018/3 (Sheldrick, 2018)'
_computing_molecular_graphics     ?
_computing_publication_material   ?
_refine_special_details           ?
_refine_ls_structure_factor_coef  Fsqd
_refine_ls_matrix_type            full
_refine_ls_weighting_scheme       calc
_refine_ls_weighting_details
'w=1/[\s^2^(Fo^2^)+(0.0519P)^2^] where P=(Fo^2^+2Fc^2^)/3'
_atom_sites_solution_primary      ?
_atom_sites_solution_secondary    ?
_atom_sites_solution_hydrogens    geom
_refine_ls_hydrogen_treatment     constr
_refine_ls_extinction_method      none
_refine_ls_extinction_coef        .
_refine_ls_number_reflns          4643
_refine_ls_number_parameters      271
_refine_ls_number_restraints      0
_refine_ls_R_factor_all           0.0627
_refine_ls_R_factor_gt            0.0416
_refine_ls_wR_factor_ref          0.1082
_refine_ls_wR_factor_gt           0.0896
_refine_ls_goodness_of_fit_ref    1.070
_refine_ls_restrained_S_all       1.070
_refine_ls_shift/su_max           0.000
_refine_ls_shift/su_mean          0.000
 
loop_
 _atom_site_label
 _atom_site_type_symbol
 _atom_site_fract_x
 _atom_site_fract_y
 _atom_site_fract_z
 _atom_site_U_iso_or_equiv
 _atom_site_adp_type
 _atom_site_occupancy
 _atom_site_site_symmetry_order  
 _atom_site_calc_flag
 _atom_site_refinement_flags_posn
 _atom_site_refinement_flags_adp
 _atom_site_refinement_flags_occupancy
 _atom_site_disorder_assembly
 _atom_site_disorder_group
Cd1 Cd 0.13880(4) -0.02257(3) 0.10364(2) 0.01574(10) Uani 1 1 d . . . . .
O1 O 0.0644(4) -0.2101(3) 0.2354(3) 0.0275(7) Uani 1 1 d . . . . .
O2 O 0.3340(4) -0.0926(4) 0.2130(3) 0.0337(8) Uani 1 1 d . . . . .
O3 O 0.2430(5) -0.2522(4) 0.3363(3) 0.0409(9) Uani 1 1 d . . . . .
O4 O 0.3854(4) 0.1902(3) 0.0763(3) 0.0238(7) Uani 1 1 d . . . . .
O5 O 0.1575(3) 0.1447(3) -0.0368(3) 0.0221(6) Uani 1 1 d . . . . .
O6 O 0.6119(4) 0.7259(4) 0.3779(3) 0.0350(8) Uani 1 1 d . . . . .
N1 N 0.2156(5) -0.1857(4) 0.2619(3) 0.0260(8) Uani 1 1 d . . . . .
N2 N 0.0959(4) 0.1206(4) 0.2678(3) 0.0217(8) Uani 1 1 d . . . . .
N3 N 0.1503(4) 0.3191(4) 0.4145(3) 0.0190(7) Uani 1 1 d . . . . .
N4 N 0.4746(5) 0.5798(4) 0.3610(3) 0.0284(9) Uani 1 1 d . . . . .
N5 N 0.1928(4) 0.6887(4) 0.7744(3) 0.0157(7) Uani 1 1 d . . . . .
N6 N 0.1550(4) 0.8095(4) 0.9457(3) 0.0191(7) Uani 1 1 d . . . . .
N7 N 0.6061(5) 0.8227(4) 0.4811(3) 0.0279(9) Uani 1 1 d . . . . .
C1 C 0.3171(5) 0.2198(4) -0.0071(3) 0.0165(8) Uani 1 1 d . . . . .
C2 C 0.4260(5) 0.3412(4) -0.0767(3) 0.0168(8) Uani 1 1 d . . . . .
H2 H 0.421804 0.285346 -0.160008 0.020 Uiso 1 1 calc R U . . .
C3 C 0.6147(5) 0.4276(4) -0.0290(4) 0.0185(8) Uani 1 1 d . . . . .
H3A H 0.681943 0.482377 -0.090117 0.022 Uiso 1 1 calc R U . . .
H3B H 0.656100 0.352506 -0.015106 0.022 Uiso 1 1 calc R U . . .
C4 C 0.6451(5) 0.5437(4) 0.0879(3) 0.0159(8) Uani 1 1 d . . . . .
H4A H 0.769438 0.600852 0.111857 0.019 Uiso 1 1 calc R U . . .
H4B H 0.590236 0.487517 0.151816 0.019 Uiso 1 1 calc R U . . .
C5 C 0.1981(6) 0.2668(5) 0.3093(4) 0.0218(9) Uani 1 1 d . . . . .
H5 H 0.293094 0.327878 0.270734 0.026 Uiso 1 1 calc R U . . .
C6 C -0.0213(6) 0.0759(5) 0.3504(4) 0.0239(9) Uani 1 1 d . . . . .
H6 H -0.111099 -0.024893 0.344517 0.029 Uiso 1 1 calc R U . . .
C7 C 0.0091(6) 0.1952(5) 0.4408(4) 0.0243(9) Uani 1 1 d . . . . .
H7 H -0.053646 0.194604 0.508937 0.029 Uiso 1 1 calc R U . . .
C8 C 0.2353(5) 0.4694(4) 0.4863(4) 0.0185(8) Uani 1 1 d . . . . .
C9 C 0.1763(5) 0.5084(4) 0.5911(3) 0.0199(8) Uani 1 1 d . . . . .
H9 H 0.075418 0.433994 0.615725 0.024 Uiso 1 1 calc R U . . .
C10 C 0.2631(5) 0.6601(5) 0.6660(4) 0.0190(8) Uani 1 1 d . . . . .
C11 C 0.4054(5) 0.7730(5) 0.6355(4) 0.0244(9) Uani 1 1 d . . . . .
H11 H 0.459896 0.873028 0.684412 0.029 Uiso 1 1 calc R U . . .
C12 C 0.4684(5) 0.7339(5) 0.5269(4) 0.0225(9) Uani 1 1 d . . . . .
C13 C 0.3869(5) 0.5846(5) 0.4527(4) 0.0210(9) Uani 1 1 d . . . . .
C14 C 0.2468(6) 0.8236(5) 0.8543(4) 0.0238(9) Uani 1 1 d . . . . .
H14 H 0.340101 0.916946 0.844901 0.029 Uiso 1 1 calc R U . . .
C15 C 0.0567(6) 0.5824(5) 0.8211(4) 0.0275(10) Uani 1 1 d . . . . .
H15 H -0.009762 0.476821 0.786164 0.033 Uiso 1 1 calc R U . . .
C16 C 0.0368(5) 0.6582(5) 0.9261(4) 0.0231(9) Uani 1 1 d . . . . .
H16 H -0.046816 0.613307 0.978723 0.028 Uiso 1 1 calc R U . . .
 
loop_
 _atom_site_aniso_label
 _atom_site_aniso_U_11
 _atom_site_aniso_U_22
 _atom_site_aniso_U_33
 _atom_site_aniso_U_23
 _atom_site_aniso_U_13
 _atom_site_aniso_U_12
Cd1 0.02021(17) 0.01128(14) 0.01407(14) 0.00122(10) 0.00096(10) 0.00599(11)
O1 0.0260(17) 0.0212(15) 0.0338(17) 0.0064(14) -0.0037(14) 0.0087(13)
O2 0.0286(18) 0.0308(18) 0.039(2) 0.0146(16) 0.0031(15) 0.0078(15)
O3 0.043(2) 0.0366(19) 0.045(2) 0.0217(17) -0.0104(17) 0.0144(17)
O4 0.0236(16) 0.0189(14) 0.0244(15) 0.0087(12) -0.0030(12) 0.0037(12)
O5 0.0161(15) 0.0169(14) 0.0296(16) 0.0069(12) 0.0011(12) 0.0030(12)
O6 0.0318(19) 0.0348(19) 0.0267(17) 0.0034(15) 0.0050(15) 0.0052(15)
N1 0.032(2) 0.0152(17) 0.0265(19) 0.0067(15) -0.0076(17) 0.0059(16)
N2 0.0250(19) 0.0193(17) 0.0197(17) 0.0035(14) 0.0010(15) 0.0090(15)
N3 0.0246(19) 0.0159(16) 0.0170(16) 0.0031(13) 0.0052(14) 0.0094(14)
N4 0.028(2) 0.0267(19) 0.0231(19) 0.0042(16) 0.0018(16) 0.0053(17)
N5 0.0187(17) 0.0108(14) 0.0146(16) -0.0001(12) 0.0031(13) 0.0049(13)
N6 0.0236(19) 0.0163(16) 0.0178(17) 0.0012(14) 0.0028(14) 0.0101(14)
N7 0.026(2) 0.027(2) 0.0213(19) 0.0017(16) 0.0067(16) 0.0039(16)
C1 0.018(2) 0.0107(17) 0.0196(19) -0.0001(15) 0.0027(16) 0.0070(15)
C2 0.022(2) 0.0125(17) 0.0143(18) 0.0026(15) 0.0037(15) 0.0063(16)
C3 0.021(2) 0.0143(18) 0.021(2) 0.0056(16) 0.0051(17) 0.0082(16)
C4 0.0164(19) 0.0137(17) 0.0171(19) 0.0044(15) 0.0006(15) 0.0058(15)
C5 0.027(2) 0.0180(19) 0.021(2) 0.0043(17) 0.0064(17) 0.0099(18)
C6 0.028(2) 0.018(2) 0.021(2) 0.0018(17) 0.0038(18) 0.0068(18)
C7 0.024(2) 0.020(2) 0.025(2) 0.0042(17) 0.0094(18) 0.0061(18)
C8 0.024(2) 0.0127(18) 0.0183(19) 0.0020(15) 0.0002(16) 0.0076(16)
C9 0.022(2) 0.0129(18) 0.021(2) 0.0019(15) 0.0030(17) 0.0046(16)
C10 0.021(2) 0.0202(19) 0.0171(19) 0.0042(16) 0.0022(16) 0.0097(17)
C11 0.021(2) 0.020(2) 0.028(2) 0.0015(18) 0.0019(18) 0.0067(18)
C12 0.021(2) 0.019(2) 0.027(2) 0.0091(17) 0.0012(18) 0.0065(17)
C13 0.021(2) 0.025(2) 0.019(2) 0.0084(17) 0.0042(17) 0.0103(18)
C14 0.026(2) 0.0114(18) 0.025(2) -0.0003(16) 0.0046(18) 0.0026(17)
C15 0.024(2) 0.016(2) 0.030(2) -0.0007(18) 0.0084(19) 0.0000(17)
C16 0.026(2) 0.0147(19) 0.024(2) 0.0014(17) 0.0094(18) 0.0057(17)
 
_geom_special_details
;
 All esds (except the esd in the dihedral angle between two l.s. planes)
 are estimated using the full covariance matrix.  The cell esds are taken
 into account individually in the estimation of esds in distances, angles
 and torsion angles; correlations between esds in cell parameters are only
 used when they are defined by crystal symmetry.  An approximate (isotropic)
 treatment of cell esds is used for estimating esds involving l.s. planes.
;
 
loop_
 _geom_bond_atom_site_label_1
 _geom_bond_atom_site_label_2
 _geom_bond_distance
 _geom_bond_site_symmetry_2
 _geom_bond_publ_flag
Cd1 N6 2.268(3) 1_544 ?
Cd1 N2 2.270(4) . ?
Cd1 O4 2.329(3) . ?
Cd1 O5 2.380(3) 2 ?
Cd1 O5 2.452(3) . ?
Cd1 O1 2.458(3) . ?
Cd1 O2 2.502(3) . ?
Cd1 C1 2.750(4) . ?
O1 N1 1.259(5) . ?
O2 N1 1.256(5) . ?
O3 N1 1.241(4) . ?
O4 C1 1.262(5) . ?
O5 C1 1.269(5) . ?
O6 N7 1.392(5) . ?
O6 N4 1.393(5) . ?
N2 C5 1.315(5) . ?
N2 C6 1.373(5) . ?
N3 C5 1.359(5) . ?
N3 C7 1.385(5) . ?
N3 C8 1.422(5) . ?
N4 C13 1.303(5) . ?
N5 C14 1.356(5) . ?
N5 C15 1.381(5) . ?
N5 C10 1.418(5) . ?
N6 C14 1.305(5) . ?
N6 C16 1.370(5) . ?
N7 C12 1.315(5) . ?
C1 C2 1.521(5) . ?
C2 C3 1.530(5) . ?
C2 C4 1.536(5) 2_665 ?
C3 C4 1.530(5) . ?
C6 C7 1.345(6) . ?
C8 C9 1.360(5) . ?
C8 C13 1.425(6) . ?
C9 C10 1.447(5) . ?
C10 C11 1.354(6) . ?
C11 C12 1.414(6) . ?
C12 C13 1.424(6) . ?
C15 C16 1.346(6) . ?
 
loop_
 _geom_angle_atom_site_label_1
 _geom_angle_atom_site_label_2
 _geom_angle_atom_site_label_3
 _geom_angle
 _geom_angle_site_symmetry_1
 _geom_angle_site_symmetry_3
 _geom_angle_publ_flag
N6 Cd1 N2 173.06(12) 1_544 . ?
N6 Cd1 O4 96.45(11) 1_544 . ?
N2 Cd1 O4 90.44(12) . . ?
N6 Cd1 O5 83.84(11) 1_544 2 ?
N2 Cd1 O5 91.62(11) . 2 ?
O4 Cd1 O5 138.24(9) . 2 ?
N6 Cd1 O5 87.55(11) 1_544 . ?
N2 Cd1 O5 97.21(11) . . ?
O4 Cd1 O5 54.61(9) . . ?
O5 Cd1 O5 83.78(10) 2 . ?
N6 Cd1 O1 92.40(11) 1_544 . ?
N2 Cd1 O1 82.02(11) . . ?
O4 Cd1 O1 135.51(10) . . ?
O5 Cd1 O1 85.99(10) 2 . ?
O5 Cd1 O1 169.72(9) . . ?
N6 Cd1 O2 84.16(12) 1_544 . ?
N2 Cd1 O2 95.48(12) . . ?
O4 Cd1 O2 85.97(10) . . ?
O5 Cd1 O2 135.21(10) 2 . ?
O5 Cd1 O2 138.45(10) . . ?
O1 Cd1 O2 51.65(10) . . ?
N6 Cd1 C1 90.87(11) 1_544 . ?
N2 Cd1 C1 95.68(12) . . ?
O4 Cd1 C1 27.19(10) . . ?
O5 Cd1 C1 111.26(10) 2 . ?
O5 Cd1 C1 27.48(10) . . ?
O1 Cd1 C1 162.70(11) . . ?
O2 Cd1 C1 111.91(11) . . ?
N1 O1 Cd1 95.9(2) . . ?
N1 O2 Cd1 93.9(2) . . ?
C1 O4 Cd1 95.3(2) . . ?
C1 O5 Cd1 174.3(2) . 2 ?
C1 O5 Cd1 89.4(2) . . ?
Cd1 O5 Cd1 96.22(10) 2 . ?
N7 O6 N4 112.3(3) . . ?
O3 N1 O2 122.3(4) . . ?
O3 N1 O1 119.2(4) . . ?
O2 N1 O1 118.5(3) . . ?
C5 N2 C6 105.8(4) . . ?
C5 N2 Cd1 124.0(3) . . ?
C6 N2 Cd1 129.8(3) . . ?
C5 N3 C7 106.5(3) . . ?
C5 N3 C8 126.4(4) . . ?
C7 N3 C8 127.0(3) . . ?
C13 N4 O6 104.8(4) . . ?
C14 N5 C15 106.1(3) . . ?
C14 N5 C10 127.4(3) . . ?
C15 N5 C10 126.5(3) . . ?
C14 N6 C16 105.9(3) . . ?
C14 N6 Cd1 134.3(3) . 1_566 ?
C16 N6 Cd1 119.4(3) . 1_566 ?
C12 N7 O6 103.2(3) . . ?
O4 C1 O5 120.3(3) . . ?
O4 C1 C2 120.4(3) . . ?
O5 C1 C2 119.2(3) . . ?
O4 C1 Cd1 57.5(2) . . ?
O5 C1 Cd1 63.09(19) . . ?
C2 C1 Cd1 172.6(3) . . ?
C1 C2 C3 114.0(3) . . ?
C1 C2 C4 112.9(3) . 2_665 ?
C3 C2 C4 109.9(3) . 2_665 ?
C2 C3 C4 112.5(3) . . ?
C3 C4 C2 112.7(3) . 2_665 ?
N2 C5 N3 111.2(4) . . ?
C7 C6 N2 110.3(4) . . ?
C6 C7 N3 106.1(4) . . ?
C9 C8 N3 121.2(4) . . ?
C9 C8 C13 117.3(4) . . ?
N3 C8 C13 121.6(4) . . ?
C8 C9 C10 121.7(4) . . ?
C11 C10 N5 120.1(4) . . ?
C11 C10 C9 122.5(4) . . ?
N5 C10 C9 117.4(3) . . ?
C10 C11 C12 116.3(4) . . ?
N7 C12 C11 127.1(4) . . ?
N7 C12 C13 110.7(4) . . ?
C11 C12 C13 122.2(4) . . ?
N4 C13 C12 109.0(4) . . ?
N4 C13 C8 131.0(4) . . ?
C12 C13 C8 120.0(4) . . ?
N6 C14 N5 111.7(4) . . ?
C16 C15 N5 106.3(4) . . ?
C15 C16 N6 110.0(4) . . ?
 
_refine_diff_density_max    1.119
_refine_diff_density_min   -1.060
_refine_diff_density_rms    0.173

_shelx_res_file
;
TITL VV-39_a.res in P-1
    VV-39_a.res
    created by SHELXL-2018/3 at 14:30:38 on 22-May-2023
REM Old TITL VV-39 in P1
REM SHELXT solution in P-1: R1 0.087, Rweak 0.013, Alpha 0.067
REM <I/s>   0.000 for    0 systematic absences,  Orientation as input
REM Formula found by SHELXT:  C24 N4 O Cd
CELL  0.71073   8.7319   9.8669  11.3875  100.274   90.123  115.935
ZERR    8.000   0.0004   0.0005   0.0005    0.002    0.002    0.002
LATT  1
SFAC C H N O CD
UNIT 32 26 14 12 2
ACTA
TEMP -123.150
L.S. 10
BOND
LIST 4
FMAP 2
PLAN 20
WGHT    0.051900
FVAR       0.38782
CD1   5    0.138799   -0.022568    0.103644    11.00000    0.02021    0.01128 =
         0.01407    0.00122    0.00096    0.00599
O1    4    0.064445   -0.210090    0.235406    11.00000    0.02601    0.02118 =
         0.03379    0.00638   -0.00373    0.00873
O2    4    0.334009   -0.092590    0.212991    11.00000    0.02865    0.03079 =
         0.03892    0.01463    0.00311    0.00784
O3    4    0.242971   -0.252204    0.336301    11.00000    0.04300    0.03660 =
         0.04484    0.02166   -0.01041    0.01441
O4    4    0.385443    0.190190    0.076288    11.00000    0.02358    0.01894 =
         0.02436    0.00871   -0.00305    0.00373
O5    4    0.157498    0.144693   -0.036753    11.00000    0.01608    0.01695 =
         0.02955    0.00690    0.00109    0.00304
O6    4    0.611933    0.725898    0.377920    11.00000    0.03183    0.03477 =
         0.02672    0.00341    0.00503    0.00523
N1    3    0.215601   -0.185720    0.261853    11.00000    0.03212    0.01523 =
         0.02653    0.00669   -0.00763    0.00591
N2    3    0.095937    0.120574    0.267758    11.00000    0.02501    0.01933 =
         0.01972    0.00346    0.00099    0.00902
N3    3    0.150294    0.319083    0.414501    11.00000    0.02459    0.01592 =
         0.01701    0.00310    0.00522    0.00942
N4    3    0.474599    0.579811    0.360998    11.00000    0.02754    0.02665 =
         0.02311    0.00420    0.00178    0.00526
N5    3    0.192801    0.688711    0.774387    11.00000    0.01870    0.01082 =
         0.01458   -0.00008    0.00308    0.00494
N6    3    0.154989    0.809457    0.945692    11.00000    0.02365    0.01631 =
         0.01779    0.00119    0.00279    0.01011
N7    3    0.606110    0.822722    0.481133    11.00000    0.02612    0.02652 =
         0.02126    0.00172    0.00673    0.00391
C1    1    0.317081    0.219839   -0.007084    11.00000    0.01846    0.01065 =
         0.01961   -0.00006    0.00275    0.00699
C2    1    0.426015    0.341217   -0.076741    11.00000    0.02203    0.01250 =
         0.01432    0.00259    0.00368    0.00629
AFIX  13
H2    2    0.421804    0.285346   -0.160008    11.00000   -1.20000
AFIX   0
C3    1    0.614730    0.427608   -0.028958    11.00000    0.02118    0.01426 =
         0.02133    0.00565    0.00507    0.00823
AFIX  23
H3A   2    0.681943    0.482377   -0.090117    11.00000   -1.20000
H3B   2    0.656100    0.352506   -0.015106    11.00000   -1.20000
AFIX   0
C4    1    0.645066    0.543700    0.087871    11.00000    0.01638    0.01375 =
         0.01709    0.00440    0.00056    0.00580
AFIX  23
H4A   2    0.769438    0.600852    0.111857    11.00000   -1.20000
H4B   2    0.590236    0.487517    0.151816    11.00000   -1.20000
AFIX   0
C5    1    0.198137    0.266771    0.309289    11.00000    0.02673    0.01799 =
         0.02078    0.00425    0.00641    0.00994
AFIX  43
H5    2    0.293094    0.327878    0.270734    11.00000   -1.20000
AFIX   0
C6    1   -0.021299    0.075912    0.350375    11.00000    0.02804    0.01820 =
         0.02072    0.00176    0.00378    0.00676
AFIX  43
H6    2   -0.111099   -0.024893    0.344517    11.00000   -1.20000
AFIX   0
C7    1    0.009078    0.195209    0.440810    11.00000    0.02449    0.01957 =
         0.02463    0.00418    0.00943    0.00614
AFIX  43
H7    2   -0.053646    0.194604    0.508937    11.00000   -1.20000
AFIX   0
C8    1    0.235311    0.469411    0.486319    11.00000    0.02365    0.01269 =
         0.01833    0.00203    0.00016    0.00765
C9    1    0.176302    0.508369    0.591066    11.00000    0.02167    0.01290 =
         0.02120    0.00193    0.00302    0.00458
AFIX  43
H9    2    0.075418    0.433994    0.615725    11.00000   -1.20000
AFIX   0
C10   1    0.263128    0.660131    0.665958    11.00000    0.02056    0.02021 =
         0.01715    0.00421    0.00218    0.00967
C11   1    0.405396    0.773022    0.635493    11.00000    0.02086    0.01994 =
         0.02849    0.00150    0.00189    0.00666
AFIX  43
H11   2    0.459896    0.873028    0.684412    11.00000   -1.20000
AFIX   0
C12   1    0.468391    0.733922    0.526907    11.00000    0.02074    0.01895 =
         0.02714    0.00913    0.00121    0.00646
C13   1    0.386888    0.584568    0.452715    11.00000    0.02068    0.02471 =
         0.01933    0.00838    0.00422    0.01026
C14   1    0.246828    0.823596    0.854296    11.00000    0.02650    0.01139 =
         0.02540   -0.00026    0.00456    0.00260
AFIX  43
H14   2    0.340101    0.916946    0.844901    11.00000   -1.20000
AFIX   0
C15   1    0.056652    0.582391    0.821118    11.00000    0.02410    0.01607 =
         0.03011   -0.00074    0.00842    0.00000
AFIX  43
H15   2   -0.009762    0.476821    0.786164    11.00000   -1.20000
AFIX   0
C16   1    0.036807    0.658160    0.926064    11.00000    0.02554    0.01465 =
         0.02444    0.00139    0.00940    0.00565
AFIX  43
H16   2   -0.046816    0.613307    0.978723    11.00000   -1.20000
REM #####
AFIX   0
HKLF 4




REM  VV-39_a.res in P-1
REM wR2 = 0.1082, GooF = S = 1.070, Restrained GooF = 1.070 for all data
REM R1 = 0.0416 for 3742 Fo > 4sig(Fo) and 0.0627 for all 4643 data
REM 271 parameters refined using 0 restraints

END

WGHT      0.0517      0.0000

REM Highest difference peak  1.119,  deepest hole -1.060,  1-sigma level  0.173
Q1    1   0.5968  0.9452  0.5499  11.00000  0.05    1.12
Q2    1   0.4657  0.9026  0.6271  11.00000  0.05    0.86
Q3    1   0.3044 -0.2771  0.2903  11.00000  0.05    0.71
Q4    1   0.2208  0.4396  0.5792  11.00000  0.05    0.68
Q5    1   0.4087  0.7372  0.5733  11.00000  0.05    0.61
Q6    1   0.4823  0.6961  0.4498  11.00000  0.05    0.61
Q7    1   0.0132  0.2794  0.6102  11.00000  0.05    0.60
Q8    1   0.4298  0.6570  0.4976  11.00000  0.05    0.59
Q9    1   0.2073  0.3508  0.6156  11.00000  0.05    0.58
Q10   1   0.0623  0.3127  0.4951  11.00000  0.05    0.58
Q11   1  -0.0049 -0.1051  0.1298  11.00000  0.05    0.56
Q12   1   0.6044  0.7352  0.5649  11.00000  0.05    0.56
Q13   1   0.5470  0.8755  0.4539  11.00000  0.05    0.55
Q14   1   0.2028  0.6580  0.5182  11.00000  0.05    0.53
Q15   1   0.0269  0.1569  0.5874  11.00000  0.05    0.53
Q16   1   0.4495  0.8266  0.3993  11.00000  0.05    0.53
Q17   1   0.5014  0.9447  0.4484  11.00000  0.05    0.53
Q18   1  -0.3422 -0.0862  0.3427  11.00000  0.05    0.51
Q19   1   0.4080 -0.0804  0.3874  11.00000  0.05    0.51
Q20   1   0.4417  0.7776  0.4828  11.00000  0.05    0.51
;
_shelx_res_checksum   83691

_shelx_hkl_file
;
  -1   0   0  447.56   10.70
  -1   0   0  453.05   12.40
   1   0   0  441.46   12.30
  -2   0   0  106.99    4.30
  -2   0   0  113.39    6.70
   2   0   0  115.19    4.30
   2   0   0  104.29    6.20
  -3   0   0  504.65   13.80
  -3   0   0  485.25   17.80
   3   0   0  492.75   14.10
   3   0   0  474.85   17.60
  -4   0   0  872.61   29.50
  -4   0   0  917.91   23.90
   4   0   0  906.21   29.50
   4   0   0  919.41   23.40
  -5   0   0   69.29    5.00
  -5   0   0   74.29   10.00
   5   0   0   64.39    8.60
   5   0   0   68.79    4.80
  -6   0   0   68.09   10.30
  -6   0   0   78.19    5.90
   6   0   0   77.09    5.60
  -7   0   0  139.49    8.80
   7   0   0  139.39    8.10
   7   0   0  154.88   15.60
  -8   0   0  151.48   10.20
   8   0   0  134.89    8.80
   8   0   0  151.48   17.30
   9   0   0   -1.40    6.40
   9   0   0    2.10   11.10
  10   0   0   26.20   13.30
  10  -1   0   48.40   15.60
 -10   1   0   35.00    9.20
   9  -1   0  -15.90    5.80
   9  -1   0  -11.40    9.70
  -9   1   0   -1.10    6.20
   8  -1   0  120.29    9.60
   8  -1   0   85.69   14.10
  -8   1   0  132.69    9.90
   7  -1   0  236.58   18.10
   7  -1   0  237.78   10.80
  -7   1   0  253.97   11.70
   6  -1   0  123.99    7.30
  -6   1   0  143.49    7.80
   5  -1   0  528.35   16.20
   5  -1   0  535.65   23.20
   5  -1   0  528.75   21.90
  -5   1   0  537.85   16.70
   4  -1   0  833.92   22.00
   4  -1   0  871.71   28.50
   4  -1   0  801.82   27.00
  -4   1   0  824.82   22.50
   3  -1   0  138.29    8.10
   3  -1   0  143.39    5.80
   3  -1   0  146.39    8.70
  -3   1   0  141.49    6.00
   2  -1   0  360.66   10.10
   2  -1   0  346.27   12.30
  -2   1   0  357.46   10.20
  -2   1   0  356.26   12.20
   1  -1   0  452.65   11.30
   1  -1   0  441.56   12.30
  -1   1   0  443.16   11.30
  -1   1   0  439.06   12.20
   0  -1   0  514.05   14.00
   0   1   0  577.14   13.50
  -1  -1   0 1720.53   42.30
   1   1   0 1763.32   39.30
   1   1   0 1755.42   40.00
   1   1   0 1814.52   43.60
  -2  -1   0   66.79    5.60
   2   1   0   65.79    5.60
   2   1   0   68.49    3.60
  -3  -1   0  727.13   19.50
  -3  -1   0  742.83   24.60
   3   1   0  736.13   24.40
  -4  -1   0  443.46   14.10
  -4  -1   0  465.05   19.90
   4   1   0  444.66   19.50
   4   1   0  455.55   13.70
  -5  -1   0    0.80    3.80
  -5  -1   0   -1.60    2.60
   5   1   0    3.90    2.40
  -6  -1   0   85.99   12.00
   6   1   0   86.89    6.20
  -7  -1   0  331.57   21.20
   7   1   0  307.67   12.20
   8   1   0   73.49    6.50
   8   1   0   75.49   14.40
   8   1   0   52.19    6.80
   9   1   0   49.70   15.20
   9   1   0   19.30    5.20
  10   1   0    4.20   13.60
  11  -2   0    2.90   13.90
 -11   2   0  -17.90   14.20
  10  -2   0  207.48   24.40
 -10   2   0  197.88   14.30
   9  -2   0    9.30    6.30
   9  -2   0   -6.60    8.50
  -9   2   0   13.40    5.50
   8  -2   0   93.39    8.60
   8  -2   0   93.89   14.50
  -8   2   0  104.49    8.20
   7  -2   0  142.19    8.30
   7  -2   0  143.09   14.20
  -7   2   0  135.79    8.60
   6  -2   0  348.77   13.10
   6  -2   0  361.86   19.80
  -6   2   0  364.86   13.90
   5  -2   0   75.59    8.60
   5  -2   0   76.39    9.20
   5  -2   0   78.39    5.40
  -5   2   0   82.59    5.80
   4  -2   0  441.46   18.40
   4  -2   0  441.36   13.80
   4  -2   0  422.66   17.20
  -4   2   0  429.36   14.00
   3  -2   0  131.19    8.00
   3  -2   0  127.99    5.80
  -3   2   0  113.79    7.20
  -3   2   0  118.39    5.90
   2  -2   0   83.99    4.30
  -2   2   0   80.89    5.40
   1  -2   0  221.78    8.80
  -1   2   0  224.28    8.70
  -1   2   0  241.98    7.70
   0  -2   0   11.20    2.60
   0  -2   0   14.60    2.10
   0   2   0   13.70    2.00
  -1  -2   0  604.34   18.60
  -1  -2   0  581.74   15.70
   1   2   0  564.94   18.30
   1   2   0  574.14   15.00
  -2  -2   0   67.09    6.30
   2   2   0   58.69    5.70
   2   2   0   62.39    3.60
   2   2   0   67.19    4.70
  -3  -2   0  435.56   18.30
   3   2   0  438.56   12.50
   3   2   0  418.06   13.10
   3   2   0  416.36   17.90
  -4  -2   0  381.66   18.90
   4   2   0  394.76   19.10
   4   2   0  437.46   12.80
   4   2   0  428.46   13.60
  -5  -2   0  260.97   17.00
   5   2   0  269.77    9.60
   5   2   0  251.67   10.00
  -6  -2   0   29.40    8.50
   6   2   0   30.80    4.30
   6   2   0   24.90    3.60
  -7  -2   0  138.59   18.00
   7   2   0  101.79    7.90
   7   2   0  103.99    6.70
   8   2   0   70.59    7.40
   8   2   0   73.79    6.60
   9   2   0   -0.60   13.60
   9   2   0    6.30    5.20
  11  -3   0  114.79   19.50
 -11   3   0   98.89   13.10
  10  -3   0   89.89   17.90
 -10   3   0   71.59   10.00
   9  -3   0   24.40   11.40
  -9   3   0   13.90    5.50
   8  -3   0   -6.70    5.50
   8  -3   0    5.50    4.80
  -8   3   0    0.70    4.30
   7  -3   0  246.18   17.70
   7  -3   0  244.38   11.60
  -7   3   0  260.77   12.50
   6  -3   0  104.49   10.50
   6  -3   0  109.69    7.30
  -6   3   0  120.69    7.90
   5  -3   0   24.70    5.70
   5  -3   0   27.30    3.70
   5  -3   0   22.10    5.80
  -5   3   0   31.50    4.30
   4  -3   0  199.78   11.40
   4  -3   0  201.38    8.80
  -4   3   0  207.58    9.20
  -4   3   0  199.08   10.90
   3  -3   0 1522.55   38.00
   3  -3   0 1503.95   41.30
  -3   3   0 1496.45   40.80
  -3   3   0 1623.44   38.90
   2  -3   0   55.49    3.90
   2  -3   0   58.49    5.40
  -2   3   0   59.99    4.30
  -2   3   0   60.79    5.40
   1  -3   0   22.50    3.10
   1  -3   0   27.00    4.30
  -1   3   0   28.90    3.50
  -1   3   0   27.00    4.50
   0  -3   0   31.40    2.80
   0  -3   0   33.10    5.00
   0   3   0   34.20    3.90
   0   3   0   33.90    3.00
  -1  -3   0  585.24   16.10
  -1  -3   0  574.94   20.20
   1   3   0  577.14   20.10
   1   3   0  584.34   16.30
  -2  -3   0   18.80    4.30
   2   3   0   19.10    4.40
   2   3   0   18.40    2.80
  -3  -3   0   87.39    8.20
   3   3   0   77.99    4.70
   3   3   0   82.19    6.00
   3   3   0   77.29    9.00
  -4  -3   0  157.48   14.00
   4   3   0  144.49    7.80
   4   3   0  146.29    7.10
  -5  -3   0  286.17   18.50
   5   3   0  295.47   10.70
   5   3   0  287.17   11.50
  -6  -3   0   16.30    8.30
   6   3   0   15.00    4.60
   6   3   0    9.50    3.60
  -7  -3   0  185.98   18.70
   7   3   0  167.18   10.30
   7   3   0  166.18    8.70
  -8  -3   0   90.19   16.70
   9   3   0    4.00   14.50
  11  -4   0   63.39   17.10
 -11   4   0   49.30   10.90
 -10   4   0  129.89   12.90
   9  -4   0   55.39   12.70
  -9   4   0   53.19    8.10
   8  -4   0   18.50    6.80
  -8   4   0   27.90    5.20
   7  -4   0  101.89    7.80
   7  -4   0   96.99   10.70
  -7   4   0  110.99    8.30
   6  -4   0  187.38    9.90
   6  -4   0  204.98   14.10
  -6   4   0  197.08   10.70
   5  -4   0  167.38   11.90
   5  -4   0  163.68    9.70
  -5   4   0  175.68    9.40
  -5   4   0  166.68   11.00
   4  -4   0  311.07   12.30
   4  -4   0  345.07   16.20
  -4   4   0  343.07   15.70
  -4   4   0  349.96   13.60
   3  -4   0  438.16   14.60
   3  -4   0  428.86   17.50
  -3   4   0  418.16   17.00
  -3   4   0  425.56   15.10
   2  -4   0  257.27   10.10
   2  -4   0  255.77   12.40
  -2   4   0  266.87   10.50
  -2   4   0  243.38   12.00
   1  -4   0   -1.10    2.30
   1  -4   0    1.40    1.50
  -1   4   0    0.30    2.30
  -1   4   0    2.20    1.80
   0  -4   0  567.54   20.60
   0  -4   0  573.84   17.10
   0   4   0  560.64   20.50
   0   4   0  606.04   17.70
  -1  -4   0  323.47   11.40
  -1  -4   0  332.57   15.40
   1   4   0  344.77   12.00
   1   4   0  317.47   15.20
  -2  -4   0    6.50    3.80
  -2  -4   0    6.70    2.10
   2   4   0   11.50    4.60
   2   4   0    9.00    2.40
  -3  -4   0  193.68   13.60
   3   4   0  196.68    8.70
   3   4   0  197.28   10.30
  -4  -4   0  126.79   12.80
   4   4   0  115.19    7.00
   4   4   0  115.69    8.20
  -5  -4   0  139.29   13.90
   5   4   0  109.99    8.60
   5   4   0  128.79    7.50
  -6  -4   0   -4.40    7.40
   6   4   0   -2.80    3.50
   6   4   0    0.60    5.80
  -7  -4   0   72.39   14.60
   7   4   0   66.99    7.70
   7   4   0   75.39    7.50
  -8  -4   0   52.89   15.70
  11  -5   0   40.80   16.30
 -11   5   0   54.49   11.20
  10  -5   0   78.69   26.10
 -10   5   0   51.79    9.20
   9  -5   0  125.89   17.20
  -9   5   0  138.39   11.90
   8  -5   0    2.30    6.20
  -8   5   0    1.00    4.00
   7  -5   0  158.78   13.90
  -7   5   0  170.68   11.30
   6  -5   0  246.88   16.10
  -6   5   0  240.98   12.70
   5  -5   0   89.29    6.80
   5  -5   0   90.59    9.30
  -5   5   0   90.29    7.10
  -5   5   0   89.89    9.20
   4  -5   0   67.69    9.50
   4  -5   0   47.90    4.90
  -4   5   0   45.40    4.90
  -4   5   0   53.39    7.80
   3  -5   0  961.40   31.40
   3  -5   0  962.10   29.30
  -3   5   0  949.21   28.00
  -3   5   0  925.11   30.50
   2  -5   0  138.89    9.90
   2  -5   0  138.19    7.60
  -2   5   0  139.79    9.50
  -2   5   0  128.79    7.60
   1  -5   0   21.30    3.80
   1  -5   0   23.50    5.00
  -1   5   0   16.40    3.40
  -1   5   0   25.80    5.60
   0  -5   0  470.65   15.80
   0  -5   0  467.65   19.60
   0   5   0  492.35   16.40
   0   5   0  463.15   19.50
  -1  -5   0  418.86   14.50
  -1  -5   0  451.25   19.70
   1   5   0  445.76   15.30
   1   5   0  397.96   19.30
  -2  -5   0  226.58   14.40
  -2  -5   0  210.88    9.50
   2   5   0  225.08   10.10
  -3  -5   0   53.99    9.10
   3   5   0   55.49    6.30
   3   5   0   54.39    7.40
  -4  -5   0  289.27   18.30
   4   5   0  290.27   14.40
   4   5   0  316.07   12.70
  -5  -5   0  142.79   16.10
   5   5   0  104.19    8.20
   5   5   0  112.79   10.50
  -6  -5   0   40.50   11.90
   6   5   0   39.20    8.40
   6   5   0   58.19    6.70
  -7  -5   0   36.50   12.20
   7   5   0   28.30    5.40
  11  -6   0    7.20   12.50
 -11   6   0    7.60    8.60
  10  -6   0  118.59   22.40
 -10   6   0  156.88   13.70
   9  -6   0  132.89   18.10
  -9   6   0  152.68   12.50
   8  -6   0   -7.40    5.50
  -8   6   0   -2.20    3.70
   7  -6   0  373.56   21.60
  -7   6   0  454.85   19.30
   6  -6   0  276.17   21.90
   5  -6   0  183.58   13.80
  -5   6   0  172.88   12.70
  -5   6   0  189.18   11.20
   4  -6   0   73.59    8.50
  -4   6   0   81.39    6.90
  -4   6   0   81.29    9.80
   3  -6   0  952.00   29.50
   3  -6   0 1058.39   34.70
  -3   6   0 1020.10   30.60
   2  -6   0 1394.06   42.80
   2  -6   0 1313.77   37.40
  -2   6   0 1460.95   39.10
   1  -6   0    7.70    3.20
   1  -6   0   15.50    4.40
  -1   6   0    6.60    2.40
  -1   6   0   10.30    5.20
   0  -6   0  244.88   14.80
   0  -6   0  222.38   10.60
   0   6   0  237.88   11.30
   0   6   0  233.48   14.40
  -1  -6   0  913.31   27.40
  -1  -6   0  961.20   34.40
   1   6   0  949.11   28.10
  -2  -6   0  132.79   12.40
  -2  -6   0  142.09    8.50
   2   6   0  155.18    8.80
  -3  -6   0   67.69   10.60
   3   6   0   48.50    6.40
   3   6   0   33.20    7.60
  -4  -6   0  149.19   15.60
   4   6   0  156.88    9.80
   4   6   0  140.59   12.50
  -5  -6   0   54.09   11.80
   5   6   0   71.99    7.70
   5   6   0   76.09    9.60
  -6  -6   0   11.90   10.50
   6   6   0  -12.70    5.70
  -7  -6   0   28.00   14.60
  11  -7   0    9.20   13.00
 -11   7   0    4.00    8.70
 -10   7   0   67.29   11.50
   9  -7   0   65.79   12.90
  -9   7   0   83.09   11.00
   8  -7   0    9.90    6.60
  -8   7   0    9.00    4.80
   7  -7   0   25.00    7.90
  -7   7   0   12.60    4.80
   6  -7   0  266.77   17.70
  -6   7   0  271.27   14.90
   5  -7   0   89.09   10.10
  -5   7   0   91.09    8.40
   4  -7   0   89.59   12.10
  -4   7   0   78.49    7.50
   3  -7   0  368.96   19.40
  -3   7   0  355.06   18.90
  -3   7   0  400.16   19.00
   2  -7   0  834.42   31.70
  -2   7   0  788.32   30.30
  -2   7   0  854.01   27.50
   1  -7   0   76.79    9.00
  -1   7   0   84.89    7.30
   0  -7   0   63.79    9.90
   0   7   0   63.99    7.70
  -1  -7   0  174.68   14.10
   1   7   0  170.78   10.40
  -2  -7   0  356.16   22.10
   2   7   0  377.66   16.00
  -3  -7   0   91.79   13.40
   3   7   0   78.79    8.50
  -4  -7   0  136.89   18.40
   4   7   0  132.39   12.40
  -5  -7   0  100.49   17.00
   5   7   0   75.29   10.10
  -6  -7   0   11.20   12.50
   6   7   0   24.50    7.80
  11  -8   0    0.30   13.10
 -11   8   0    6.00   10.60
  10  -8   0   70.89   16.70
 -10   8   0   61.99   10.90
   9  -8   0   74.99   15.70
  -9   8   0   82.19   11.80
   8  -8   0   -1.30    8.20
  -8   8   0    7.70    5.30
   7  -8   0   83.19   13.20
  -7   8   0  107.79   10.10
   6  -8   0  281.27   19.10
  -6   8   0  271.87   15.70
   5  -8   0   23.80    8.20
  -5   8   0   20.20    5.40
  -4   8   0   -2.50    3.20
  -3   8   0  291.97   15.20
   2  -8   0  231.38   24.20
  -2   8   0  225.68   12.90
   1  -8   0   51.39    8.70
  -1   8   0   58.49    8.10
   0  -8   0    9.20    6.00
   0   8   0    0.50    3.40
  -1  -8   0  198.88   17.10
   1   8   0  217.08   12.60
  -2  -8   0   66.89   11.70
   2   8   0   70.69    8.80
  -3  -8   0   -3.70    9.20
   3   8   0    2.90    5.80
  -4  -8   0   88.39   16.50
   4   8   0   63.39    8.90
  -5  -8   0  142.89   20.60
   5   8   0  144.89   12.70
  11  -9   0   13.90   14.80
 -11   9   0    1.10    9.40
  10  -9   0   78.29   17.40
 -10   9   0   60.69   10.90
   9  -9   0   88.69   15.40
  -9   9   0   87.49   13.00
   8  -9   0   60.09   12.80
  -8   9   0   61.99    9.90
   7  -9   0   74.09   14.20
  -7   9   0   63.49    9.60
   6  -9   0  255.37   19.70
  -6   9   0  277.37   17.20
   5  -9   0   50.29   10.10
  -5   9   0   84.99   11.30
   4  -9   0   -1.10    5.20
  -4   9   0    7.00    4.60
   3  -9   0   33.70    8.70
  -3   9   0   42.60    7.70
   2  -9   0  122.69   14.90
  -2   9   0  107.39   10.10
   1  -9   0    3.60    5.20
  -1   9   0    4.90    4.70
   0  -9   0   56.79   11.00
   0   9   0   57.29    8.80
  -1  -9   0   63.69   11.80
   1   9   0   48.70    8.00
  -2  -9   0   89.79   14.80
   2   9   0   98.19   10.40
  -3  -9   0   16.70   11.50
   3   9   0   27.10    7.10
  -4  -9   0   36.10   13.80
   4   9   0   29.80    8.90
  11 -10   0   23.00   15.60
 -11  10   0    1.60    9.60
  10 -10   0   18.40   13.40
 -10  10   0   13.20    8.30
  -9  10   0  119.69   14.90
   8 -10   0   86.69   15.10
   7 -10   0   54.09   12.30
  -7  10   0   46.70    9.40
   6 -10   0   83.99   14.40
  -6  10   0   51.29    9.50
   5 -10   0  133.29   14.40
  -5  10   0  112.49   11.50
   4 -10   0    6.10    6.60
  -4  10   0    4.30    5.20
   3 -10   0  121.79   14.00
  -3  10   0  130.69   12.00
   2 -10   0   60.69   11.60
  -2  10   0   71.09    9.60
   1 -10   0   67.59   12.40
  -1  10   0   61.99   10.20
   0 -10   0   18.40    9.00
   0  10   0    8.70    6.20
  -1 -10   0  159.48   18.70
   1  10   0  133.69   13.40
  -2 -10   0   30.90   13.60
   2  10   0   60.39   10.10
  -3 -10   0   32.50   15.00
   3  10   0   41.70   10.20
  10 -11   0   30.20   15.90
 -10  11   0   35.10   10.60
   9 -11   0   35.20   14.20
  -9  11   0   12.90    8.20
   8 -11   0   27.60   12.30
  -8  11   0    8.40    7.10
   7 -11   0    0.70    8.90
  -7  11   0    4.90    6.90
   6 -11   0  137.79   18.70
  -6  11   0  116.59   16.30
   5 -11   0  311.97   23.50
   4 -11   0  106.79   15.10
  -4  11   0   89.79   11.90
   3 -11   0   16.10    9.70
  -3  11   0   20.50    6.80
   2 -11   0  278.57   22.10
  -2  11   0  263.47   17.80
   1 -11   0   94.39   15.50
  -1  11   0   75.39   12.00
   0 -11   0   20.70   11.10
   0  11   0    2.70    7.10
  -1 -11   0   13.40   12.90
   1  11   0   12.50   11.20
   9 -12   0  262.47   27.40
  -9  12   0  184.18   18.10
   8 -12   0   49.10   13.30
  -8  12   0   48.10   11.40
   7 -12   0   -0.60   10.10
  -7  12   0   -1.00    7.70
   6 -12   0  116.09   18.90
  -6  12   0  116.99   15.80
   5 -12   0  178.98   20.60
  -5  12   0  201.88   17.30
   4 -12   0   37.90   12.90
  -4  12   0   44.80   10.90
   3 -12   0   25.70   21.40
  -3  12   0   -2.60    7.00
   2 -12   0  162.78   21.00
  -2  12   0  130.89   16.40
   1 -12   0  112.69   18.30
  -1  12   0  135.89   15.90
   7 -13   0   18.30   12.90
  -7  13   0   12.40    8.70
   6 -13   0   95.09   18.10
  -6  13   0   75.99   12.70
   5 -13   0   74.19   16.80
  -5  13   0   90.39   15.00
   4 -13   0   17.80   13.50
  -4  13   0   40.00   10.30
   3 -13   0  -20.20   10.50
  -3  13   0    2.10    8.50
  -3  13  -1    2.20    8.60
   3 -13   1   -3.70   12.20
  -4  13  -1   49.30   10.90
   4 -13   1   63.19   15.20
  -5  13  -1   57.19   11.90
   5 -13   1   59.19   15.40
  -6  13  -1   41.50   11.30
   6 -13   1   21.50   12.60
  -7  13  -1   39.70   10.50
   7 -13   1   57.99   15.10
   0  12  -1   74.89   13.40
   0 -12   1   83.59   16.40
  -1  12  -1   99.09   14.10
   1 -12   1   84.79   16.20
  -2  12  -1   10.00    8.80
   2 -12   1   18.70   11.30
  -3  12  -1   21.40    7.40
   3 -12   1   15.00   10.60
  -4  12  -1  174.48   16.20
   4 -12   1  224.48   20.90
  -5  12  -1  189.88   16.50
   5 -12   1  184.38   19.50
  -6  12  -1    7.90    7.00
   6 -12   1   11.60   10.20
  -7  12  -1   48.30   10.50
   7 -12   1   50.59   13.90
  -8  12  -1   85.29   12.90
   8 -12   1  101.39   17.50
  -9  12  -1   29.90   10.30
   9 -12   1   48.10   15.10
  -1 -11   1    5.40   11.30
   0  11  -1   52.49   11.80
   0 -11   1   50.89   13.50
  -1  11  -1  267.37   17.80
   1 -11   1  222.18   21.40
  -2  11  -1  135.89   13.40
   2 -11   1  128.09   16.50
  -3  11  -1    0.40    5.90
   3 -11   1   -8.50    7.20
  -4  11  -1  104.09   14.30
   4 -11   1  115.09   15.00
  -5  11  -1  131.19   13.30
   5 -11   1  161.08   16.90
   6 -11   1   28.60   11.50
  -7  11  -1   29.90    9.20
   7 -11   1   31.00   11.60
  -8  11  -1   49.10   10.90
   8 -11   1   62.99   15.60
  -9  11  -1   35.30   10.10
   9 -11   1   49.50   13.80
 -10  11  -1    2.40    9.40
  10 -11   1  -21.30   12.80
   3  10  -1  115.49   13.80
  -3 -10   1  107.39   18.00
   2  10  -1   58.89   10.30
  -2 -10   1   75.09   18.40
   1  10  -1    7.90    6.40
  -1 -10   1   12.50   10.60
   0  10  -1   50.89    8.40
   0 -10   1   44.60   11.10
  -1  10  -1  175.98   13.40
   1 -10   1  159.88   15.90
  -2  10  -1  242.58   15.40
   2 -10   1  220.78   17.80
  -3  10  -1   23.40    6.90
   3 -10   1   18.80    8.70
  -4  10  -1   43.20    8.40
   4 -10   1   37.90    9.50
  -5  10  -1  106.09   11.30
   5 -10   1  122.19   13.80
  -6  10  -1   13.50    6.10
   6 -10   1    3.30    5.50
  -7  10  -1   42.90    8.70
   7 -10   1   58.39   12.50
  -8  10  -1  107.69   13.70
   8 -10   1  111.99   17.40
  -9  10  -1   96.39   14.30
   9 -10   1  107.89   17.80
 -10  10  -1   -5.10    8.20
  10 -10   1  -12.60   11.90
 -11  10  -1   -2.90   10.40
  11 -10   1   24.30   15.40
   4   9  -1   -5.90    7.90
  -4  -9   1    0.60   12.10
   3   9  -1  119.69   12.40
   2   9  -1  178.48   12.90
  -2  -9   1  154.38   18.40
   1   9  -1    0.90    5.20
  -1  -9   1   -5.30    7.70
   0   9  -1   -3.30    4.50
   0  -9   1   14.10    7.10
  -1   9  -1  241.68   14.30
   1  -9   1  254.97   17.90
  -2   9  -1  121.49   10.70
   2  -9   1  107.49   12.20
  -3   9  -1    5.20    3.80
   3  -9   1    6.60    5.20
  -4   9  -1   24.10    5.40
   4  -9   1   13.20    5.90
  -5   9  -1  136.29   11.20
   5  -9   1  139.49   13.30
  -6   9  -1   78.09   10.60
   6  -9   1   79.49   12.10
  -7   9  -1   18.70    6.10
   7  -9   1   27.50    8.20
  -8   9  -1  122.69   12.10
   8  -9   1  115.69   17.40
  -9   9  -1   67.99   11.00
   9  -9   1   78.19   15.20
  10  -9   1    5.80   12.50
 -11   9  -1    7.70    9.60
  11  -9   1    3.00   13.30
   5   8  -1   72.89   10.40
  -5  -8   1   49.20   15.70
   4   8  -1    7.60    6.70
   3   8  -1  104.69   10.50
  -3  -8   1   87.49   13.50
   2   8  -1  194.18   12.60
  -2  -8   1  194.28   16.60
   1   8  -1  253.97   13.80
  -1  -8   1  242.08   17.10
   0   8  -1   40.60    6.50
   0  -8   1   39.90    7.90
  -1   8  -1  204.38   12.30
   1  -8   1  187.58   13.90
  -2   8  -1  156.78   10.80
   2  -8   1  155.48   12.40
  -3   8  -1    7.20    3.30
   3  -8   1    3.40    4.70
  -4   8  -1   67.99    9.20
   4  -8   1   74.69   10.80
  -5   8  -1  144.39   10.90
   5  -8   1  154.38   15.00
  -6   8  -1  157.48   11.60
   6  -8   1  150.78   14.10
  -7   8  -1   -8.90    3.60
   7  -8   1   -3.00    5.70
  -8   8  -1  190.38   13.40
   8  -8   1  146.29   17.00
  -9   8  -1   23.20    7.10
   9  -8   1   34.70   11.00
 -10   8  -1   32.50    9.50
 -11   8  -1   -1.40   10.40
  11  -8   1    4.70   13.20
   6   7  -1   65.19    9.30
  -6  -7   1   52.29   15.00
   5   7  -1   30.60    7.20
  -5  -7   1   25.90   13.30
   4   7  -1   34.50    6.70
  -4  -7   1   23.80    9.70
   3   7  -1   27.50    5.90
  -3  -7   1   33.60    9.10
  -2  -7   1  189.68   15.70
   1   7  -1  317.77   15.30
  -1  -7   1  302.07   21.20
   0   7  -1    4.10    2.70
   0  -7   1    8.90    5.20
  -1   7  -1  253.97   12.70
  -1   7  -1  221.68   14.90
   1  -7   1  236.68   14.70
  -2   7  -1  905.41   28.80
  -2   7  -1  829.42   30.50
   2  -7   1  939.61   32.40
  -3   7  -1   64.39    8.10
  -3   7  -1   62.39    8.80
   3  -7   1   53.79    8.30
  -4   7  -1  296.87   16.90
   4  -7   1  282.57   16.80
  -5   7  -1  339.97   16.40
   5  -7   1  365.76   18.80
  -6   7  -1  399.46   18.20
  -7   7  -1   29.10    5.80
   7  -7   1   38.10    8.90
  -8   7  -1   86.59    9.10
   8  -7   1   67.39   13.10
  -9   7  -1  298.67   17.00
   9  -7   1  311.27   23.70
 -10   7  -1   88.69   11.80
  10  -7   1   81.49   16.30
 -11   7  -1   -1.40    8.40
  11  -7   1   -0.50   13.00
   7   6  -1   10.10    9.60
  -7  -6   1   -6.50   12.90
   6   6  -1   92.69   14.80
  -6  -6   1   61.19   14.50
   5   6  -1  110.99    9.80
  -5  -6   1  105.89   15.40
   4   6  -1   26.40    5.50
  -4  -6   1   35.10    9.20
   3   6  -1  155.48   15.20
   3   6  -1  176.98   10.50
  -3  -6   1  184.48   15.10
   2   6  -1  578.34   20.30
   1   6  -1   -1.70    2.70
   1   6  -1    5.80    5.00
  -1  -6   1    0.20    3.20
  -1  -6   1   -0.50    4.20
   0   6  -1   29.40    6.50
   0   6  -1   32.70    5.30
   0  -6   1   35.80    6.60
   0  -6   1   32.00    4.70
  -1   6  -1  275.47   14.70
  -1   6  -1  291.57   12.80
   1  -6   1  284.97   12.40
   1  -6   1  299.07   14.90
  -2   6  -1  522.25   18.60
  -2   6  -1  499.45   20.30
   2  -6   1  509.15   18.00
   2  -6   1  522.85   20.80
  -3   6  -1  199.28   10.30
  -3   6  -1  192.98   12.00
   3  -6   1  193.68   11.90
   3  -6   1  184.28    9.90
  -4   6  -1   15.00    3.80
  -4   6  -1   17.40    6.10
   4  -6   1   13.30    3.50
   4  -6   1   18.70    4.80
  -5   6  -1  669.43   23.20
  -5   6  -1  641.64   25.40
   5  -6   1  633.94   26.30
  -6   6  -1  324.67   15.20
   6  -6   1  314.17   18.40
  -7   6  -1   26.30    5.80
   7  -6   1   22.70    7.20
  -8   6  -1   31.80    6.30
   8  -6   1   22.40    8.20
  -9   6  -1  228.18   14.10
   9  -6   1  221.38   20.30
 -10   6  -1   51.99    9.00
  10  -6   1   66.69   13.40
 -11   6  -1    7.90    8.70
  11  -6   1   -5.70   11.70
  -8  -5   1    7.90   13.50
   7   5  -1   -5.10    6.60
  -7  -5   1   10.10   12.70
   6   5  -1   31.80    6.40
   6   5  -1   27.70    8.80
  -6  -5   1   24.00   10.10
   5   5  -1  116.49   11.60
   5   5  -1  120.39    8.90
  -5  -5   1   94.99   14.60
   4   5  -1  242.28   13.40
   4   5  -1  224.68   11.30
  -4  -5   1  237.68   16.30
   3   5  -1    1.90    3.00
   3   5  -1    2.00    5.50
  -3  -5   1    2.60    5.30
   2   5  -1  267.87   15.40
   2   5  -1  302.97   12.00
   2   5  -1  248.88   15.40
  -2  -5   1  293.17   16.10
   1   5  -1  534.45   17.50
   1   5  -1  489.65   22.50
  -1  -5   1  495.15   16.80
  -1  -5   1  519.45   20.70
   0   5  -1   31.90    4.50
   0   5  -1   27.40    5.30
   0  -5   1   29.90    4.30
   0  -5   1   33.20    5.60
  -1   5  -1  172.48    8.80
  -1   5  -1  171.98   10.10
   1  -5   1  180.38    8.60
   1  -5   1  178.08   10.40
  -2   5  -1  888.91   25.80
  -2   5  -1  884.41   27.70
   2  -5   1  900.81   28.00
   2  -5   1  830.12   25.00
  -3   5  -1  588.64   21.40
  -3   5  -1  617.64   20.00
   3  -5   1  616.14   22.30
   3  -5   1  610.24   19.60
  -4   5  -1   77.99    6.30
  -4   5  -1   73.09    7.50
   4  -5   1   90.19    7.80
   4  -5   1   78.19    7.20
  -5   5  -1  345.97   14.20
  -5   5  -1  331.37   16.10
   5  -5   1  311.47   13.20
   5  -5   1  320.57   16.80
  -6   5  -1  220.78   11.70
   6  -5   1  241.08   15.20
   6  -5   1  215.08   10.90
  -7   5  -1   86.99    7.80
   7  -5   1   90.59   12.50
   8  -5   1  150.08   14.40
  -9   5  -1  105.99   10.70
   9  -5   1  142.79   17.80
 -10   5  -1   36.00    8.10
  10  -5   1   63.89   15.80
 -11   5  -1    4.50    8.20
  11  -5   1    4.80   12.30
   8   4  -1   58.69    7.20
  -8  -4   1   70.99   15.90
   7   4  -1  -15.40    7.90
   7   4  -1   -4.60    5.10
   6   4  -1   32.10    5.50
   6   4  -1    7.40    6.70
  -6  -4   1   33.20   10.00
   5   4  -1  342.67   13.50
  -5  -4   1  313.17   19.80
   4   4  -1   73.39    7.70
   4   4  -1   66.29    6.00
  -4  -4   1   64.29    9.30
   3   4  -1   -0.20    3.90
   3   4  -1    2.70    5.00
   3   4  -1    3.90    2.00
  -3  -4   1   -1.10    3.80
   2   4  -1  478.85   17.30
   2   4  -1  463.35   24.20
   2   4  -1  444.76   15.10
  -2  -4   1  452.65   19.20
   1   4  -1  956.30   26.00
   1   4  -1  926.41   29.20
  -1  -4   1  968.30   29.50
  -1  -4   1  933.71   25.50
   0   4  -1   26.90    4.80
   0   4  -1   28.90    3.90
   0  -4   1   26.70    4.30
   0  -4   1   31.80    3.90
  -1   4  -1  179.68    8.00
  -1   4  -1  174.58    9.00
   1  -4   1  174.28    9.10
   1  -4   1  185.38    8.00
  -2   4  -1  945.11   27.50
  -2   4  -1  954.80   26.10
   2  -4   1  952.00   27.80
   2  -4   1  942.51   25.70
  -3   4  -1  221.68    9.60
  -3   4  -1  204.38   10.60
   3  -4   1  230.08   11.40
   3  -4   1  208.58    9.10
  -4   4  -1    5.40    2.40
  -4   4  -1   11.50    3.50
   4  -4   1    8.20    2.50
   4  -4   1   11.40    4.00
  -5   4  -1  154.48    8.40
   5  -4   1  145.49   11.00
   5  -4   1  138.99    7.60
  -6   4  -1  332.57   13.90
   6  -4   1  329.47   18.30
  -7   4  -1   11.50    3.30
   7  -4   1   -0.50    3.30
   7  -4   1    1.70    5.20
  -8   4  -1   51.69    6.80
   8  -4   1   26.30    6.60
   8  -4   1   45.40    9.40
  -9   4  -1  116.79   10.30
   9  -4   1  131.99   17.00
 -10   4  -1   44.90    8.70
 -11   4  -1    1.90    9.70
  11  -4   1   -6.00   12.50
   9   3  -1   58.39   10.60
   9   3  -1   67.79   17.70
   8   3  -1   53.19    7.00
   7   3  -1    7.50    4.60
  -7  -3   1   11.50    8.10
   6   3  -1  311.27   13.80
   6   3  -1  317.97   12.80
  -6  -3   1  308.17   20.20
   5   3  -1  272.17   11.30
   5   3  -1  280.27   12.50
  -5  -3   1  287.67   18.00
   4   3  -1   28.10    4.10
   4   3  -1   30.90    4.50
  -4  -3   1   30.50    6.80
   3   3  -1   12.00    4.40
   3   3  -1    3.40    3.10
   3   3  -1    6.10    2.20
  -3  -3   1    9.80    4.40
   2   3  -1  686.23   19.60
   2   3  -1  733.03   21.60
   2   3  -1  692.33   23.90
  -2  -3   1  715.03   24.00
   1   3  -1 1355.26   36.90
   1   3  -1 1378.46   33.90
  -1  -3   1 1373.36   36.90
  -1  -3   1 1377.66   33.80
   0   3  -1   71.09    5.20
   0   3  -1   70.29    4.30
   0  -3   1   80.19    4.40
   0  -3   1   76.49    5.70
  -1   3  -1  123.29    5.80
   1  -3   1  123.89    6.40
   1  -3   1  109.69    5.40
  -2   3  -1   33.40    3.20
  -2   3  -1   36.70    4.10
   2  -3   1   30.00    3.00
  -3   3  -1   69.69    5.70
  -3   3  -1   65.89    4.50
   3  -3   1   68.79    5.60
   3  -3   1   69.49    4.60
  -4   3  -1   82.69    6.90
  -4   3  -1   92.29    5.70
   4  -3   1   85.99    5.30
   4  -3   1   92.69    7.40
  -5   3  -1  342.37   12.90
   5  -3   1  339.07   12.20
   5  -3   1  332.57   23.40
   5  -3   1  368.56   17.50
  -6   3  -1  140.29    7.90
   6  -3   1  145.09    7.70
   6  -3   1  151.48   12.00
  -7   3  -1   70.29    6.20
   7  -3   1   64.59   10.70
   7  -3   1   66.79    6.10
  -8   3  -1   20.00    4.70
   8  -3   1    4.70    7.00
   8  -3   1   19.30    4.70
  -9   3  -1   83.69    9.00
   9  -3   1   94.69   15.70
   9  -3   1   58.69    7.10
 -10   3  -1   72.29    8.60
  10  -3   1   52.99   15.50
 -11   3  -1   17.70   10.20
  11  -3   1    4.30   14.40
   9   2  -1   49.70    7.10
   9   2  -1   55.59   15.30
   8   2  -1  193.88   13.40
   8   2  -1  209.08   25.00
   7   2  -1   19.70    4.20
  -7  -2   1   11.20    7.30
   6   2  -1  193.08    9.20
   6   2  -1  202.18   10.80
  -6  -2   1  193.88   15.30
   5   2  -1  228.08   10.40
   5   2  -1  247.48   10.10
  -5  -2   1  239.48   16.70
   4   2  -1  607.34   23.90
   4   2  -1  583.24   18.30
   4   2  -1  588.54   17.40
  -4  -2   1  589.34   23.80
   3   2  -1    9.40    2.80
   3   2  -1   12.50    4.30
   3   2  -1    7.20    2.00
  -3  -2   1   17.00    4.50
   2   2  -1  243.98    9.50
   2   2  -1  239.68   11.00
   2   2  -1  236.08    8.30
  -2  -2   1  231.38   11.10
   1   2  -1  113.09    6.20
   1   2  -1  112.39    5.80
   0   2  -1  342.77   10.70
   0   2  -1  335.37   10.20
   0  -2   1  357.36   10.70
   0  -2   1  348.07   10.90
  -1   2  -1  336.77   10.00
  -1   2  -1  342.67   10.30
   1  -2   1  334.07   10.20
  -2   2  -1  262.77    8.60
   2  -2   1  254.67    9.90
   2  -2   1  263.87    8.60
  -3   2  -1  513.85   14.80
   3  -2   1  511.75   14.50
   3  -2   1  535.25   17.90
   3  -2   1  512.85   17.40
  -4   2  -1   26.80    2.90
   4  -2   1   26.30    4.90
   4  -2   1   30.80    5.50
   4  -2   1   25.70    3.00
  -5   2  -1  187.08    8.20
   5  -2   1  182.68    7.70
   5  -2   1  184.58   11.70
   5  -2   1  180.88   12.30
  -6   2  -1  409.66   14.50
   6  -2   1  418.36   21.00
   6  -2   1  417.26   13.70
  -7   2  -1  274.07   11.50
   7  -2   1  239.48   10.50
   7  -2   1  288.07   18.50
  -8   2  -1   46.40    6.10
   8  -2   1   36.60    5.30
   8  -2   1   48.30    9.70
  -9   2  -1   59.79    7.50
   9  -2   1   60.89   14.20
 -10   2  -1   28.60    7.90
  10  -2   1   36.60   12.90
  11  -2   1    3.10   14.40
  10   1  -1   -7.50    6.70
  10   1  -1  -10.70   14.50
   9   1  -1   13.50    5.80
   9   1  -1    8.60   12.10
   8   1  -1  175.68   12.10
   8   1  -1  159.68   19.10
   7   1  -1   95.59   14.10
   7   1  -1   98.89    8.60
  -7  -1   1  108.19    9.40
   6   1  -1   15.50    4.20
  -6  -1   1   24.40    4.90
  -6  -1   1   20.60    6.30
   5   1  -1  382.56   13.70
  -5  -1   1  399.76   14.50
  -5  -1   1  377.56   19.20
   4   1  -1  202.98   13.70
   4   1  -1  195.68    8.40
  -4  -1   1  186.68   11.90
  -4  -1   1  181.28    8.70
   3   1  -1  448.36   13.70
   3   1  -1  428.06   16.90
  -3  -1   1  438.96   14.20
  -3  -1   1  444.56   17.30
   2   1  -1  257.87    8.90
   2   1  -1  254.57   10.60
  -2  -1   1  248.98    9.10
  -2  -1   1  259.27   10.80
   1   1  -1 2602.34   59.89
   1   1  -1 2662.73   59.49
  -1  -1   1 2655.23   59.59
  -1  -1   1 2575.44   59.99
   0   1  -1 1303.07   30.10
   0  -1   1 1334.07   29.50
   0  -1   1 1342.67   30.20
  -1   1  -1   12.70    1.30
   1  -1   1   15.90    1.90
   1  -1   1   12.00    1.30
   1  -1   1   11.80    1.70
  -2   1  -1 3132.79   68.79
  -2   1  -1 3146.89   71.99
   2  -1   1 3060.39   68.59
   2  -1   1 3130.89   71.99
  -3   1  -1 2590.04   57.29
  -3   1  -1 2503.85   62.19
   3  -1   1 2550.24   56.99
   3  -1   1 2510.75   62.19
  -4   1  -1  282.87   13.60
  -4   1  -1  270.97    9.20
   4  -1   1  267.17   13.50
   4  -1   1  292.67    9.10
  -5   1  -1  168.08    7.20
  -5   1  -1  165.98   11.70
   5  -1   1  167.78   11.80
   5  -1   1  171.18    7.00
  -6   1  -1  224.78    9.20
   6  -1   1  219.78    8.70
  -7   1  -1  271.77   11.10
   7  -1   1  246.58   10.20
   7  -1   1  294.07   20.10
  -8   1  -1    2.00    4.00
   8  -1   1    6.70    8.20
   8  -1   1   -0.90    3.90
  -9   1  -1   52.49    6.80
   9  -1   1   70.59   14.80
   9  -1   1   76.29    7.80
  10  -1   1   56.89   16.40
  11  -1   1  -22.20   14.90
  10   0  -1   12.30   13.40
   9   0  -1   13.40   10.40
  -9   0   1   32.10    8.10
   8   0  -1    6.20    8.30
   8   0  -1    6.10    5.80
  -8   0   1   27.80    6.80
   7   0  -1   89.09   14.00
  -7   0   1   99.29    8.30
   6   0  -1   -3.90    4.50
   6   0  -1   -6.60    3.10
  -6   0   1   -0.10    2.60
   5   0  -1  486.15   22.00
   5   0  -1  428.06   20.20
   5   0  -1  447.36   15.20
  -5   0   1  461.75   15.70
   4   0  -1  773.42   24.90
   4   0  -1  745.83   25.90
   4   0  -1  788.42   27.40
  -4   0   1  772.82   22.10
   3   0  -1   35.40    5.10
   3   0  -1   32.90    3.10
   3   0  -1   34.70    5.10
  -3   0   1   30.50    3.70
   2   0  -1  160.98    7.80
   2   0  -1  166.58    8.20
  -2   0   1  154.48    6.40
   1   0  -1 1553.64   36.00
   1   0  -1 1570.34   36.90
  -1   0   1 1566.44   36.70
  -1   0   1 1603.04   36.10
   0   0  -1    0.20    0.30
   0   0   1   -0.10    0.40
  -1   0  -1    7.10    1.80
   1   0   1    3.70    1.60
  -2   0  -1 1117.89   23.90
  -2   0  -1 1048.40   28.70
   2   0   1 1034.40   23.70
   2   0   1 1053.49   28.70
  -3   0  -1  365.26   14.60
  -3   0  -1  364.96    9.70
   3   0   1  362.36    9.40
   3   0   1  336.37   14.30
  -4   0  -1  777.82   26.90
  -4   0  -1  781.02   19.60
   4   0   1  750.12   26.90
   4   0   1  789.82   19.30
  -5   0  -1    5.10    2.80
  -5   0  -1    9.80    3.80
   5   0   1   12.60    2.40
  -6   0  -1  409.56   13.40
  -6   0  -1  418.36   21.40
   6   0   1  406.86   12.50
  -7   0  -1  197.88   15.90
  -7   0  -1  178.08    8.70
   7   0   1  179.48    7.90
   8   0   1   26.70   10.60
   8   0   1   25.30    4.50
   9   0   1   41.50   12.80
   9   0   1   38.20    4.40
   9   0   1   22.80    4.70
  10   0   1  104.89   20.30
  11  -1  -1   91.49   21.00
 -11   1   1   76.89   18.30
  10  -1  -1   49.50   14.50
   9  -1  -1   16.10    9.20
  -9   1   1    1.80    6.70
   8  -1  -1   72.19    8.30
   8  -1  -1   89.39   13.10
  -8   1   1   91.89    9.60
   7  -1  -1  126.49   13.90
   7  -1  -1  108.59   10.10
  -7   1   1  128.89    8.80
   6  -1  -1   -0.50    2.90
  -6   1   1    1.00    2.70
   5  -1  -1  334.27   17.30
   5  -1  -1  330.47   16.40
   5  -1  -1  299.07   11.90
  -5   1   1  328.87   12.80
   4  -1  -1  459.85   14.90
   4  -1  -1  476.95   18.70
   4  -1  -1  506.95   19.90
  -4   1   1  474.25   15.50
   3  -1  -1  447.76   13.70
   3  -1  -1  446.76   16.90
  -3   1   1  456.35   16.50
   2  -1  -1  174.28    6.70
   2  -1  -1  198.28   10.60
  -2   1   1  181.98    7.00
  -2   1   1  178.68    8.30
   1  -1  -1 1178.78   28.00
   1  -1  -1 1196.48   29.70
  -1   1   1 1168.38   28.10
  -1   1   1 1215.28   29.70
   0  -1  -1  871.31   20.60
   0  -1  -1  883.01   23.00
   0   1   1  886.41   22.90
   0   1   1  903.31   20.70
  -1  -1  -1  213.78    5.60
   1   1   1  207.68    5.60
   1   1   1  210.08    9.00
  -2  -1  -1  416.56   15.60
   2   1   1  413.96   15.40
   2   1   1  434.76   10.60
   2   1   1  428.16   10.30
  -3  -1  -1 1200.78   36.00
   3   1   1 1198.28   35.90
   3   1   1 1265.67   28.40
   3   1   1 1228.18   28.00
  -4  -1  -1  306.17   15.80
   4   1   1  310.97    8.80
   4   1   1  291.57    8.90
   4   1   1  309.27   15.70
  -5  -1  -1    4.90    4.80
   5   1   1    6.30    2.00
  -6  -1  -1  225.78   16.30
   6   1   1  236.58    8.30
  -7  -1  -1  101.29   15.20
   7   1   1   98.59    5.80
   7   1   1  117.19    6.50
  -8  -1  -1   54.09   12.40
   9   1   1   26.90   11.90
  10   1   1   92.69   18.70
  11  -2  -1   26.40   14.90
 -11   2   1   23.70   11.70
  10  -2  -1   14.50   12.90
 -10   2   1   31.40    8.50
   9  -2  -1    9.60    9.70
  -9   2   1   16.70    7.70
   8  -2  -1  215.98   19.50
  -8   2   1  226.28   12.60
   7  -2  -1  168.68   14.60
   7  -2  -1  133.99    9.50
  -7   2   1  137.69    9.60
   6  -2  -1    7.20    5.00
   6  -2  -1    5.80    3.10
  -6   2   1    5.10    3.20
   5  -2  -1  359.26   13.50
   5  -2  -1  385.66   17.60
   5  -2  -1  365.06   18.10
  -5   2   1  367.86   14.00
   4  -2  -1  675.13   20.10
   4  -2  -1  688.53   24.40
  -4   2   1  706.53   20.60
  -4   2   1  646.24   23.20
   3  -2  -1   87.69    5.10
   3  -2  -1   91.89    7.10
  -3   2   1   77.39    6.40
  -3   2   1   88.09    5.30
   2  -2  -1   18.70    4.00
   2  -2  -1   13.60    2.60
  -2   2   1   19.20    3.20
  -2   2   1   13.00    3.20
   1  -2  -1  705.23   19.00
  -1   2   1  793.42   20.60
  -1   2   1  714.83   21.20
   0  -2  -1 1125.59   30.50
   0  -2  -1 1146.59   27.10
   0   2   1 1129.49   30.50
   0   2   1 1132.39   27.20
  -1  -2  -1  187.28    6.10
  -1  -2  -1  192.18    9.80
   1   2   1  188.38    9.40
   1   2   1  190.48    6.30
  -2  -2  -1  248.68   12.50
   2   2   1  235.18    7.30
   2   2   1  232.88   12.10
  -3  -2  -1  523.35   21.20
   3   2   1  535.85   13.90
   3   2   1  516.95   14.30
  -4  -2  -1  191.88   12.90
   4   2   1  178.98    6.40
  -5  -2  -1   33.80    7.90
   5   2   1   36.20    4.30
  -6  -2  -1  180.08   15.70
   6   2   1  170.28    7.50
  -7  -2  -1   91.89   14.80
  -8  -2  -1   13.30    9.10
  11  -3  -1   92.49   20.40
 -11   3   1   66.69   11.40
  10  -3  -1   11.30   11.50
 -10   3   1   -5.50    7.10
   9  -3  -1   81.69   13.80
  -9   3   1   63.89    8.80
   8  -3  -1  216.48   18.20
  -8   3   1  171.98   11.70
   7  -3  -1  287.27   18.80
   7  -3  -1  267.17   12.70
  -7   3   1  271.77   13.50
   6  -3  -1   30.90    7.40
   6  -3  -1   36.70    4.80
  -6   3   1   29.80    4.90
   5  -3  -1  273.67   15.50
   5  -3  -1  249.08   11.00
  -5   3   1  240.88   13.60
  -5   3   1  258.77   11.60
   4  -3  -1  726.73   22.20
   4  -3  -1  787.42   26.90
  -4   3   1  732.03   25.70
  -4   3   1  788.92   23.20
   3  -3  -1  370.16   13.10
   3  -3  -1  388.56   16.40
  -3   3   1  396.36   15.90
  -3   3   1  426.66   14.20
   2  -3  -1  149.39    6.70
   2  -3  -1  148.09    8.80
  -2   3   1  128.19    6.70
  -2   3   1  119.99    8.00
   1  -3  -1   20.00    4.20
   1  -3  -1   28.90    3.50
  -1   3   1   29.50    4.80
  -1   3   1   29.90    3.80
   0  -3  -1  488.95   14.00
   0  -3  -1  476.25   17.50
   0   3   1  472.35   14.10
   0   3   1  463.15   17.40
  -1  -3  -1   72.39    3.90
  -1  -3  -1   77.09    7.10
   1   3   1   61.89    4.00
   1   3   1   66.39    6.50
  -2  -3  -1   81.19    4.30
  -2  -3  -1   96.89    8.30
   2   3   1   89.19    4.60
   2   3   1   83.99    7.90
  -3  -3  -1  378.66   18.40
   3   3   1  342.47   17.60
   3   3   1  359.86   11.20
   3   3   1  368.56   12.40
  -4  -3  -1   61.29    9.10
   4   3   1   68.59    5.00
   4   3   1   71.39    4.40
  -5  -3  -1   62.09   10.00
   5   3   1   64.69    5.40
   5   3   1   69.79    4.40
  -6  -3  -1  175.28   16.70
   6   3   1  162.68    8.20
   6   3   1  149.88    7.20
  -7  -3  -1  151.98   17.60
  -8  -3  -1   -0.50   10.30
  -9  -3  -1    2.40   12.40
  11  -4  -1  126.39   22.10
 -11   4   1   86.89   13.30
  10  -4  -1   36.00   14.20
 -10   4   1   11.60    8.00
   9  -4  -1   23.30    9.70
  -9   4   1   12.80    6.40
   8  -4  -1  234.68   19.00
  -8   4   1  238.08   14.10
   7  -4  -1  296.17   19.50
  -7   4   1  279.77   14.60
   6  -4  -1   82.59   11.50
   6  -4  -1   49.90    6.10
  -6   4   1   71.89    6.90
   5  -4  -1   -3.70    2.30
   5  -4  -1    1.90    3.20
  -5   4   1   -3.50    3.60
  -5   4   1    3.00    2.10
   4  -4  -1  912.91   27.00
   4  -4  -1  979.50   32.20
  -4   4   1  912.41   30.80
  -4   4   1  951.40   28.00
   3  -4  -1  405.26   17.40
   3  -4  -1  380.66   14.00
  -3   4   1  404.46   14.90
  -3   4   1  396.16   16.90
   2  -4  -1   89.19    5.80
   2  -4  -1   98.09    8.00
  -2   4   1  102.49    6.20
  -2   4   1  101.19    7.90
   1  -4  -1   73.69    4.80
   1  -4  -1   64.79    6.70
  -1   4   1   71.59    6.90
  -1   4   1   68.49    5.10
   0  -4  -1   31.40    6.20
   0  -4  -1   34.50    3.40
   0   4   1   45.50    6.70
   0   4   1   36.90    3.70
  -1  -4  -1   75.39    7.90
  -1  -4  -1   76.69    4.80
   1   4   1   77.69    5.00
   1   4   1   78.59    8.40
  -2  -4  -1  107.29    5.80
  -2  -4  -1  110.49    9.70
   2   4   1  108.49   10.10
   2   4   1  110.49    5.90
   3   4   1    3.50    3.80
   3   4   1    5.60    2.50
  -4  -4  -1  324.07   19.80
   4   4   1  341.97   11.80
   4   4   1  343.57   12.60
  -5  -4  -1  270.97   19.70
   5   4   1  280.37   10.20
   5   4   1  286.67   11.20
  -6  -4  -1   21.40    9.40
   6   4   1   23.80    5.00
   6   4   1   31.10    4.00
  -7  -4  -1  131.59   18.40
  -8  -4  -1   22.20   12.20
  11  -5  -1   29.80   14.50
 -11   5   1   21.90   10.10
 -10   5   1  167.18   15.00
   9  -5  -1    6.50    8.10
  -9   5   1    3.10    5.50
   8  -5  -1  163.38   16.50
  -8   5   1  158.68   11.70
   7  -5  -1  345.67   21.50
  -7   5   1  362.66   17.10
   6  -5  -1  161.78   23.90
  -6   5   1  188.98   11.30
   5  -5  -1   38.70    5.50
   5  -5  -1   38.60    7.30
  -5   5   1   30.20    6.80
  -5   5   1   35.50    5.60
   4  -5  -1  526.45   18.90
   4  -5  -1  609.04   24.10
  -4   5   1  582.14   20.60
  -4   5   1  582.54   23.40
   3  -5  -1  471.65   18.10
   3  -5  -1  466.55   20.30
  -3   5   1  460.65   17.20
  -3   5   1  457.55   20.00
   2  -5  -1  302.77   12.50
   2  -5  -1  336.77   16.60
  -2   5   1  329.87   16.00
  -2   5   1  340.17   13.50
   1  -5  -1  350.56   17.00
   1  -5  -1  328.07   12.80
  -1   5   1  339.17   16.60
  -1   5   1  342.17   13.40
   0  -5  -1 1410.96   42.80
   0  -5  -1 1387.76   36.20
   0   5   1 1457.65   37.00
   0   5   1 1313.17   42.10
  -1  -5  -1  216.58    9.50
  -1  -5  -1  224.68   14.30
   1   5   1  227.08    9.90
   1   5   1  201.68   13.70
  -2  -5  -1   49.70    5.00
  -2  -5  -1   68.09   15.30
   2   5   1   58.69    5.10
  -3  -5  -1  263.17   17.60
   3   5   1  282.57   11.20
   3   5   1  258.97   12.80
  -4  -5  -1  240.78   17.80
   4   5   1  216.58   11.70
   4   5   1  213.08    9.70
  -5  -5  -1   81.39   13.50
   5   5   1   84.49    8.00
   5   5   1   95.29    6.90
   6   5   1    2.80    3.80
   6   5   1    5.90    5.70
  -7  -5  -1   32.10   13.90
  11  -6  -1   21.80   13.70
 -11   6   1   41.90   11.20
  10  -6  -1   19.70   19.20
 -10   6   1   18.80    8.10
   9  -6  -1   22.30    9.60
  -9   6   1    8.00    6.30
   8  -6  -1   34.60    9.50
  -8   6   1   36.30    7.30
   7  -6  -1   62.69   10.60
  -7   6   1   73.39    8.90
   6  -6  -1  146.89   12.70
  -6   6   1  182.08   11.20
   5  -6  -1    6.30    5.00
  -5   6   1    5.50    3.20
   4  -6  -1  133.09   11.70
  -4   6   1  130.29   11.10
  -4   6   1  130.49    9.20
   3  -6  -1  570.04   20.50
   3  -6  -1  624.44   25.70
  -3   6   1  649.04   22.10
  -3   6   1  590.64   24.60
   2  -6  -1   92.29    9.60
   2  -6  -1   99.69    7.30
  -2   6   1  111.49   10.20
  -2   6   1   93.89    7.20
   1  -6  -1   96.69    9.40
   1  -6  -1   84.09    6.60
  -1   6   1   94.49    7.20
  -1   6   1   84.79   11.20
   0  -6  -1  717.43   22.60
   0  -6  -1  742.33   29.10
   0   6   1  721.63   23.30
  -1  -6  -1  417.36   25.00
  -1  -6  -1  414.46   15.30
   1   6   1  428.76   15.90
  -2  -6  -1   38.70    7.90
  -2  -6  -1   34.20    5.30
   2   6   1   45.20    5.80
  -3  -6  -1  393.26   22.50
   3   6   1  337.17   18.20
   3   6   1  383.16   14.70
  -4  -6  -1  176.78   17.50
   4   6   1  181.28   10.00
  -5  -6  -1   44.40   12.50
   5   6   1   44.10    8.40
   5   6   1   52.79    6.00
  -6  -6  -1    9.00   10.70
   6   6   1    0.60    4.80
  -7  -6  -1   73.29   17.60
  11  -7  -1   37.80   15.40
 -11   7   1   27.90   12.90
  10  -7  -1   74.29   16.50
 -10   7   1   69.39   11.90
   9  -7  -1   30.00   11.40
  -9   7   1   30.90    7.20
   8  -7  -1   40.20    9.60
  -8   7   1   20.40    6.60
   7  -7  -1  168.18   15.90
  -7   7   1  166.98   12.30
   6  -7  -1  112.09   11.70
  -6   7   1   94.49    9.30
   5  -7  -1    1.20    4.50
  -5   7   1    1.00    2.40
   4  -7  -1  265.97   16.70
  -4   7   1  264.17   13.90
   3  -7  -1  478.45   23.20
   2  -7  -1  110.49   10.90
  -2   7   1  119.59    8.80
  -1   7   1   75.29    7.00
   0  -7  -1  169.18   13.90
   0   7   1  156.18    9.90
  -1  -7  -1  483.75   25.20
   1   7   1  503.05   18.80
  -2  -7  -1   52.49   10.40
   2   7   1   44.20    6.40
  -3  -7  -1  110.49   14.80
   3   7   1   96.89    8.70
  -4  -7  -1  147.29   17.20
   4   7   1  128.49   13.90
   4   7   1  138.99   10.30
  -5  -7  -1   26.40   13.10
   5   7   1   22.40    6.10
  -6  -7  -1   22.90   12.20
  11  -8  -1   69.69   16.70
 -11   8   1   53.59   11.80
  10  -8  -1   69.69   15.80
 -10   8   1   26.70    9.20
   9  -8  -1   11.60   10.20
  -9   8   1    8.00    6.70
   8  -8  -1   35.40   11.60
  -8   8   1   40.40    7.70
   7  -8  -1  399.56   24.70
  -7   8   1  429.66   21.60
   6  -8  -1  186.18   16.40
  -6   8   1  191.68   13.30
   5  -8  -1   38.60   10.00
  -5   8   1   33.40    6.60
   4  -8  -1   68.89   11.40
  -4   8   1   75.59    8.30
   3  -8  -1  455.35   24.00
  -3   8   1  463.55   20.10
   2  -8  -1    9.40    5.60
  -2   8   1    3.80    3.20
   1  -8  -1   25.00    7.40
  -1   8   1   31.00    5.40
   0  -8  -1  137.69   13.60
   0   8   1  159.48   10.70
  -1  -8  -1  222.88   18.10
   1   8   1  222.08   13.20
  -2  -8  -1   -0.90    7.20
   2   8   1    2.60    4.30
  -3  -8  -1   22.10   10.60
   3   8   1   23.70    5.80
  -4  -8  -1   78.69   14.90
   4   8   1   86.09    9.70
  -5  -8  -1   65.69   14.30
   5   8   1   61.09   10.20
  11  -9  -1   84.29   18.60
 -11   9   1   69.79   14.40
  10  -9  -1   63.39   15.90
   9  -9  -1   19.70   11.70
  -9   9   1   20.80   10.00
   8  -9  -1   16.40    9.50
  -8   9   1   14.40    6.80
   7  -9  -1  196.78   18.80
  -7   9   1  200.78   15.20
   6  -9  -1  139.19   16.20
  -6   9   1  161.88   13.50
   5  -9  -1   17.40    7.00
  -5   9   1   12.90    4.80
   4  -9  -1  101.59   15.10
  -4   9   1   81.19   10.70
   3  -9  -1   88.59   13.80
  -3   9   1   75.99   10.20
   2  -9  -1   22.30    8.20
  -2   9   1   38.60    7.60
   1  -9  -1    6.70    6.60
  -1   9   1    9.50    4.70
   0  -9  -1  240.28   20.00
   0   9   1  262.47   15.10
  -1  -9  -1  109.59   16.60
   1   9   1  111.99   10.50
   2   9   1   20.80    6.70
  -3  -9  -1   21.40   11.80
   3   9   1   10.20    7.40
  -4  -9  -1   63.49   16.20
   4   9   1   88.79   10.60
  10 -10  -1   62.69   15.70
 -10  10   1   28.60   10.00
   9 -10  -1   23.70   12.60
  -9  10   1   43.50   10.20
   8 -10  -1    7.30   10.50
  -8  10   1    5.30    6.30
   7 -10  -1   39.20   10.10
  -7  10   1   56.89   10.60
   6 -10  -1  122.89   17.10
  -6  10   1   99.09   12.30
   5 -10  -1   34.40    9.80
  -5  10   1   26.50    7.00
   4 -10  -1    5.50    6.40
  -4  10   1   11.80    5.60
   3 -10  -1  178.78   16.90
  -3  10   1  218.18   14.90
   2 -10  -1  223.58   19.90
  -2  10   1  280.87   16.80
   1 -10  -1   -6.00    7.00
  -1  10   1    4.60    5.90
   0 -10  -1   38.50   11.80
   0  10   1   35.90    8.50
  -1 -10  -1   37.90   12.30
   1  10   1   52.89   10.10
  -2 -10  -1   55.99   15.30
   2  10   1   62.09   10.50
  10 -11  -1   95.19   19.00
 -10  11   1   82.99   13.10
   9 -11  -1  210.68   24.00
  -9  11   1  176.98   17.70
   8 -11  -1   -4.60   10.50
  -8  11   1    2.60    7.10
   7 -11  -1   87.39   14.60
  -7  11   1   85.39   12.70
   6 -11  -1  250.47   22.50
  -6  11   1  207.28   19.00
   5 -11  -1   11.90    9.00
   4 -11  -1   22.20   10.00
  -4  11   1   24.90    9.70
   3 -11  -1  136.79   18.90
  -3  11   1  132.79   13.00
   2 -11  -1  155.48   20.20
  -2  11   1  131.79   14.00
   1 -11  -1    1.40   11.70
  -1  11   1    3.00    6.20
   0 -11  -1   60.39   14.70
   0  11   1   40.80    9.30
  -1 -11  -1  115.79   18.80
   1  11   1   97.59   12.90
   9 -12  -1    7.40   13.90
  -9  12   1   11.20    9.50
   8 -12  -1   20.10   12.90
  -8  12   1   33.70   11.70
   7 -12  -1   50.29   14.80
  -7  12   1   44.10   10.10
   6 -12  -1   44.80   13.80
  -6  12   1   43.20   10.20
   5 -12  -1   62.79   15.30
  -5  12   1   66.59   12.30
   4 -12  -1   26.90   13.10
  -4  12   1    9.40    8.20
   3 -12  -1  125.59   17.80
  -3  12   1  142.29   15.00
   2 -12  -1  112.99   19.10
  -2  12   1  180.38   16.20
   1 -12  -1   18.50   13.70
  -1  12   1   37.00   10.40
   6 -13  -1  112.19   20.40
  -6  13   1   96.89   14.60
   5 -13  -1   32.60   14.00
  -5  13   1   40.80   11.00
   4 -13  -1   -3.20   12.50
  -4  13   1   12.10    8.90
  -3  13  -2   46.10    9.90
   3 -13   2   76.49   25.20
  -4  13  -2   80.39   13.20
   4 -13   2  103.79   17.10
  -5  13  -2   -4.30    8.10
   5 -13   2   15.90   11.70
  -6  13  -2   49.70   10.10
   6 -13   2   24.90   13.40
  -7  13  -2  202.78   18.10
   8 -13   2   52.99   16.80
   0  12  -2   52.39   10.40
   0 -12   2   52.79   16.30
  -1  12  -2   84.39   13.10
   1 -12   2   71.79   14.80
  -2  12  -2   16.30    7.50
   2 -12   2   -0.80    9.60
  -3  12  -2   47.00   10.40
   3 -12   2   66.39   14.00
  -4  12  -2   55.69   11.10
   4 -12   2   47.60   12.10
  -5  12  -2  135.49   14.10
   5 -12   2  118.39   16.50
  -6  12  -2   14.00    7.80
   6 -12   2   34.70   11.90
  -7  12  -2  137.09   14.80
   7 -12   2  124.09   17.80
  -8  12  -2   36.60   10.30
   8 -12   2   79.99   15.70
  -9  12  -2   30.30   10.30
   9 -12   2   39.70   15.20
   1  11  -2   49.90   10.00
  -1 -11   2   45.50   20.90
   0 -11   2  119.89   18.00
  -1  11  -2  102.59   13.10
   1 -11   2   95.99   13.80
  -2  11  -2    6.20    5.50
   2 -11   2    1.60    7.80
  -3  11  -2   18.30    7.40
   3 -11   2   42.20    9.70
  -4  11  -2  124.29   13.30
   4 -11   2  172.38   16.10
  -5  11  -2   97.59   13.30
   5 -11   2  106.99   14.60
   6 -11   2   -0.80    7.20
  -7  11  -2   76.69   11.50
   7 -11   2   69.09   14.20
  -8  11  -2  102.09   13.20
   8 -11   2   92.59   17.00
  -9  11  -2   36.40   10.00
   9 -11   2   28.40   14.10
 -10  11  -2   26.90   10.60
  10 -11   2   19.80   15.00
   3  10  -2  113.79   14.30
  -3 -10   2  133.39   19.60
   2  10  -2   10.20    8.70
  -2 -10   2   34.50   12.30
   1  10  -2    5.30    6.70
  -1 -10   2   -1.20    8.80
   0  10  -2  229.98   15.90
   0 -10   2  207.88   17.20
  -1  10  -2  180.38   13.80
   1 -10   2  197.48   17.20
  -2  10  -2    9.80    5.80
   2 -10   2   10.60    7.80
  -3  10  -2   65.49   10.20
   3 -10   2   72.19   10.60
  -4  10  -2  303.07   17.40
   4 -10   2  318.37   20.10
  -5  10  -2   85.89   11.50
   5 -10   2  103.59   13.50
  -6  10  -2   14.50    6.20
   6 -10   2    0.10    6.20
  -7  10  -2   19.10    6.10
   7 -10   2   21.50    8.90
  -8  10  -2   71.99   11.00
   8 -10   2   88.99   16.00
  -9  10  -2   23.20    9.60
   9 -10   2   34.10   13.60
 -10  10  -2   10.00    8.80
  10 -10   2   31.40   15.10
 -11  10  -2   61.99   11.90
  11 -10   2   88.39   19.80
   4   9  -2   86.09   11.90
  -4  -9   2   80.09   16.60
   3   9  -2  198.28   14.20
  -3  -9   2  188.88   20.40
   2   9  -2   82.19   10.00
  -2  -9   2   82.69   14.10
   1   9  -2    6.40    4.90
  -1  -9   2   -6.80    7.30
   0   9  -2  261.37   14.90
   0  -9   2  270.67   17.90
  -1   9  -2  192.68   13.00
   1  -9   2  177.38   14.40
  -2   9  -2   78.89   10.30
   2  -9   2   75.29   11.70
  -3   9  -2  196.88   13.00
   3  -9   2  199.88   14.50
  -4   9  -2  314.67   16.60
   4  -9   2  315.47   18.60
  -5   9  -2   72.79    9.90
  -6   9  -2    2.00    4.70
   6  -9   2    4.80    6.10
  -7   9  -2   89.59   11.50
   7  -9   2   87.79   13.20
  -8   9  -2   61.79    9.60
   8  -9   2   73.29   13.10
  -9   9  -2   12.20    6.10
   9  -9   2   -4.70    8.60
 -10   9  -2   23.80    8.80
 -11   9  -2  -15.90    9.10
  11  -9   2   45.00   15.40
   5   8  -2    4.00    8.10
  -5  -8   2   -0.70   11.10
   4   8  -2   49.20    9.00
  -4  -8   2   79.09   13.60
   3   8  -2  142.39   12.00
  -3  -8   2  170.18   16.90
   2   8  -2   65.29    8.60
  -2  -8   2   58.19   10.20
   1   8  -2   18.90    5.20
  -1  -8   2   18.10    6.60
   0   8  -2   47.10    7.40
   0  -8   2   54.69   10.20
  -1   8  -2  635.04   23.90
   1  -8   2  645.44   26.30
  -2   8  -2   69.69    9.00
  -2   8  -2   61.29    8.80
   2  -8   2   46.60    8.30
  -3   8  -2   17.60    6.30
  -3   8  -2   31.90    6.10
   3  -8   2   24.60    6.50
  -4   8  -2  468.95   21.70
  -4   8  -2  471.35   20.30
   4  -8   2  508.45   22.80
  -5   8  -2  233.78   13.50
   5  -8   2  211.48   14.90
  -6   8  -2   12.70    5.00
  -7   8  -2  184.28   12.50
   7  -8   2  171.78   14.60
  -8   8  -2  173.78   13.10
   8  -8   2  174.48   16.30
  -9   8  -2   43.90    8.50
   9  -8   2   48.60   12.50
 -10   8  -2    5.20    7.00
  10  -8   2   12.40   10.10
 -11   8  -2   61.59   11.50
  11  -8   2   76.79   18.30
   6   7  -2  192.68   14.50
  -6  -7   2  112.79   18.90
   5   7  -2   12.60    7.30
  -5  -7   2   27.00   11.80
   4   7  -2   46.00    7.70
  -4  -7   2   56.49   11.50
   3   7  -2  161.58   11.40
  -3  -7   2  182.98   16.00
   2   7  -2  157.88   10.70
  -2  -7   2  166.48   13.80
   1   7  -2   73.89    7.40
  -1  -7   2   80.19   10.20
   0   7  -2  163.98   12.30
   0  -7   2  174.98   11.80
  -1   7  -2  102.19    8.60
   1  -7   2  124.99   10.10
  -2   7  -2   96.79    9.40
  -2   7  -2   91.09    7.60
   2  -7   2   87.49    8.20
  -3   7  -2   30.20    5.90
  -3   7  -2   31.00    6.40
   3  -7   2   34.50    5.70
   4  -7   2   58.69    8.60
  -5   7  -2  412.26   17.90
  -5   7  -2  400.36   19.50
   5  -7   2  449.06   20.80
  -6   7  -2   68.49    7.50
   6  -7   2   72.59   11.10
  -7   7  -2  138.59   10.80
   7  -7   2  127.69   13.70
  -8   7  -2  181.58   12.80
   8  -7   2  198.18   16.80
  -9   7  -2  146.89   12.20
   9  -7   2  124.59   17.30
 -10   7  -2    4.80    7.20
  10  -7   2   -2.20   10.50
 -11   7  -2   67.49   11.70
  11  -7   2   65.09   16.40
   7   6  -2   21.30    8.80
  -7  -6   2   11.30   14.00
   6   6  -2   56.79    8.40
  -6  -6   2   45.30   17.50
   5   6  -2   88.09    9.30
  -5  -6   2   70.69   13.60
   4   6  -2   11.30    5.10
  -4  -6   2    3.10    6.00
   3   6  -2   50.59    6.60
  -3  -6   2   58.39   10.10
   2   6  -2  274.67   13.10
  -2  -6   2  291.67   17.20
   1   6  -2   84.49    7.00
   1   6  -2   80.69    9.20
  -1  -6   2   70.19    6.40
  -1  -6   2   89.99    9.70
   0   6  -2    3.80    3.70
   0   6  -2    3.00    3.00
   0  -6   2    3.80    3.80
   0  -6   2    2.60    2.80
  -1   6  -2  258.97   12.20
  -1   6  -2  244.28   12.80
   1  -6   2  260.47   11.60
   1  -6   2  274.17   13.50
  -2   6  -2  449.46   16.90
  -2   6  -2  432.56   17.70
   2  -6   2  464.65   18.10
   2  -6   2  411.36   16.10
  -3   6  -2   74.29    7.30
  -3   6  -2   83.79    6.70
   3  -6   2  100.79    8.20
   3  -6   2   75.59    6.40
  -4   6  -2  221.48   11.30
  -4   6  -2  212.38   12.10
   4  -6   2  226.38   12.80
   4  -6   2  198.18   10.30
  -5   6  -2  460.45   20.20
  -5   6  -2  491.15   18.80
   5  -6   2  509.05   21.60
  -6   6  -2  235.68   12.40
   6  -6   2  202.38   13.90
   7  -6   2   49.70    9.20
  -8   6  -2  149.19   10.60
   8  -6   2  130.89   15.60
  -9   6  -2  184.38   12.70
   9  -6   2  184.98   19.20
 -10   6  -2    8.10    7.20
  10  -6   2    4.20   10.20
 -11   6  -2   34.70   10.00
  11  -6   2   28.20   14.90
   8   5  -2   33.40    8.60
   7   5  -2   25.40    7.60
  -7  -5   2   44.00   13.40
   6   5  -2  127.99   15.80
  -6  -5   2   98.39   15.90
   5   5  -2  152.08   10.20
  -5  -5   2  195.08   16.90
   4   5  -2  116.29   12.60
   4   5  -2  112.59    8.20
  -4  -5   2   98.49   12.90
   3   5  -2  333.67   16.40
   3   5  -2  353.86   14.40
  -3  -5   2  347.47   18.70
   2   5  -2  222.18   12.80
   2   5  -2  216.98   13.60
   2   5  -2  242.38   11.10
  -2  -5   2  254.17   14.50
   1   5  -2   30.50    4.70
   1   5  -2   24.20    5.00
  -1  -5   2   25.10    5.20
   0   5  -2    0.30    2.70
   0   5  -2    1.90    2.20
   0  -5   2    3.30    2.70
   0  -5   2    5.60    2.70
  -1   5  -2 1017.90   28.10
  -1   5  -2  947.51   28.60
   1  -5   2  945.51   27.30
   1  -5   2  983.30   28.60
  -2   5  -2  462.55   16.60
  -2   5  -2  473.45   16.40
   2  -5   2  451.35   15.70
   2  -5   2  453.45   16.80
  -3   5  -2   41.00    5.30
  -3   5  -2   32.50    5.00
   3  -5   2   24.40    4.60
   3  -5   2   25.40    4.10
  -4   5  -2  504.05   17.60
  -4   5  -2  477.15   18.80
   4  -5   2  502.75   19.80
  -5   5  -2  684.63   22.50
   5  -5   2  725.63   26.20
   5  -5   2  674.53   21.80
  -6   5  -2  110.19    8.20
   6  -5   2   99.29    7.70
   6  -5   2  108.09   12.00
   6  -5   2  105.89   10.60
  -7   5  -2    9.30    3.60
   7  -5   2    7.20    5.60
   7  -5   2    8.80    4.20
  -8   5  -2  158.78   10.90
   8  -5   2  177.78   16.40
   9  -5   2   93.49   14.50
 -10   5  -2   -6.20    6.60
  10  -5   2   -1.10    9.90
 -11   5  -2   20.80    8.80
  11  -5   2   10.20   14.50
   8   4  -2   16.60    7.70
   8   4  -2   18.30   13.70
  -7  -4   2   38.50   11.40
   6   4  -2   70.29    7.50
  -6  -4   2   61.69   12.00
   5   4  -2  126.59    8.70
   5   4  -2  104.29   10.90
  -5  -4   2  162.88   14.30
   4   4  -2   -2.40    4.80
   4   4  -2    2.20    2.90
  -4  -4   2    4.20    4.90
   3   4  -2  843.82   27.00
   3   4  -2  793.82   29.60
   3   4  -2  859.61   24.70
  -3  -4   2  852.11   30.20
   2   4  -2  494.15   19.70
   2   4  -2  516.85   16.90
   2   4  -2  512.65   19.00
  -2  -4   2  530.05   20.10
   1   4  -2  288.87   11.10
   1   4  -2  282.37   12.80
  -1  -4   2  262.27   10.60
  -1  -4   2  264.87   12.40
   0   4  -2  339.57   12.10
   0   4  -2  313.77   12.40
   0  -4   2  304.67   11.50
   0  -4   2  325.47   12.60
  -1   4  -2  986.00   26.20
  -1   4  -2  922.81   26.00
   1  -4   2  947.21   25.80
  -2   4  -2  693.13   20.50
  -2   4  -2  709.53   20.70
   2  -4   2  737.23   22.70
   2  -4   2  663.33   20.10
  -3   4  -2  143.79    8.00
  -3   4  -2  132.39    7.10
   3  -4   2  130.29    8.10
   3  -4   2  140.79    7.10
  -4   4  -2  224.48    9.90
  -4   4  -2  219.38   11.30
   4  -4   2  228.38   12.00
   4  -4   2  217.48    9.50
  -5   4  -2  101.99    6.60
   5  -4   2   81.09    8.30
   5  -4   2   85.99    6.10
   5  -4   2   86.39    9.20
  -6   4  -2  145.29    8.20
   6  -4   2  127.59   12.60
   6  -4   2  130.29   11.70
   6  -4   2  132.39    7.70
  -7   4  -2   35.70    4.90
   7  -4   2   38.20    6.00
   7  -4   2   36.40    8.20
  -8   4  -2  175.88   10.50
   8  -4   2  174.08   15.50
   8  -4   2  158.38    9.30
  -9   4  -2   31.70    6.20
   9  -4   2   38.50   11.80
   9  -4   2   27.80    7.20
 -10   4  -2   -3.50    6.60
 -11   4  -2   11.70    9.60
  11  -4   2    9.60   14.50
   9   3  -2   91.29   19.10
   9   3  -2   62.79   10.30
   8   3  -2  -10.70   10.80
   7   3  -2   96.19    9.10
  -7  -3   2  110.39   14.50
   6   3  -2  233.28   13.50
   6   3  -2  266.87   12.10
  -6  -3   2  234.88   17.90
   5   3  -2  411.96   15.30
   5   3  -2  410.86   16.70
  -5  -3   2  396.36   21.40
   4   3  -2   31.80    5.10
   4   3  -2   32.90    4.30
  -4  -3   2   26.70    6.40
   3   3  -2   59.79   11.30
   3   3  -2   57.79    6.20
   3   3  -2   67.19    5.10
  -3  -3   2   62.19    6.80
   2   3  -2 1637.24   45.20
   2   3  -2 1750.72   44.40
   2   3  -2 1703.13   42.00
  -2  -3   2 1714.33   45.70
   1   3  -2  606.64   19.40
   1   3  -2  567.54   18.40
   1   3  -2  587.74   17.40
  -1  -3   2  604.94   18.80
   0   3  -2  402.36   12.90
   0   3  -2  394.26   12.80
   0  -3   2  412.36   12.90
   0  -3   2  419.36   12.90
  -1   3  -2  653.73   18.40
  -1   3  -2  654.23   17.70
   1  -3   2  656.83   17.70
   1  -3   2  656.93   18.20
  -2   3  -2   42.70    4.30
  -2   3  -2   38.90    3.40
   2  -3   2   40.70    3.90
   2  -3   2   38.50    3.40
  -3   3  -2   88.89    6.10
  -3   3  -2   93.49    5.30
   3  -3   2  101.19    5.40
   3  -3   2   93.69    6.40
  -4   3  -2  130.89    6.50
   4  -3   2  116.69    8.70
   4  -3   2  127.59    6.30
   4  -3   2  123.49    8.60
  -5   3  -2   72.19    5.30
   5  -3   2   76.19    7.80
   5  -3   2   75.69    5.10
  -6   3  -2   78.19    5.60
   6  -3   2   64.39    5.20
   6  -3   2   79.29   11.00
  -7   3  -2   31.70    4.70
   7  -3   2   36.10    4.90
   7  -3   2   34.70    8.20
  -8   3  -2  211.08   11.00
   8  -3   2  207.68   10.10
   8  -3   2  227.38   18.60
  -9   3  -2   99.39    9.30
   9  -3   2  122.49   17.80
 -10   3  -2   -3.10    6.70
  10  -3   2  -13.10   11.90
 -11   3  -2  -11.50    8.90
  11  -3   2   -2.30   12.70
   9   2  -2   45.20    8.60
   9   2  -2   26.80   15.00
   8   2  -2   26.60   12.10
   8   2  -2   56.99    7.10
   7   2  -2   13.70    7.70
   7   2  -2    7.90    6.40
   7   2  -2    7.10    4.30
   6   2  -2  709.23   23.00
  -6  -2   2  631.44   29.30
   5   2  -2   90.69    7.50
  -5  -2   2  100.79    8.60
   4   2  -2   67.49    6.20
   4   2  -2   70.59    9.20
  -4  -2   2   74.19    8.10
  -4  -2   2   68.79    6.80
   3   2  -2   87.39    7.50
   3   2  -2   86.09    6.20
  -3  -2   2   71.89    6.10
  -3  -2   2   81.39    7.20
   2   2  -2 1036.00   27.70
   2   2  -2  994.50   28.60
  -2  -2   2 1009.20   28.90
  -2  -2   2  990.60   27.90
   1   2  -2  331.27   10.90
   1   2  -2  354.16   12.60
  -1  -2   2  356.76   11.70
   0   2  -2    2.60    1.40
   0   2  -2    4.20    1.70
   0  -2   2    1.80    1.40
   0  -2   2   -0.40    1.20
  -1   2  -2  689.63   16.60
   1  -2   2  689.13   16.70
   1  -2   2  682.03   17.90
  -2   2  -2 9590.84  211.58
   2  -2   2 9575.44  210.38
   2  -2   2 9999.00  211.98
   2  -2   2 9603.74  211.78
   3  -2   2   29.10    2.70
   3  -2   2   32.40    4.80
   3  -2   2   28.20    4.40
  -4   2  -2  215.48    7.90
   4  -2   2  193.48   11.30
   4  -2   2  204.98   11.20
   4  -2   2  206.48    7.60
  -5   2  -2  527.55   15.50
   5  -2   2  493.45   20.90
   5  -2   2  501.95   14.80
   5  -2   2  543.95   22.40
  -6   2  -2  162.18    7.40
   6  -2   2  154.18    7.10
   6  -2   2  168.58   13.00
  -7   2  -2   25.70    3.80
   7  -2   2   18.70    3.70
   7  -2   2   24.10    8.10
  -8   2  -2   40.70    5.10
   8  -2   2   42.50    5.20
   8  -2   2   38.00   11.20
  -9   2  -2  101.89    8.20
   9  -2   2   99.09    8.00
   9  -2   2   82.69   15.30
 -10   2  -2   56.19    7.20
  10  -2   2   67.09   17.10
  11  -2   2   60.99   16.50
  10   1  -2    1.10    7.40
  10   1  -2   10.50   14.90
   9   1  -2   81.19   15.80
   8   1  -2   44.50   12.00
  -8  -1   2   51.79    9.00
   7   1  -2  -10.40    5.40
   7   1  -2   -5.70    7.60
  -7  -1   2   -5.30    4.50
   6   1  -2  259.87   18.30
   6   1  -2  246.28   13.60
  -6  -1   2  263.57   13.20
   5   1  -2  247.88   16.10
   5   1  -2  242.18   11.10
  -5  -1   2  249.88   11.90
   4   1  -2   45.20    4.90
  -4  -1   2   36.90    5.30
   3   1  -2  305.87   11.60
   3   1  -2  311.17   13.80
  -3  -1   2  321.27   12.20
  -3  -1   2  330.97   14.20
   2   1  -2  470.05   15.50
   2   1  -2  473.75   14.70
  -2  -1   2  467.05   15.00
  -2  -1   2  450.65   15.50
   1   1  -2   73.49    4.30
   1   1  -2   76.09    4.40
   1   1  -2   77.09    4.80
   0   1  -2   85.19    2.80
   0   1  -2   86.39    4.60
   0  -1   2   89.39    4.70
  -1   1  -2   20.80    2.30
  -1   1  -2   18.90    2.10
   1  -1   2   19.60    2.20
   1  -1   2   17.80    2.10
  -2   1  -2  711.43   17.20
   2  -1   2  729.93   20.40
   2  -1   2  709.73   17.20
  -3   1  -2 1020.90   29.00
  -3   1  -2 1011.80   23.60
   3  -1   2  986.20   23.30
   3  -1   2  975.10   28.80
  -4   1  -2   41.00    6.40
  -4   1  -2   36.10    2.60
   4  -1   2   45.20    6.40
   4  -1   2   35.60    2.40
  -5   1  -2  353.26   17.40
  -5   1  -2  372.56   11.00
   5  -1   2  337.87   17.00
  -6   1  -2  290.27   17.70
   6  -1   2  294.37    9.30
  -7   1  -2    6.50    3.50
   7  -1   2    3.80    2.60
  -8   1  -2   13.50    6.60
   8  -1   2    7.00    3.30
   8  -1   2    6.90    8.50
   9  -1   2  319.67   32.80
  10  -1   2   16.90   13.40
  10   0  -2   27.60   15.30
 -10   0   2    0.40   10.80
  -9   0   2   29.20    9.10
   8   0  -2  247.98   21.90
  -8   0   2  257.27   14.70
   7   0  -2   19.10    5.70
   7   0  -2   24.40    8.00
  -7   0   2   13.60    5.00
   6   0  -2   26.10    6.70
  -6   0   2   33.00    5.30
   5   0  -2  257.67   11.20
   5   0  -2  276.67   16.00
   5   0  -2  238.98   14.10
  -5   0   2  252.67   11.60
   4   0  -2  452.55   18.50
   4   0  -2  464.45   19.40
  -4   0   2  443.96   15.90
   3   0  -2  198.48   10.60
   3   0  -2  206.38   10.40
  -3   0   2  202.88    8.90
   2   0  -2  304.17   10.60
   2   0  -2  321.87   12.10
  -2   0   2  311.57   10.80
  -2   0   2  296.87   11.40
   1   0  -2    2.40    1.90
  -1   0   2    4.70    1.70
  -1   0   2    4.00    1.60
   0   0  -2  406.86   11.60
   0   0  -2  420.26   11.20
   0   0   2  401.26   11.20
   0   0   2  397.16   11.60
  -1   0  -2  645.14   18.10
  -1   0  -2  641.74   15.30
   1   0   2  639.44   18.10
   1   0   2  660.93   15.60
  -2   0  -2   48.90    4.80
   2   0   2   50.59    4.80
  -3   0  -2  549.65   19.90
   3   0   2  552.54   20.00
  -4   0  -2  157.98   10.70
   4   0   2  139.29   13.10
  -5   0  -2  629.44   25.60
  -6   0  -2  354.36   19.70
  -7   0  -2  219.38   17.20
  -8   0  -2    0.90    7.20
   9   0   2  123.99   19.50
  10   0   2   47.80   15.70
  11  -1  -2   12.90   15.40
 -11   1   2   19.00   13.90
  10  -1  -2    2.60   12.50
 -10   1   2   28.10   10.40
   9  -1  -2  110.39   17.90
  -9   1   2  109.69   11.40
   8  -1  -2   65.99   12.70
  -8   1   2   60.79    8.30
   7  -1  -2  156.68   10.30
   7  -1  -2  170.78   16.10
  -7   1   2  172.98   10.70
   6  -1  -2    6.40    3.60
  -6   1   2    5.60    3.00
   5  -1  -2  402.66   15.00
   5  -1  -2  385.36   18.60
   5  -1  -2  422.76   20.30
  -5   1   2  432.16   15.90
   4  -1  -2  150.48    9.70
   4  -1  -2  132.49    7.30
   4  -1  -2  155.18   10.30
  -4   1   2  141.19    7.90
   3  -1  -2   13.60    2.80
   3  -1  -2   15.80    3.80
  -3   1   2   15.50    3.40
  -3   1   2   19.10    3.30
   2  -1  -2  396.86   12.70
   2  -1  -2  421.66   14.70
  -2   1   2  422.96   13.10
  -2   1   2  394.56   14.20
   1  -1  -2 3924.61   90.39
   1  -1  -2 3848.52   88.39
  -1   1   2 3993.00   92.09
  -1   1   2 4085.49   88.79
   0  -1  -2    6.00    1.50
   0  -1  -2    4.10    2.10
   0   1   2    4.90    2.40
   0   1   2    6.80    1.60
  -1  -1  -2  815.22   19.00
  -1  -1  -2  837.52   24.20
   1   1   2  819.12   24.00
   1   1   2  813.52   19.10
  -2  -1  -2  175.98    9.90
   2   1   2  185.48   10.10
  -3  -1  -2 1061.79   33.00
   3   1   2 1030.50   32.80
  -4  -1  -2    7.20    4.30
   4   1   2    5.90    4.20
  -5  -1  -2   97.79   10.80
  -6  -1  -2  194.28   15.30
  -7  -1  -2  145.89   14.90
  -8  -1  -2   43.80   11.70
  10   1   2    7.90   18.20
 -11   2   2   20.40   12.20
  10  -2  -2   13.60   12.30
 -10   2   2   31.20    8.70
   9  -2  -2   99.19   16.40
  -9   2   2  138.79   11.90
   8  -2  -2  197.88   18.40
   7  -2  -2   25.50    8.10
  -7   2   2   12.00    3.80
   6  -2  -2   69.59    6.70
   6  -2  -2   62.39   10.60
  -6   2   2   70.69    7.10
   5  -2  -2  463.65   16.30
   5  -2  -2  441.66   20.70
  -5   2   2  461.95   17.00
  -5   2   2  442.06   19.70
   4  -2  -2  152.68   10.20
   4  -2  -2  147.69    7.90
  -4   2   2  143.69    8.00
  -4   2   2  143.09    9.60
   3  -2  -2  119.39    8.20
   3  -2  -2  108.89    6.30
  -3   2   2  112.89    7.80
  -3   2   2  121.09    6.80
   2  -2  -2  942.11   27.70
   2  -2  -2  904.41   24.40
  -2   2   2  889.21   24.60
  -2   2   2  928.11   27.20
   1  -2  -2 3416.36   79.89
   1  -2  -2 3428.66   76.29
  -1   2   2 3279.87   79.49
  -1   2   2 3327.27   76.39
   0  -2  -2  401.96   11.40
   0  -2  -2  377.76   14.70
   0   2   2  360.26   14.30
   0   2   2  389.26   11.50
  -1  -2  -2  126.99    8.00
  -1  -2  -2  111.79    4.40
   1   2   2  112.29    4.70
   1   2   2   99.89    7.40
  -2  -2  -2  770.12   26.40
  -2  -2  -2  802.62   18.80
   2   2   2  797.82   19.00
   2   2   2  773.62   26.60
  -3  -2  -2  217.38   13.10
   3   2   2  201.28    5.90
   3   2   2  207.08   12.90
   3   2   2  203.08    6.20
  -4  -2  -2   10.10    4.50
  -5  -2  -2  208.28   15.30
  -6  -2  -2  115.49   13.40
  -7  -2  -2    1.10    7.30
  -8  -2  -2   14.40   10.20
  -9  -2  -2   47.00   15.30
  11  -3  -2   78.09   17.40
 -11   3   2   76.59   12.60
  10  -3  -2  -14.90   11.10
 -10   3   2    0.90    7.00
   9  -3  -2  279.57   22.90
  -9   3   2  281.07   16.30
   8  -3  -2  117.59   15.60
  -8   3   2  123.29   10.50
   7  -3  -2   66.79   11.80
  -7   3   2   80.99    8.60
   6  -3  -2  293.97   18.40
   6  -3  -2  266.77   13.10
  -6   3   2  281.57   13.50
   5  -3  -2  461.95   17.70
   5  -3  -2  524.45   22.50
  -5   3   2  517.85   18.60
  -5   3   2  454.85   20.10
   4  -3  -2  304.97   12.70
   4  -3  -2  344.37   16.60
  -4   3   2  344.67   13.70
  -4   3   2  320.37   15.60
   3  -3  -2   86.49    5.70
   3  -3  -2   90.69    8.00
  -3   3   2   89.49    6.20
  -3   3   2   87.89    7.40
   2  -3  -2  466.85   14.90
   2  -3  -2  445.26   17.90
  -2   3   2  455.25   15.20
  -2   3   2  448.56   17.80
   1  -3  -2  773.72   21.70
   1  -3  -2  830.02   26.30
  -1   3   2  778.32   25.50
  -1   3   2  808.52   22.30
   0  -3  -2  215.48    8.00
   0  -3  -2  206.28   11.30
   0   3   2  198.28    8.00
   0   3   2  203.88   11.20
  -1  -3  -2    0.50    2.90
  -1  -3  -2    1.40    1.40
   1   3   2   -3.10    2.80
   1   3   2    0.80    1.10
  -2  -3  -2  497.45   13.10
  -2  -3  -2  469.65   20.20
   2   3   2  419.06   19.60
  -3  -3  -2   41.20    7.10
   3   3   2   43.40    3.20
  -4  -3  -2   36.50    7.80
   4   3   2   42.20    3.00
   4   3   2   44.30    3.50
  -5  -3  -2   33.20    8.30
  -6  -3  -2  192.28   18.50
  -8  -3  -2   13.90   12.20
  11  -4  -2   52.99   16.70
 -11   4   2   20.60   10.00
  10  -4  -2   40.70   13.40
 -10   4   2   21.20    8.20
   9  -4  -2   70.59   14.10
  -9   4   2   51.59    7.70
   8  -4  -2  442.16   26.30
  -8   4   2  397.16   18.80
   7  -4  -2  121.99   13.30
  -6   4   2   46.70    6.90
   5  -4  -2 1266.27   40.80
   5  -4  -2 1157.68   34.00
  -5   4   2 1136.19   38.40
  -5   4   2 1217.58   35.20
   4  -4  -2  712.23   23.00
   4  -4  -2  707.73   27.20
  -4   4   2  681.33   26.20
  -4   4   2  737.73   23.70
   3  -4  -2    7.00    3.40
   3  -4  -2    5.90    2.50
  -3   4   2    3.00    3.60
  -3   4   2    9.20    3.10
   2  -4  -2  149.99    7.80
   2  -4  -2  165.38   11.20
  -2   4   2  160.98    8.40
  -2   4   2  152.08   10.20
   1  -4  -2  400.46   13.70
   1  -4  -2  399.26   17.90
  -1   4   2  412.96   14.20
  -1   4   2  380.26   17.40
   0  -4  -2  950.60   31.50
   0  -4  -2  933.81   25.20
   0   4   2  928.81   25.70
   0   4   2  909.51   31.00
  -1  -4  -2   18.80    3.10
  -1  -4  -2   20.60    5.20
   1   4   2   15.70    5.10
   1   4   2   25.10    3.60
  -2  -4  -2  293.47   10.10
  -2  -4  -2  273.57   15.70
   2   4   2  285.77   10.30
  -3  -4  -2  661.33   28.20
   3   4   2  617.64   17.70
   3   4   2  606.04   18.70
  -4  -4  -2   -1.40    4.70
   4   4   2    5.50    2.20
   4   4   2    1.50    3.20
  -5  -4  -2   40.00   10.50
   5   4   2   29.50    3.30
  -6  -4  -2  155.88   18.00
  -7  -4  -2   95.79   17.10
  -8  -4  -2    3.70   12.20
  11  -5  -2   44.00   17.50
 -11   5   2   61.19   11.10
  10  -5  -2   22.70   12.10
 -10   5   2   15.30    8.20
   9  -5  -2   23.50    9.50
  -9   5   2   29.70    7.60
   8  -5  -2  144.19   15.30
  -8   5   2  151.38   12.20
   7  -5  -2   77.89   11.50
  -7   5   2   56.29    7.40
   6  -5  -2   35.70    8.20
   5  -5  -2   83.79    9.50
  -5   5   2   71.49    7.00
   4  -5  -2  377.06   19.10
   4  -5  -2  354.26   14.50
  -4   5   2  392.76   16.20
  -4   5   2  349.17   18.30
   3  -5  -2    2.10    3.90
   3  -5  -2    8.80    2.90
  -3   5   2    1.20    2.20
  -3   5   2    7.90    4.80
   2  -5  -2   93.59    9.30
  -2   5   2   95.19    9.00
  -2   5   2   99.39    7.10
   1  -5  -2  226.48   10.20
   1  -5  -2  243.38   14.60
  -1   5   2  248.78   11.10
  -1   5   2  217.88   13.90
   0  -5  -2  592.94   24.90
   0  -5  -2  603.84   18.90
   0   5   2  613.64   25.50
   0   5   2  636.64   19.90
  -1  -5  -2   14.80    5.20
  -1  -5  -2   11.50    3.00
   1   5   2   17.60    3.60
  -2  -5  -2  174.18    8.30
  -2  -5  -2  172.68   14.00
   2   5   2  188.88    8.80
  -3  -5  -2  109.09   12.30
   3   5   2  122.09    6.70
   3   5   2  112.49    8.80
  -4  -5  -2  345.97   22.30
   4   5   2  309.27   12.50
   4   5   2  320.77   11.40
  -5  -5  -2   37.40   11.40
   5   5   2   47.70    5.00
   5   5   2   45.30    5.40
  -6  -5  -2  146.99   18.30
  -7  -5  -2   84.59   16.00
  11  -6  -2   52.09   16.00
 -11   6   2   47.90   12.00
  10  -6  -2   51.89   12.70
 -10   6   2   42.90    8.60
   9  -6  -2    7.30    7.80
  -9   6   2    0.60    5.90
   8  -6  -2   22.20    9.50
  -8   6   2   43.90    7.90
   7  -6  -2  178.68   15.90
  -7   6   2  196.58   12.80
   6  -6  -2    5.90    5.30
  -6   6   2    1.70    3.60
  -5   6   2   27.60    6.00
   4  -6  -2  223.48   15.40
  -4   6   2  206.98   11.90
   3  -6  -2   57.99    9.60
  -3   6   2   67.79    6.60
   2  -6  -2   58.59    5.90
   2  -6  -2   86.79   11.40
  -2   6   2   63.09    6.40
   1  -6  -2  496.55   22.80
   1  -6  -2  453.35   17.00
  -1   6   2  475.55   17.90
   0  -6  -2  389.06   15.30
   0   6   2  437.66   16.30
  -1  -6  -2   58.69    6.20
  -1  -6  -2   43.80    8.60
   1   6   2   46.00    5.90
  -2  -6  -2   15.60    5.20
   2   6   2   19.80    4.10
  -3  -6  -2  186.58   17.30
   3   6   2  188.98    9.90
   3   6   2  178.48   12.30
  -4  -6  -2  147.19   16.30
   4   6   2  127.19   11.20
   4   6   2  151.08    8.70
  -5  -6  -2    4.00    9.00
   5   6   2    3.40    4.30
   5   6   2   10.50    5.90
  -6  -6  -2   47.60   14.30
  11  -7  -2   33.70   14.40
 -11   7   2   41.90   11.60
  10  -7  -2   59.99   15.90
 -10   7   2   31.20    9.60
   9  -7  -2    7.80    9.90
  -9   7   2   -0.90    6.20
   8  -7  -2  178.68   18.60
  -8   7   2  208.38   15.00
   7  -7  -2   63.09   11.50
  -7   7   2   65.09    9.70
   6  -7  -2   32.90    7.60
  -6   7   2   30.30    6.00
   5  -7  -2   99.69   13.50
  -5   7   2   94.99    8.70
   4  -7  -2  651.53   28.80
  -4   7   2  620.94   24.20
   3  -7  -2  133.49   12.50
  -3   7   2  112.69    9.40
   2  -7  -2    0.60    4.40
   1  -7  -2  242.78   17.20
  -1   7   2  234.48   12.50
   0  -7  -2  294.97   19.10
   0   7   2  298.07   14.10
  -1  -7  -2   10.80    5.70
   1   7   2   12.20    4.50
  -2  -7  -2    4.40    6.00
  -2  -7  -2   19.20    8.30
   2   7   2   25.70    5.00
  -3  -7  -2  185.28   17.70
   3   7   2  160.48   15.30
   3   7   2  158.88   10.60
  -4  -7  -2   69.19   14.60
   4   7   2   63.39    7.10
   4   7   2   63.79   15.30
  -5  -7  -2    3.00   12.00
   5   7   2    8.00    5.50
  11  -8  -2   88.99   17.10
 -11   8   2   48.60   12.60
  10  -8  -2   39.90   14.90
 -10   8   2   57.79   12.70
   9  -8  -2   39.70   12.80
  -9   8   2   27.70    8.10
   8  -8  -2   54.29   12.80
  -8   8   2   58.59   10.00
   7  -8  -2  148.29   16.10
  -7   8   2  166.48   13.20
   6  -8  -2   72.49   13.50
  -6   8   2   48.80    8.50
   5  -8  -2  175.38   16.00
  -5   8   2  159.48   11.90
   4  -8  -2  204.28   16.80
  -4   8   2  202.38   13.30
   3  -8  -2  299.67   19.70
  -3   8   2  337.77   17.10
   2  -8  -2   15.20    6.30
  -2   8   2   17.20    4.60
   1  -8  -2  245.58   17.30
  -1   8   2  241.68   13.40
   0  -8  -2   60.89   11.20
   0   8   2   54.29    7.90
  -1  -8  -2  141.69   16.00
   1   8   2  143.19   10.70
  -2  -8  -2  110.99   16.80
   2   8   2  126.79   10.10
  -3  -8  -2  257.97   22.00
  -4  -8  -2    8.50   11.00
   4   8   2    5.30    6.80
  11  -9  -2  115.39   20.40
 -11   9   2   92.19   14.60
  10  -9  -2   53.69   16.00
 -10   9   2   47.40   11.00
   9  -9  -2    5.90    9.20
  -9   9   2    1.70    6.90
   8  -9  -2   80.29   15.00
  -8   9   2   66.49   11.10
   7  -9  -2   27.70   10.00
  -7   9   2   40.10    9.30
   6  -9  -2   18.20    9.60
  -6   9   2    7.90    5.50
   5  -9  -2   -1.40    7.60
  -5   9   2    5.50    5.20
   4  -9  -2  280.87   20.70
  -4   9   2  280.87   16.60
   3  -9  -2  373.16   23.50
  -3   9   2  343.67   18.60
   2  -9  -2   39.70    9.20
  -2   9   2   36.60    7.00
   1  -9  -2   26.20    9.20
  -1   9   2   27.10    7.00
   0  -9  -2  267.27   21.20
   0   9   2  261.07   15.50
  -1  -9  -2   20.70    9.70
   1   9   2   45.00    8.50
  -2  -9  -2  -10.30   10.00
   2   9   2    3.90    6.20
  -3  -9  -2   26.50   13.90
   3   9   2   38.20    9.00
  10 -10  -2   23.10   14.10
 -10  10   2   37.60   10.50
   9 -10  -2   20.40   11.30
  -9  10   2   24.10    8.50
   8 -10  -2  158.58   32.50
  -8  10   2  141.29   14.40
   7 -10  -2  551.84   32.50
   6 -10  -2   29.00   10.70
  -6  10   2   21.00    6.70
   5 -10  -2   -0.90    7.10
  -5  10   2   15.80    6.50
   4 -10  -2  244.18   20.70
  -4  10   2  234.28   16.50
   3 -10  -2  132.89   18.40
  -3  10   2  111.79   11.90
   2 -10  -2   23.30   10.00
  -2  10   2   36.20    8.90
   1 -10  -2   32.80   10.40
  -1  10   2   41.30    8.40
   0  10   2  125.49   12.00
  -1 -10  -2   17.10   11.20
   1  10   2   35.30    8.80
  -2 -10  -2   10.80   12.30
   2  10   2   -5.90    8.20
  10 -11  -2   53.79   15.50
   9 -11  -2   -2.50   12.60
  -9  11   2    6.70    7.70
   8 -11  -2   33.00   12.10
  -8  11   2   59.19   12.20
   7 -11  -2   66.89   15.00
  -7  11   2   70.59   11.50
  -6  11   2   92.69   13.20
   5 -11  -2    6.80    9.50
  -5  11   2    4.10    6.80
   4 -11  -2   38.50   11.50
   3 -11  -2   82.29   20.50
  -3  11   2  103.49   16.80
   2 -11  -2    5.60    9.10
  -2  11   2   13.30    7.90
   1 -11  -2   52.59   13.10
  -1  11   2   35.40    9.60
   0 -11  -2  116.19   18.30
   0  11   2  131.69   15.90
   8 -12  -2   23.10   13.40
  -8  12   2  -11.00    7.40
   7 -12  -2   32.90   13.30
  -7  12   2   53.09   10.30
   6 -12  -2   40.70   13.80
  -6  12   2   49.30   10.50
   5 -12  -2    1.20   11.00
  -5  12   2   10.70    8.40
   4 -12  -2   52.69   14.50
  -4  12   2   28.90   10.50
   3 -12  -2  174.58   22.60
  -3  12   2  164.98   17.20
   2 -12  -2   17.90   12.20
  -2  12   2   25.80   10.50
  -3  13  -3  117.99   15.30
   3 -13   3  115.19   18.90
  -4  13  -3   41.20    9.80
   4 -13   3   30.90   13.10
  -5  13  -3    9.90    8.10
   5 -13   3   31.80   12.70
  -6  13  -3   14.40    8.70
   6 -13   3   30.60   13.30
  -7  13  -3   72.99   11.60
   7 -13   3   76.39   16.10
   0  12  -3   43.40   11.70
   0 -12   3   40.80   14.00
  -1  12  -3    4.10    7.90
   1 -12   3    5.80   11.90
  -2  12  -3   38.30    9.20
   2 -12   3   20.80   10.90
  -3  12  -3   69.89   11.50
   3 -12   3   43.90   12.00
  -4  12  -3   72.29   11.90
   4 -12   3   73.39   13.10
  -5  12  -3   13.60    6.70
   5 -12   3   18.30   10.60
  -6  12  -3   49.40    9.40
   6 -12   3   52.99   12.10
  -7  12  -3   96.79   13.40
   7 -12   3   80.29   14.40
  -8  12  -3   12.00    7.60
   8 -12   3    7.30   11.20
  -9  12  -3    9.00    9.40
  -2 -11   3    5.80   14.40
   1  11  -3  150.58   15.20
  -1 -11   3  137.59   18.40
   0  11  -3   91.79   13.30
   0 -11   3  105.29   16.10
   1 -11   3    2.70    8.60
  -2  11  -3   27.90    8.70
   2 -11   3   23.00   10.10
  -3  11  -3  133.99   13.10
   3 -11   3  120.39   15.10
  -4  11  -3   43.40    8.40
   4 -11   3   76.39   12.10
  -5  11  -3   13.70    6.60
   5 -11   3   30.00    8.80
   6 -11   3   95.69   14.00
  -7  11  -3  109.79   13.50
   7 -11   3  135.39   17.10
  -8  11  -3   56.99   10.10
   8 -11   3   29.30   11.80
  -9  11  -3    7.50    8.40
   9 -11   3   -3.50   10.90
 -10  11  -3   68.79   12.30
  10 -11   3   25.40   14.50
   3  10  -3   65.69   17.20
  -3 -10   3   91.99   17.60
   2  10  -3   17.50    7.20
  -2 -10   3   12.70   11.10
   1  10  -3  102.79   12.10
  -1 -10   3  100.19   14.10
   0  10  -3  378.56   19.90
   0 -10   3  403.36   23.30
  -1  10  -3   54.39    8.30
   1 -10   3   48.30    9.60
  -2  10  -3  166.08   13.20
   2 -10   3  167.68   14.80
  -3  10  -3  138.69   12.50
  -4  10  -3  188.88   13.60
  -5  10  -3    6.60    5.30
   5 -10   3    4.00    6.50
  -6  10  -3   47.90    9.50
   6 -10   3   68.69   11.50
  -7  10  -3  123.19   14.20
   7 -10   3  107.89   13.60
  -8  10  -3   51.69    9.50
   8 -10   3   68.49   13.00
   9 -10   3   -9.60   10.00
 -10  10  -3   83.89   12.40
  11 -10   3    2.60   15.40
   4   9  -3  110.39   13.20
  -4  -9   3  105.79   17.10
   3   9  -3   15.90    8.20
  -3  -9   3    6.20   11.50
   2   9  -3   14.70    6.50
  -2  -9   3   12.60    8.20
   1   9  -3  125.19   11.90
  -1  -9   3  159.48   14.90
   0   9  -3  269.67   15.20
   0  -9   3  267.27   17.80
  -1   9  -3  297.97   16.40
   1  -9   3  316.37   18.20
  -2   9  -3   16.20    4.80
   2  -9   3   14.70    6.10
  -3   9  -3  504.45   23.90
  -3   9  -3  539.25   22.70
   3  -9   3  573.34   24.20
  -4   9  -3  420.36   19.60
  -4   9  -3  376.76   21.00
   4  -9   3  414.06   20.70
  -5   9  -3   -1.60    3.40
   5  -9   3    0.10    5.70
  -6   9  -3  200.58   13.70
   6  -9   3  207.18   17.90
  -7   9  -3  106.29   12.20
   7  -9   3  126.89   15.70
  -8   9  -3   63.89   10.80
   8  -9   3   64.19   12.60
  -9   9  -3   -5.00    6.30
   9  -9   3    7.50   10.70
 -10   9  -3   90.89   12.60
  10  -9   3   87.09   16.70
 -11   9  -3   75.29   13.60
  11  -9   3   27.50   15.20
   5   8  -3   -4.60    8.70
  -5  -8   3   -4.50   11.00
   4   8  -3  192.68   14.60
  -4  -8   3  192.98   20.10
   3   8  -3   78.19    9.40
  -3  -8   3   75.89   12.60
   2   8  -3   17.40    6.40
  -2  -8   3   11.30    7.30
   1   8  -3  240.28   13.80
  -1  -8   3  210.78   17.80
   0   8  -3  385.06   18.30
   0  -8   3  415.96   20.10
  -1   8  -3   46.10    8.80
  -1   8  -3   57.99    7.70
   1  -8   3   48.50    8.00
  -2   8  -3    3.40    3.60
   2  -8   3    1.90    4.60
  -3   8  -3  285.17   14.70
   3  -8   3  294.47   15.80
  -4   8  -3  129.09   11.00
  -4   8  -3  127.49   10.20
   4  -8   3  134.09   10.80
  -5   8  -3   23.60    6.90
  -5   8  -3   40.90    6.70
   5  -8   3   47.00    7.50
  -6   8  -3   48.10    7.00
   6  -8   3   58.29    9.60
  -7   8  -3  246.18   14.60
   7  -8   3  276.67   18.20
  -8   8  -3   40.10    6.80
   8  -8   3   38.60    9.60
  -9   8  -3   12.90    6.50
   9  -8   3   25.50   10.00
 -10   8  -3   19.00    8.20
  10  -8   3   -2.10   10.60
 -11   8  -3  131.29   15.30
  11  -8   3  108.59   20.10
   6   7  -3    7.90    8.50
  -6  -7   3   27.00   14.00
   5   7  -3   29.70    7.90
  -5  -7   3   20.60   10.90
   4   7  -3   98.99   10.00
  -4  -7   3   68.89   12.00
   3   7  -3  173.68   11.80
  -3  -7   3  142.49   14.50
   2   7  -3   23.00    4.90
  -2  -7   3   20.20    7.30
   1   7  -3    3.80    5.80
   1   7  -3    8.90    3.70
  -1  -7   3    1.50    4.60
   0   7  -3  149.39   10.10
   0  -7   3  163.78   11.60
  -1   7  -3  220.78   13.20
  -1   7  -3  251.97   14.60
   1  -7   3  245.38   13.20
  -2   7  -3    0.60    3.80
   2  -7   3    0.80    2.70
  -3   7  -3   16.20    4.30
   3  -7   3   16.90    4.60
  -4   7  -3  201.88   12.40
  -4   7  -3  229.88   14.90
   4  -7   3  232.38   13.50
  -5   7  -3  143.29    9.90
  -5   7  -3  142.19   11.20
   5  -7   3  132.99   11.20
  -6   7  -3   91.69    8.10
   6  -7   3   81.69    9.80
  -7   7  -3  343.57   16.80
   7  -7   3  331.37   19.90
  -8   7  -3   84.29    9.10
   8  -7   3  111.19   14.80
  -9   7  -3   20.10    6.20
   9  -7   3   -3.40    7.90
 -10   7  -3   42.60    9.10
  10  -7   3   45.70   13.40
 -11   7  -3   76.59   12.50
  11  -7   3   52.79   16.40
   7   6  -3   84.09   10.70
  -7  -6   3   57.19   16.80
   6   6  -3   52.69    8.90
  -6  -6   3   35.80   13.80
   5   6  -3   11.40    5.80
  -5  -6   3   19.60    9.70
   4   6  -3   22.00    5.50
  -4  -6   3   34.80   10.20
   3   6  -3  332.67   14.90
  -3  -6   3  334.27   18.80
   2   6  -3   87.19    8.70
   2   6  -3   91.89   10.30
  -2  -6   3   92.79    9.60
   1   6  -3   -0.80    4.70
   1   6  -3   -1.00    2.60
  -1  -6   3    4.70    3.60
   0   6  -3  112.89    9.30
   0   6  -3  127.79    8.50
   0  -6   3  124.19    8.70
  -1   6  -3  187.48   10.60
  -1   6  -3  178.98    9.90
   1  -6   3  188.38   10.00
   1  -6   3  186.88   10.10
  -2   6  -3   -1.70    2.10
  -2   6  -3    1.00    3.00
   2  -6   3    2.50    2.70
   2  -6   3    2.10    2.30
  -3   6  -3  155.08    9.50
  -3   6  -3  164.98    9.30
   3  -6   3  148.09    9.00
   3  -6   3  155.18    9.20
  -4   6  -3  171.78    9.90
  -4   6  -3  169.38   10.50
   4  -6   3  185.08   11.10
   4  -6   3  184.38    9.90
  -5   6  -3  269.17   16.30
  -5   6  -3  304.07   13.80
   5  -6   3  297.07   15.70
  -6   6  -3    1.30    2.90
   6  -6   3    6.50    5.50
   6  -6   3   -0.70    3.90
  -7   6  -3  260.27   15.40
   7  -6   3  279.67   18.30
  -8   6  -3  207.98   12.60
   8  -6   3  207.48   17.50
  -9   6  -3   37.80    6.70
   9  -6   3   33.60    9.90
 -10   6  -3   12.10    7.70
  10  -6   3    6.50   10.70
 -11   6  -3   58.29   10.80
  11  -6   3   83.69   17.70
   8   5  -3   19.30    9.80
   8   5  -3   35.70   16.30
   7   5  -3  104.09   11.10
  -7  -5   3   59.09   14.50
   6   5  -3   54.19    7.90
  -6  -5   3   82.69   14.70
   5   5  -3   39.80    6.60
  -5  -5   3   34.30    8.10
   4   5  -3   90.99    9.00
  -4  -5   3   95.19   12.00
   3   5  -3  218.58   11.30
  -3  -5   3  236.38   14.80
   2   5  -3   22.90    5.90
   2   5  -3   24.20    4.50
  -2  -5   3   17.10    5.10
   1   5  -3   56.69    7.20
   1   5  -3   67.09    5.80
   1   5  -3   69.19    8.70
  -1  -5   3   64.69    6.90
   0   5  -3  515.25   17.70
   0   5  -3  502.55   17.60
   0  -5   3  516.75   17.50
   0  -5   3  482.45   17.20
  -1   5  -3  966.00   27.50
  -1   5  -3  999.10   28.50
   1  -5   3  984.10   27.30
  -2   5  -3   -1.00    2.00
  -2   5  -3    1.20    1.80
   2  -5   3   -1.30    2.20
  -3   5  -3    1.20    2.40
  -3   5  -3    2.30    2.10
   3  -5   3    1.40    2.30
  -4   5  -3  485.15   17.20
  -4   5  -3  474.05   18.00
   4  -5   3  506.45   19.00
  -5   5  -3  100.79    6.90
   5  -5   3   98.19    9.10
   5  -5   3  102.79    8.80
   5  -5   3   87.89    6.60
  -6   5  -3   -0.40    2.60
   6  -5   3    2.20    4.30
   6  -5   3   -3.60    5.00
   6  -5   3    2.10    3.10
  -7   5  -3   35.10    5.30
   7  -5   3   31.10    4.80
   7  -5   3   42.10    8.50
  -8   5  -3  325.77   15.10
   8  -5   3  350.16   22.20
  -9   5  -3   30.60    6.10
   9  -5   3   17.50    9.40
  10  -5   3   16.80   11.20
 -11   5  -3   15.20   12.80
  11  -5   3   48.90   16.90
   8   4  -3    0.10    7.00
   8   4  -3   12.30   13.30
   7   4  -3  112.79   10.40
   7   4  -3  106.79   17.90
   6   4  -3  158.88   10.20
  -6  -4   3  154.08   15.80
   5   4  -3    5.60    3.90
  -5  -4   3   -1.60    5.80
   4   4  -3  202.88   12.70
   4   4  -3  197.48   10.50
  -4  -4   3  206.68   14.90
   3   4  -3  544.75   20.80
   3   4  -3  525.65   21.90
   3   4  -3  562.74   18.80
  -3  -4   3  528.95   22.20
   2   4  -3  380.06   16.30
   2   4  -3  402.96   14.80
  -2  -4   3  388.56   16.30
   1   4  -3  129.19    9.10
   1   4  -3  123.59    7.10
   1   4  -3  130.09    7.80
  -1  -4   3  124.49    7.60
   0   4  -3  618.84   18.60
   0   4  -3  634.24   19.30
   0  -4   3  614.54   19.10
  -1   4  -3  881.81   23.00
  -1   4  -3  870.61   24.80
   1  -4   3  867.41   24.60
   1  -4   3  897.41   23.00
  -2   4  -3  671.93   19.50
  -2   4  -3  654.93   19.60
   2  -4   3  634.24   19.30
   2  -4   3  641.94   18.70
  -3   4  -3  657.03   19.70
  -3   4  -3  633.24   19.60
   3  -4   3  645.64   19.30
   3  -4   3  645.34   20.10
  -4   4  -3   15.00    3.20
   4  -4   3   23.20    4.60
   4  -4   3   15.10    3.20
   4  -4   3   12.60    4.00
  -5   4  -3   81.49    5.80
   5  -4   3   90.89    8.30
   5  -4   3   77.99    5.60
   5  -4   3   90.69    8.40
  -6   4  -3   79.99    6.20
   6  -4   3   68.09    5.80
   6  -4   3   77.39    9.90
   6  -4   3   79.39   10.70
  -7   4  -3  139.99    8.70
   7  -4   3  134.59    8.20
   7  -4   3  138.19   13.40
  -8   4  -3  207.88   11.10
   8  -4   3  183.58   12.10
   8  -4   3  195.48   17.30
  -9   4  -3   53.59    7.50
   9  -4   3   54.19    7.20
   9  -4   3   66.69   13.10
 -10   4  -3    0.30    6.50
  10  -4   3    8.60   14.80
 -11   4  -3   49.80    9.90
  11  -4   3   68.99   17.90
   9   3  -3   60.49   17.80
   9   3  -3   59.09    9.50
   8   3  -3    0.50    6.40
   8   3  -3    1.10   11.10
   7   3  -3   43.90    6.90
   7   3  -3   41.00   12.20
   6   3  -3  294.57   13.80
   5   3  -3   81.49    8.50
   5   3  -3   73.19    7.00
  -5  -3   3   70.49   10.80
   4   3  -3   86.39   10.30
   4   3  -3   92.19    6.70
   4   3  -3   93.49    8.30
  -4  -3   3   75.49    9.70
   3   3  -3  651.83   23.80
   3   3  -3  697.03   21.30
   3   3  -3  678.03   22.90
  -3  -3   3  695.73   24.60
   2   3  -3  579.44   20.20
   2   3  -3  612.74   18.70
   2   3  -3  574.04   19.70
  -2  -3   3  601.94   20.50
   1   3  -3  147.69    7.30
   1   3  -3  150.68    7.40
   1   3  -3  158.38    9.00
  -1  -3   3  143.69    7.50
   0   3  -3  820.82   20.80
   0   3  -3  810.12   22.70
   0  -3   3  835.42   20.70
  -1   3  -3 1960.50   47.10
  -1   3  -3 1962.70   43.90
   1  -3   3 1954.60   47.00
   1  -3   3 1980.30   44.00
  -2   3  -3 1776.42   42.40
   2  -3   3 1738.53   41.20
   2  -3   3 1697.93   42.20
   2  -3   3 1781.32   41.70
  -3   3  -3  465.65   14.50
   3  -3   3  470.05   14.40
   3  -3   3  475.05   15.90
   3  -3   3  482.95   16.30
  -4   3  -3 1610.64   39.40
   4  -3   3 1631.94   44.00
   4  -3   3 1582.74   43.10
   4  -3   3 1564.24   38.90
  -5   3  -3  648.24   19.30
   5  -3   3  674.93   24.90
   5  -3   3  661.23   18.90
  -6   3  -3    6.20    2.60
   6  -3   3    7.50    2.60
   6  -3   3    7.40    4.30
  -7   3  -3  231.18   10.00
   7  -3   3  233.88   16.70
   7  -3   3  222.18    9.50
  -8   3  -3   86.59    7.20
   8  -3   3  100.19   14.50
   8  -3   3   77.99    6.80
  -9   3  -3   40.60    5.90
   9  -3   3   34.40    5.60
   9  -3   3   42.90   12.60
 -10   3  -3   -1.50    5.80
  10  -3   3   24.70   12.40
  11  -3   3   39.80   16.70
   9   2  -3   20.40    7.90
   9   2  -3   10.40   13.60
   8   2  -3   10.10    5.50
   8   2  -3    5.20   10.90
   7   2  -3  192.98   19.60
   6   2  -3  120.19   13.30
  -6  -2   3   94.49    9.90
   5   2  -3   -1.10    4.30
   5   2  -3    7.60    4.70
  -5  -2   3    1.80    3.60
   4   2  -3   42.50    6.60
   4   2  -3   24.70    5.10
  -4  -2   3   44.80    6.50
   3   2  -3 1275.77   35.40
   3   2  -3 1292.57   37.20
  -3  -2   3 1320.37   36.50
  -3  -2   3 1287.27   37.50
   2   2  -3 1228.58   32.70
   2   2  -3 1164.08   32.70
  -2  -2   3 1233.68   33.60
  -2  -2   3 1190.18   32.90
   1   2  -3  104.79    5.40
   1   2  -3  103.19    6.60
  -1  -2   3   96.09    6.70
   0   2  -3  154.08    6.70
   0   2  -3  151.38    7.70
   0   2  -3  156.58    4.60
   0   2  -3  155.58    4.70
  -1   2  -3 1480.75   35.20
   1  -2   3 1482.75   32.60
   1  -2   3 1473.35   32.60
   1  -2   3 1407.06   35.00
  -2   2  -3   19.00    3.00
  -2   2  -3   20.90    2.60
   2  -2   3   19.30    3.00
   2  -2   3   18.10    2.70
  -3   2  -3   12.10    2.20
  -3   2  -3   15.70    3.20
   3  -2   3    6.90    2.50
   3  -2   3   14.20    2.30
  -4   2  -3  583.04   17.00
  -4   2  -3  583.24   20.90
   4  -2   3  586.94   21.00
   4  -2   3  573.54   15.70
  -5   2  -3  252.57    9.20
  -5   2  -3  288.97   14.60
   5  -2   3  268.77    8.90
   5  -2   3  254.67   14.40
  -6   2  -3   11.60    2.80
   6  -2   3   17.30    2.70
  -7   2  -3   74.69    5.30
   7  -2   3   65.99    4.80
   7  -2   3   57.89   10.00
  -8   2  -3  171.68    8.70
   8  -2   3  190.58    7.60
   8  -2   3  230.78   19.90
   9  -2   3   38.20   12.00
  10  -2   3    4.40   12.30
  11  -2   3   -3.40   13.80
  10   1  -3   35.20    8.80
  10   1  -3    4.50   14.60
   9   1  -3  122.39   20.80
  -9  -1   3   64.79   11.90
   8   1  -3   24.60   10.30
  -8  -1   3   21.20    7.80
   7   1  -3  153.78   15.60
  -7  -1   3  142.29   11.90
   6   1  -3  163.88   14.10
   6   1  -3  143.99   10.50
  -6  -1   3  184.28   11.80
   5   1  -3   35.50    5.40
   5   1  -3   38.50    7.00
  -5  -1   3   46.60    6.40
   4   1  -3   25.40    5.90
   4   1  -3   30.10    4.40
  -4  -1   3   30.90    4.90
   3   1  -3  343.57   13.40
   3   1  -3  370.86   15.50
   3   1  -3  360.46   14.70
  -3  -1   3  360.76   13.90
   2   1  -3  508.25   16.70
   2   1  -3  519.75   17.20
   2   1  -3  510.55   16.70
  -2  -1   3  523.95   17.10
   1   1  -3  458.75   14.80
   1   1  -3  490.05   14.10
  -1  -1   3  467.75   13.80
  -1  -1   3  487.15   15.50
   0   1  -3   20.00    3.00
   0   1  -3   15.20    2.00
   0  -1   3   28.80    3.70
   0  -1   3   17.30    2.10
  -1   1  -3   18.60    2.30
  -1   1  -3   22.80    2.90
   1  -1   3   16.80    2.50
  -2   1  -3   67.79    3.20
  -2   1  -3   63.89    3.90
  -2   1  -3   67.69    5.00
   2  -1   3   72.19    5.00
  -3   1  -3   34.20    5.10
  -3   1  -3   31.50    2.10
   3  -1   3   30.50    4.90
   3  -1   3   26.10    2.10
  -4   1  -3  588.34   22.10
  -4   1  -3  599.44   15.00
   4  -1   3  606.34   22.60
   4  -1   3  607.44   14.70
  -5   1  -3  294.27    8.30
  -5   1  -3  289.57   15.70
   5  -1   3  281.17   16.00
   5  -1   3  291.57    7.90
  -6   1  -3   58.69    9.30
  -7   1  -3    0.10    4.80
   8  -1   3  232.08   20.80
   9  -1   3  109.49   27.70
  10  -1   3    2.90   13.60
  10   0  -3   54.29   17.50
 -10   0   3   38.20   11.40
  -9   0   3   80.99   11.00
   8   0  -3   24.50    9.70
  -8   0   3   27.60    7.80
   7   0  -3   54.79   10.60
  -7   0   3   43.80    6.80
   6   0  -3  221.18   11.90
   6   0  -3  217.98   16.20
  -6   0   3  246.18   13.00
   5   0  -3  237.48   13.10
   5   0  -3  235.88   14.50
   5   0  -3  264.47   16.00
  -5   0   3  280.47   12.90
   4   0  -3    9.70    3.80
   4   0  -3   11.40    4.50
   4   0  -3   13.30    3.20
  -4   0   3   18.20    3.70
   3   0  -3   70.09    6.60
   3   0  -3   71.29    5.40
  -3   0   3   78.69    5.80
   2   0  -3  305.07   11.30
   2   0  -3  298.47   12.00
  -2   0   3  288.27   11.50
  -2   0   3  311.87   11.60
   1   0  -3    9.00    2.30
   1   0  -3   10.50    2.50
  -1   0   3   11.30    2.60
   0   0  -3    8.60    2.10
   0   0  -3    8.90    2.30
   0   0   3    8.90    2.20
   0   0   3   11.00    2.40
  -1   0  -3  134.99    5.20
   1   0   3  140.59    5.40
   1   0   3  131.09    6.80
  -2   0  -3  523.75   12.30
  -2   0  -3  523.55   12.60
  -2   0  -3  510.05   17.80
   2   0   3  501.75   17.80
  -3   0  -3    9.80    3.30
   3   0   3    8.30    3.40
  -4   0  -3  247.28   14.00
   4   0   3  235.68   13.50
  -5   0  -3  451.55   21.20
  -6   0  -3  160.48   14.00
  -7   0  -3    5.30    6.00
  -8   0  -3   77.89   14.30
   9   0   3  122.79   19.50
  10   0   3   23.30   14.90
  11  -1  -3   12.30   15.80
 -11   1   3   -2.10   15.50
  10  -1  -3   85.69   17.90
 -10   1   3   68.79   11.50
   9  -1  -3   66.49   14.80
  -9   1   3   81.49   10.10
   8  -1  -3   -9.40    7.70
  -8   1   3    2.70    5.30
   7  -1  -3    0.20    5.60
  -7   1   3    5.00    4.30
   6  -1  -3  315.87   21.00
   6  -1  -3  305.17   14.20
  -6   1   3  318.47   15.20
   5  -1  -3  339.67   17.90
   5  -1  -3  331.57   14.40
   5  -1  -3  326.57   16.80
  -5   1   3  321.87   14.20
   4  -1  -3   18.40    5.00
   4  -1  -3   20.30    3.80
  -4   1   3   26.70    5.70
  -4   1   3   13.20    3.50
   3  -1  -3  167.58    8.20
   3  -1  -3  154.38    9.60
  -3   1   3  161.08    8.40
  -3   1   3  148.99    9.30
   2  -1  -3  629.34   18.90
   2  -1  -3  647.84   21.00
  -2   1   3  619.54   20.40
  -2   1   3  648.54   19.30
   1  -1  -3  226.58   10.30
   1  -1  -3  226.48    8.80
  -1   1   3  232.48   10.20
  -1   1   3  242.98    9.20
   0  -1  -3  204.38    9.50
   0  -1  -3  197.08    7.20
   0   1   3  201.88    8.20
   0   1   3  198.78    9.20
  -1  -1  -3  467.05   12.20
  -1  -1  -3  448.56   16.40
   1   1   3  463.65   12.40
   1   1   3  457.15   16.70
  -2  -1  -3  650.43   22.40
   2   1   3  616.44   22.20
  -3  -1  -3  188.08   11.80
  -4  -1  -3   74.89   10.00
  -5  -1  -3  500.45   23.60
  -6  -1  -3   85.79   12.40
  -7  -1  -3   28.80    8.80
  -9  -1  -3   35.40   12.00
  11  -2  -3   -8.60   15.40
 -11   2   3  -13.00   11.70
  10  -2  -3   22.10   14.50
 -10   2   3   27.20   10.00
   9  -2  -3  163.48   18.30
  -9   2   3  124.29   12.60
   8  -2  -3   38.00    9.20
  -8   2   3   44.40    8.30
   7  -2  -3   15.50    6.80
  -7   2   3   12.90    5.40
   6  -2  -3  312.87   16.30
  -6   2   3  297.87   14.50
   5  -2  -3  458.95   17.50
   5  -2  -3  472.65   21.70
  -5   2   3  521.95   18.80
  -5   2   3  443.26   20.30
   4  -2  -3    5.40    3.30
   4  -2  -3    0.80    2.20
  -4   2   3    2.70    3.40
  -4   2   3    0.90    2.10
   3  -2  -3   17.00    4.70
   3  -2  -3   15.10    3.10
  -3   2   3   19.00    4.60
  -3   2   3   14.20    3.20
   2  -2  -3 1806.62   44.80
   2  -2  -3 1809.52   48.10
  -2   2   3 1809.92   48.20
  -2   2   3 1799.02   45.20
   1  -2  -3 1913.31   46.20
   1  -2  -3 1933.71   50.19
  -1   2   3 1967.40   46.60
  -1   2   3 1887.11   50.09
   0  -2  -3  853.51   26.40
   0  -2  -3  800.82   21.50
   0   2   3  838.22   21.80
   0   2   3  794.62   26.00
  -1  -2  -3  391.06   16.20
   1   2   3  395.66   11.40
   1   2   3  363.96   16.30
  -2  -2  -3   79.89    3.30
  -2  -2  -3   72.39    7.50
   2   2   3   87.29    3.60
   2   2   3   65.99    7.70
  -3  -2  -3  201.08   13.20
   3   2   3  181.08   13.20
  -4  -2  -3   73.29   12.10
  -5  -2  -3   29.40    8.30
  -6  -2  -3  249.38   18.70
  -7  -2  -3   37.20   10.70
  -8  -2  -3   29.20   12.10
  -9  -2  -3  100.19   17.80
  11  -3  -3   50.59   15.90
 -11   3   3   34.80   11.90
  10  -3  -3   17.90   11.40
 -10   3   3    6.80    8.70
   9  -3  -3   66.29   13.60
  -9   3   3   74.79    9.50
   8  -3  -3  231.58   19.70
  -8   3   3  238.08   14.20
   7  -3  -3   15.50    7.20
  -7   3   3   13.60    5.00
   6  -3  -3  585.74   30.20
  -6   3   3  571.74   21.90
   5  -3  -3  732.53   29.10
   5  -3  -3  741.73   24.20
  -5   3   3  754.02   28.80
  -5   3   3  764.42   25.20
   4  -3  -3   86.89    8.90
   4  -3  -3   68.39    6.70
  -4   3   3   87.89    9.80
  -4   3   3   84.49    7.00
   3  -3  -3  244.18   13.50
   3  -3  -3  235.18   10.70
  -3   3   3  250.17   11.10
  -3   3   3  229.88   13.00
   2  -3  -3 2595.34   63.79
   2  -3  -3 2710.83   69.19
  -2   3   3 2652.13   68.69
  -2   3   3 2724.73   64.49
   1  -3  -3 1218.38   31.50
   1  -3  -3 1211.98   36.50
  -1   3   3 1257.87   32.10
  -1   3   3 1141.99   35.80
   0  -3  -3  281.37   10.10
   0  -3  -3  302.27   14.60
   0   3   3  293.47   14.80
   0   3   3  305.57   10.80
  -1  -3  -3  859.01   29.50
  -1  -3  -3  852.81   22.10
   1   3   3  850.91   22.60
  -2  -3  -3 1060.59   25.40
  -2  -3  -3 1046.80   35.20
   2   3   3 1007.40   34.90
  -3  -3  -3   30.90    7.60
   3   3   3   25.00    2.50
  -4  -3  -3   44.00    8.50
  -5  -3  -3  421.86   24.30
  -6  -3  -3   56.29   12.00
  -7  -3  -3    7.00    8.70
  -8  -3  -3   27.90   13.90
  11  -4  -3   30.90   14.70
 -11   4   3  -19.30    9.70
  10  -4  -3   86.29   17.00
 -10   4   3  105.59   12.70
   9  -4  -3  124.49   15.80
  -9   4   3  121.59   12.00
   8  -4  -3   18.80    8.60
  -8   4   3   18.50    6.30
   7  -4  -3    1.10    5.20
  -7   4   3    4.80    3.70
   6  -4  -3  420.56   22.10
   5  -4  -3  199.68   13.70
  -5   4   3  187.98   11.10
   4  -4  -3  292.37   16.50
   4  -4  -3  292.87   13.00
  -4   4   3  315.87   14.00
  -4   4   3  279.37   15.40
   3  -4  -3  132.99   10.80
  -3   4   3  124.99   11.40
  -3   4   3  120.99    8.10
   2  -4  -3  137.99    7.80
   2  -4  -3  159.48   11.20
  -2   4   3  147.69    8.40
  -2   4   3  165.58   12.20
   1  -4  -3  608.34   24.00
   1  -4  -3  542.85   18.00
  -1   4   3  606.44   19.10
   0  -4  -3  121.89    6.60
   0  -4  -3  115.49    9.90
   0   4   3  115.69   10.00
   0   4   3  115.49    6.60
  -1  -4  -3  210.68    8.60
  -1  -4  -3  232.68   14.40
   1   4   3  217.78   14.10
   1   4   3  210.58    9.00
  -2  -4  -3  584.84   16.70
  -2  -4  -3  624.84   32.40
   2   4   3  600.24   17.50
  -3  -4  -3  127.59   12.70
   3   4   3  148.99    6.40
  -4  -4  -3   40.40    9.60
  -5  -4  -3  332.27   23.10
  -6  -4  -3   78.49   18.50
  -7  -4  -3   10.10   11.20
  -8  -4  -3   33.20   13.60
  11  -5  -3   -7.20   13.80
 -11   5   3  -10.80    9.00
  10  -5  -3   10.50   10.50
 -10   5   3    4.80    7.40
   9  -5  -3  116.59   17.40
  -9   5   3  133.79   13.70
   8  -5  -3  134.89   18.30
  -8   5   3  154.48   12.00
   7  -5  -3   -0.70    5.40
  -7   5   3    1.60    3.60
   6  -5  -3   22.30    6.10
  -6   5   3   36.80    6.10
   5  -5  -3  453.55   28.80
  -5   5   3  498.55   22.50
   4  -5  -3   81.59    9.50
  -4   5   3   90.69    7.80
   3  -5  -3  202.58   10.30
   3  -5  -3  180.38   13.40
  -3   5   3  189.58   10.60
  -3   5   3  185.58   12.80
   2  -5  -3   13.20    4.90
   2  -5  -3    4.80    2.30
  -2   5   3    6.00    3.30
  -2   5   3    7.90    4.50
   1  -5  -3  160.08   12.70
   1  -5  -3  155.38    9.70
  -1   5   3  156.88   12.20
  -1   5   3  174.78    9.30
   0  -5  -3   57.89    5.40
   0  -5  -3   71.49   10.40
   0   5   3   64.99    5.60
  -1  -5  -3  190.68    8.90
  -1  -5  -3  212.18   15.60
   1   5   3  195.98    9.40
  -2  -5  -3  138.49   13.10
  -2  -5  -3  150.08    7.60
   2   5   3  154.98    8.00
  -3  -5  -3  274.47   19.40
   3   5   3  267.57   10.40
  -4  -5  -3    9.60    7.00
   4   5   3   15.10    3.30
   4   5   3   13.30    4.40
  -5  -5  -3  107.09   15.40
  -6  -5  -3  204.88   22.70
  -7  -5  -3    2.50   11.20
  11  -6  -3   33.40   15.70
 -11   6   3   34.60   11.20
  10  -6  -3   -8.80   11.20
 -10   6   3   14.30    8.40
   9  -6  -3  113.09   17.30
  -9   6   3   90.09   12.70
   8  -6  -3   41.00   10.70
  -8   6   3   21.10    7.00
   7  -6  -3   49.10   10.90
  -7   6   3   46.80    7.60
   6  -6  -3   71.29   10.70
  -6   6   3   54.39    8.10
   5  -6  -3  776.82   32.70
  -5   6   3  739.83   27.50
   4  -6  -3   41.70   14.10
  -4   6   3   45.90    7.70
   3  -6  -3   28.30    7.30
  -3   6   3   39.10    6.50
   2  -6  -3  154.18   14.00
  -2   6   3  154.08    9.70
   1  -6  -3  244.98   18.20
   1  -6  -3  259.17   12.00
  -1   6   3  248.68   12.30
   0  -6  -3   36.10    5.20
   0  -6  -3   46.80    9.00
   0   6   3   44.50    6.10
  -1  -6  -3   29.20    8.40
  -1  -6  -3   41.00    5.60
   1   6   3   35.20    5.60
  -2  -6  -3  149.19    9.90
  -2  -6  -3  181.68   16.10
   2   6   3  183.98    9.70
  -3  -6  -3  131.89   15.70
   3   6   3  118.29    7.90
  -4  -6  -3   18.90   10.20
   4   6   3   23.70    4.40
   4   6   3   16.20    6.20
  -5  -6  -3   17.60   10.00
  -6  -6  -3  104.79   17.80
  11  -7  -3   44.40   15.30
 -11   7   3   18.50    9.70
  10  -7  -3   11.60   11.50
   9  -7  -3   92.59   15.70
  -9   7   3   90.09   13.00
   8  -7  -3  200.58   19.70
  -8   7   3  169.18   14.10
   7  -7  -3   17.00    9.20
  -7   7   3   36.00    7.10
   6  -7  -3   24.70    9.00
  -6   7   3   29.00    7.20
   5  -7  -3  197.88   16.60
  -5   7   3  202.98   13.50
   4  -7  -3  326.47   20.60
  -4   7   3  328.77   16.90
   3  -7  -3    7.70    5.20
  -3   7   3    9.10    4.30
   2  -7  -3  223.28   16.80
  -2   7   3  218.88   12.70
   1  -7  -3  118.39   12.80
  -1   7   3  151.28   11.30
   0  -7  -3   18.10    6.00
   0   7   3   25.30    4.90
  -1  -7  -3   85.69   14.30
   1   7   3   79.39    7.80
  -2  -7  -3  175.28   10.50
  -2  -7  -3  204.48   18.00
   2   7   3  216.98   11.50
  -3  -7  -3  135.59   18.50
   3   7   3  166.68   10.30
  -4  -7  -3   14.40   10.60
   4   7   3   15.80    5.40
  -5  -7  -3    6.90   12.10
  11  -8  -3   74.79   18.40
 -11   8   3   68.99   14.60
  10  -8  -3   12.00   12.30
 -10   8   3   -2.10    7.80
   9  -8  -3   60.19   17.80
  -9   8   3   57.29   14.90
   8  -8  -3  134.49   18.50
  -8   8   3  147.89   14.00
   7  -8  -3   20.70    8.80
  -7   8   3   14.90    6.80
   6  -8  -3   15.30    8.60
  -6   8   3   10.20    5.30
   5  -8  -3   13.80    6.90
  -5   8   3   18.30    5.70
   4  -8  -3  242.78   18.90
  -4   8   3  261.47   15.30
   3  -8  -3   41.30    9.20
  -3   8   3   56.59    8.60
   2  -8  -3  120.69   13.30
  -2   8   3  102.49    9.60
   1  -8  -3  393.76   24.40
  -1   8   3  397.06   18.10
   0  -8  -3  335.27   22.60
   0   8   3  373.16   17.20
  -1  -8  -3  -11.40    6.90
   1   8   3    3.80    3.90
  -2  -8  -3  186.88   20.20
   2   8   3  144.89   14.50
  -3  -8  -3   49.00   13.10
   3   8   3   43.70    7.40
  -4  -8  -3   24.00   12.30
   4   8   3   46.80    7.70
  11  -9  -3   11.20   15.00
 -11   9   3   12.80   10.90
  10  -9  -3   37.60   14.10
 -10   9   3   36.10   11.30
   9  -9  -3   44.80   15.30
  -9   9   3   84.69   12.90
   8  -9  -3  207.58   23.80
   7  -9  -3  161.78   18.70
  -7   9   3  189.98   15.80
   6  -9  -3   17.70    9.70
  -6   9   3   30.30    7.20
   5  -9  -3  338.97   24.10
  -5   9   3  332.67   19.20
   4  -9  -3  512.65   29.20
  -4   9   3  501.95   23.30
   3  -9  -3   40.10   11.40
  -3   9   3   22.20    6.80
   2  -9  -3  105.79   15.30
  -2   9   3   79.09   10.60
   1  -9  -3  141.19   15.80
  -1   9   3  166.78   12.60
   0  -9  -3  260.77   22.00
   0   9   3  248.98   15.10
  -1  -9  -3    3.10    8.30
   1   9   3    0.40    6.00
  -2  -9  -3  113.49   16.50
   2   9   3  137.89   12.60
  -3  -9  -3   76.89   17.30
   3   9   3   56.09    9.40
  10 -10  -3    7.30   13.20
 -10  10   3   -4.80    9.20
   9 -10  -3   50.69   13.60
  -9  10   3   28.40   10.50
   8 -10  -3  156.98   21.50
  -8  10   3  138.29   16.30
  -7  10   3  114.79   15.30
   6 -10  -3    4.50    9.40
  -6  10   3    2.80    7.80
   5 -10  -3  128.99   19.30
  -5  10   3  119.79   12.90
   4 -10  -3  146.19   19.20
  -4  10   3  138.19   12.40
   3 -10  -3   40.00   11.50
  -3  10   3   52.69    9.80
   2 -10  -3   17.20    9.40
  -2  10   3   23.70    7.30
  -1  10   3  103.29   12.50
   0 -10  -3  112.09   18.50
   0  10   3  132.29   12.80
  -1 -10  -3   15.30   12.00
   1  10   3    5.90    7.50
  -2 -10  -3   54.59   15.30
   2  10   3   52.59    9.50
   9 -11  -3   24.00   13.30
  -9  11   3   -9.60    8.10
   8 -11  -3   75.49   15.40
  -8  11   3  104.79   16.30
   7 -11  -3   31.70   11.90
  -7  11   3   21.50    7.70
   6 -11  -3  -26.10    8.70
  -6  11   3   -8.20    6.20
   5 -11  -3   53.89   14.20
  -5  11   3   33.50    9.70
   4 -11  -3   69.19   15.90
  -4  11   3   82.79   12.50
   3 -11  -3   43.70   13.00
   2 -11  -3    2.00   11.10
   1 -11  -3  110.29   18.70
  -1  11   3  112.79   15.30
   0 -11  -3   29.20   11.40
   0  11   3   38.70    9.90
   8 -12  -3   60.49   16.80
  -8  12   3   54.19   12.70
   7 -12  -3   40.00   13.90
  -7  12   3   46.10   11.20
   6 -12  -3   -2.40   10.90
  -6  12   3    1.30    7.10
   5 -12  -3   22.00   12.40
  -5  12   3   17.50    9.10
   4 -12  -3   86.09   17.30
  -4  12   3   63.29   12.30
   3 -12  -3   35.30   13.40
  -3  12   3   39.10   10.50
   2 -12  -3   -3.20   10.80
  -2  12   3    6.20    9.00
  -3  13  -4   97.29   13.20
   3 -13   4   74.19   15.60
  -4  13  -4   -8.10    7.50
   4 -13   4   -0.50   12.60
  -5  13  -4   60.89   11.90
   5 -13   4   50.59   14.00
  -6  13  -4   15.80    8.10
   6 -13   4   -5.80   11.80
  -7  13  -4    5.60    8.30
   7 -13   4   21.80   14.40
   0  12  -4   19.30    9.80
   0 -12   4   22.70   13.10
  -1  12  -4    2.80    7.80
   1 -12   4    7.20   11.30
  -2  12  -4   77.79   12.10
   2 -12   4   75.69   15.00
  -3  12  -4   69.69   11.30
   3 -12   4   49.50   12.20
  -4  12  -4   20.30    8.20
   4 -12   4   17.90   10.10
  -5  12  -4   24.70    8.20
   5 -12   4   16.40   10.20
  -6  12  -4   73.69   11.80
   6 -12   4   79.29   14.50
  -7  12  -4   40.90   10.10
   7 -12   4   46.20   12.20
  -8  12  -4   10.40    8.20
   8 -12   4   24.50   13.10
  -9  12  -4   19.60    9.20
   9 -12   4   28.80   15.30
   1  11  -4  146.39   15.30
  -1 -11   4  126.19   18.10
   0  11  -4   23.40    8.20
   0 -11   4   28.30   11.10
  -1  11  -4   -8.30    6.10
   1 -11   4   -2.10    8.10
   2 -11   4  146.79   15.00
  -3  11  -4   58.19   12.60
   3 -11   4   52.29    9.30
  -4  11  -4   16.40    7.00
   4 -11   4   13.50    7.80
   5 -11   4  105.19   13.90
  -6  11  -4  224.08   27.70
   6 -11   4  239.78   18.60
  -7  11  -4   39.70    9.20
   7 -11   4   39.70    9.80
  -8  11  -4   -5.30    6.40
   8 -11   4   -1.10   10.20
  -9  11  -4   31.60    9.40
   9 -11   4   33.50   13.40
 -10  11  -4   44.90   12.20
  10 -11   4   43.30   17.50
   3  10  -4    1.90    9.30
  -3 -10   4   -0.60   14.40
  -2 -10   4   57.39   13.90
   1  10  -4  104.89   12.30
  -1 -10   4  108.49   14.00
   0  10  -4   51.39    9.90
   0 -10   4   57.59   10.30
  -1  10  -4    3.30    5.90
   1 -10   4    2.50    7.40
  -2  10  -4   77.49   10.70
   2 -10   4   98.29   11.50
  -3  10  -4  271.37   16.80
   3 -10   4  310.77   18.00
  -4  10  -4   97.39   10.60
   4 -10   4  106.59   12.00
  -5  10  -4   91.49   11.50
   5 -10   4   89.89   11.20
  -6  10  -4  386.76   20.20
   6 -10   4  404.96   22.20
  -7  10  -4  105.49   11.60
   7 -10   4  141.09   15.70
  -8  10  -4   10.20    7.20
   8 -10   4    6.20    9.30
   9 -10   4  111.19   17.40
 -10  10  -4   69.69   10.70
  10 -10   4   72.69   16.60
   4   9  -4  162.08   19.20
   3   9  -4   43.70    9.60
  -3  -9   4   24.20   11.80
   2   9  -4   62.79   10.60
  -2  -9   4   67.89   12.20
   1   9  -4  314.37   17.20
  -1  -9   4  264.17   18.40
   0   9  -4  139.59   12.20
   0  -9   4  149.19   13.50
  -1   9  -4  228.88   16.10
  -1   9  -4  231.68   14.50
   1  -9   4  237.48   15.20
  -2   9  -4  210.88   13.70
  -2   9  -4  219.58   15.20
   2  -9   4  214.08   13.20
  -3   9  -4  250.57   15.60
  -3   9  -4  253.07   14.80
   3  -9   4  263.27   14.80
  -4   9  -4   55.49    8.90
  -4   9  -4   64.69    9.40
   4  -9   4   68.59    8.40
  -5   9  -4   55.39    8.30
  -5   9  -4   47.40    9.40
   5  -9   4   75.29    9.10
  -6   9  -4   90.39    9.70
   6  -9   4  104.19   11.90
  -7   9  -4  186.38   13.60
   7  -9   4  162.98   15.30
  -8   9  -4   15.20    5.60
   8  -9   4   13.40    8.70
  -9   9  -4   52.19    9.60
   9  -9   4   37.10   11.40
 -10   9  -4  151.58   15.80
  10  -9   4  162.28   20.20
  11  -9   4   37.90   17.40
   5   8  -4   36.10    9.80
  -5  -8   4   24.30   14.00
   4   8  -4   87.09   11.00
  -4  -8   4  102.69   15.70
   3   8  -4   15.40    7.10
  -3  -8   4   31.20    9.50
   2   8  -4   12.00    4.80
  -2  -8   4   28.10    8.10
   1   8  -4  201.58   12.60
  -1  -8   4  180.08   13.80
   0   8  -4  301.87   15.70
   0   8  -4  264.57   16.20
   0  -8   4  283.87   15.90
  -1   8  -4   67.69    8.00
  -1   8  -4   67.59    8.50
   1  -8   4   57.89    7.40
  -2   8  -4  174.38   11.80
  -2   8  -4  171.68   11.50
   2  -8   4  171.48   11.00
  -3   8  -4  321.77   16.00
  -3   8  -4  344.97   16.60
   3  -8   4  377.96   16.70
  -4   8  -4   87.29    8.30
  -4   8  -4   76.39    8.80
   4  -8   4   76.99    8.80
  -5   8  -4   44.00    7.90
  -5   8  -4   49.20    7.60
   5  -8   4   60.29    8.80
  -6   8  -4  116.89   13.50
  -6   8  -4  142.99   10.60
   6  -8   4  107.79   11.40
  -7   8  -4   87.29   10.20
   7  -8   4  115.19   14.30
  -8   8  -4    4.90    5.30
   8  -8   4   15.10    8.80
  -9   8  -4   64.29    9.80
   9  -8   4   67.19   14.40
 -10   8  -4   52.69    9.80
  10  -8   4   68.29   15.30
 -11   8  -4   30.60   10.80
  11  -8   4   48.90   16.50
   6   7  -4    5.70    8.20
  -6  -7   4    6.20   12.70
   5   7  -4  136.49   12.50
  -5  -7   4  106.89   17.80
   4   7  -4  191.68   12.80
  -4  -7   4  178.38   17.20
   3   7  -4   81.29    9.50
  -3  -7   4   86.99   12.10
   2   7  -4   11.80    4.50
  -2  -7   4    5.80    6.30
   1   7  -4  135.89   11.40
   1   7  -4  142.89   10.40
  -1  -7   4  160.98   11.70
   0   7  -4  312.27   14.90
   0   7  -4  294.67   15.00
   0  -7   4  337.17   15.10
  -1   7  -4   79.79    7.90
  -1   7  -4   84.59    7.10
   1  -7   4   87.29    6.90
  -2   7  -4   67.19    6.80
  -2   7  -4   74.59    7.30
   2  -7   4   74.19    6.80
  -3   7  -4  172.48   10.90
  -3   7  -4  175.88   10.20
   3  -7   4  186.38   10.40
  -4   7  -4  122.59    9.40
  -4   7  -4  137.39    9.30
   4  -7   4  139.79   10.10
  -5   7  -4   20.90    4.70
  -5   7  -4   11.40    5.40
   5  -7   4   23.40    5.50
  -6   7  -4  339.07   15.70
   6  -7   4  298.77   16.90
   6  -7   4  303.77   17.00
  -7   7  -4  167.78   11.30
  -8   7  -4    0.60    4.10
   8  -7   4    4.90    7.30
  -9   7  -4    0.60    5.70
   9  -7   4   20.40    9.50
 -10   7  -4   50.39    8.90
  10  -7   4   71.89   14.30
 -11   7  -4   68.19   11.30
  11  -7   4    5.20   14.70
   7   6  -4   83.89   12.00
   7   6  -4   91.29   18.30
   6   6  -4   -1.70    6.80
  -6  -6   4   -6.20   10.40
   5   6  -4   90.29    9.90
  -5  -6   4   93.29   14.40
   4   6  -4  163.58   11.60
  -4  -6   4  157.48   14.40
   3   6  -4   36.00    6.10
  -3  -6   4   35.50    8.70
   2   6  -4    0.50    3.30
   2   6  -4    3.40    5.20
  -2  -6   4   -1.60    3.80
   1   6  -4  339.47   15.80
  -1  -6   4  345.17   15.50
   0   6  -4  107.39    7.90
   0   6  -4  110.09    8.40
   0  -6   4  118.29    8.20
  -1   6  -4   19.10    4.00
  -1   6  -4   16.50    4.00
   1  -6   4   26.90    4.10
  -2   6  -4   56.29    5.50
  -2   6  -4   60.19    5.80
   2  -6   4   50.29    5.00
  -3   6  -4  259.57   12.50
  -3   6  -4  255.17   11.40
   3  -6   4  263.57   11.60
  -4   6  -4   95.79    7.50
  -4   6  -4  105.49    7.80
   4  -6   4  110.89    8.40
  -5   6  -4   57.19    6.00
   5  -6   4   78.19    8.80
   5  -6   4   74.69    9.20
  -6   6  -4  216.78   12.10
   6  -6   4  239.28   15.10
   6  -6   4  205.78   14.50
  -7   6  -4  167.28   10.70
   8  -6   4    4.90    7.10
  -9   6  -4    8.40    5.30
   9  -6   4   -3.60    8.80
 -10   6  -4   41.50    8.10
  10  -6   4   65.19   14.20
 -11   6  -4   18.20    9.60
  11  -6   4   36.20   15.50
   8   5  -4   68.09   17.90
   8   5  -4   58.89   11.30
   7   5  -4   82.49    9.70
   7   5  -4   77.69   17.30
   6   5  -4   -6.80    5.10
   5   5  -4  100.29    9.20
  -5  -5   4   86.29   12.50
   4   5  -4  244.28   12.70
  -4  -5   4  243.48   16.80
   3   5  -4  284.97   16.50
  -3  -5   4  315.37   17.10
   2   5  -4   49.30    6.20
   2   5  -4   34.70    6.60
  -2  -5   4   46.40    6.60
   1   5  -4  105.49    7.90
   1   5  -4  107.69    7.40
   1   5  -4  108.89    9.80
  -1  -5   4  109.19    7.50
   0   5  -4  487.25   16.20
   0   5  -4  481.95   17.50
   0  -5   4  486.55   15.80
  -1   5  -4   75.89    6.40
  -1   5  -4   78.39    6.10
   1  -5   4   77.79    4.70
   1  -5   4   69.59    5.90
  -2   5  -4  333.87   11.60
  -2   5  -4  305.97   12.70
   2  -5   4  292.47   12.50
   2  -5   4  309.57   10.70
  -3   5  -4  146.69    7.70
  -3   5  -4  140.19    8.20
   3  -5   4  150.58    8.40
   3  -5   4  143.99    7.80
  -4   5  -4   35.60    4.90
   4  -5   4   38.60    5.30
   4  -5   4   38.70    5.60
   4  -5   4   34.30    5.30
  -5   5  -4  131.59    8.20
   5  -5   4  140.49   10.30
   5  -5   4  133.89    8.10
   5  -5   4  151.78   10.10
  -6   5  -4   84.39    6.50
   6  -5   4   74.99    9.80
   6  -5   4   76.99    9.00
   6  -5   4   70.19    6.40
  -7   5  -4   56.19    6.50
   7  -5   4   61.29    6.40
   7  -5   4   60.39    9.60
  -8   5  -4  155.78   10.20
   8  -5   4  133.59   14.30
   8  -5   4  164.48    9.90
  -9   5  -4    9.40    5.50
   9  -5   4   13.70    8.20
 -10   5  -4  142.29   12.00
  10  -5   4  125.09   23.20
 -11   5  -4   28.40    9.90
  11  -5   4   31.40   13.60
   8   4  -4   15.60   14.30
   8   4  -4   21.10    8.20
   7   4  -4   87.09   15.20
   7   4  -4   85.09   10.20
   6   4  -4   25.40    6.20
   6   4  -4   34.70   10.80
   5   4  -4    1.80    3.90
  -5  -4   4    0.40    5.70
   4   4  -4  467.85   18.10
  -4  -4   4  492.65   22.50
   3   4  -4  347.07   14.20
   3   4  -4  276.77   19.20
   3   4  -4  326.67   16.30
  -3  -4   4  344.47   16.30
   2   4  -4   12.20    3.90
   2   4  -4    4.80    2.70
   2   4  -4    4.90    4.10
  -2  -4   4   10.20    3.80
   1   4  -4   18.50    3.50
   1   4  -4   14.60    4.40
   1   4  -4   13.30    3.40
  -1  -4   4   17.90    3.70
   0   4  -4  720.83   24.80
   0   4  -4  759.12   22.70
   0   4  -4  730.03   19.90
   0  -4   4  764.32   19.90
  -1   4  -4  543.85   17.60
  -1   4  -4  536.15   13.70
   1  -4   4  534.95   17.50
   1  -4   4  548.95   13.50
  -2   4  -4  131.39    7.30
   2  -4   4  136.89    7.20
   2  -4   4  131.99    5.70
  -3   4  -4 1121.69   30.10
   3  -4   4 1141.49   30.90
   3  -4   4 1075.99   29.80
   3  -4   4 1099.09   29.30
  -4   4  -4 2858.81   67.39
   4  -4   4 2791.62   66.89
   4  -4   4 2795.42   69.19
   4  -4   4 2869.51   70.29
  -5   4  -4    2.00    2.00
   5  -4   4    5.30    2.60
   5  -4   4    8.90    4.10
   5  -4   4    9.10    4.60
  -6   4  -4    4.00    2.90
   6  -4   4    9.00    5.00
   6  -4   4   13.40    3.40
   6  -4   4    0.00    5.00
  -7   4  -4  440.36   16.10
   7  -4   4  420.66   15.20
   7  -4   4  493.95   24.40
  -8   4  -4  153.68    9.30
   8  -4   4  141.89   16.10
   8  -4   4  148.29    9.10
  -9   4  -4   16.30    5.40
   9  -4   4    7.60    5.50
   9  -4   4   13.60    9.80
 -10   4  -4   12.10    6.50
  10  -4   4   10.00   12.10
  11  -4   4   57.89   15.90
   9   3  -4   16.50   15.70
   9   3  -4   -9.90    8.40
   8   3  -4   61.69    8.30
   8   3  -4   37.40   13.90
   7   3  -4   90.79   14.60
   7   3  -4   91.79    9.30
   6   3  -4   48.10    7.20
   6   3  -4   42.20   10.70
   5   3  -4   19.20    7.60
   5   3  -4   17.30    4.80
   4   3  -4  600.94   24.80
   4   3  -4  574.74   23.90
   3   3  -4  198.18   11.30
   3   3  -4  178.18   11.10
   2   3  -4    2.90    2.00
   2   3  -4    2.70    2.60
  -2  -3   4   -1.20    2.40
   1   3  -4  472.55   14.70
   1   3  -4  464.95   15.90
   1   3  -4  492.25   18.00
   0   3  -4 1465.95   37.40
   0   3  -4 1501.05   40.10
   0   3  -4 1453.05   33.40
   0   3  -4 1467.95   33.40
  -1   3  -4  487.15   15.60
  -1   3  -4  498.75   17.50
  -2   3  -4   23.80    3.40
   2  -3   4   20.00    2.70
   2  -3   4   18.50    2.70
   2  -3   4   24.60    3.60
  -3   3  -4 1144.29   28.90
   3  -3   4 1079.79   28.50
   3  -3   4 1085.99   29.90
   3  -3   4 1120.09   30.20
  -4   3  -4  710.63   20.20
   4  -3   4  736.83   24.50
   4  -3   4  722.93   23.90
   4  -3   4  719.93   20.20
  -5   3  -4  266.87    9.90
   5  -3   4  219.78   16.30
   5  -3   4  268.67   14.80
   5  -3   4  266.67    9.80
  -6   3  -4    5.90    2.20
   6  -3   4   10.30    2.70
   6  -3   4   16.10    5.80
  -7   3  -4  224.98    9.60
   7  -3   4  230.58    9.30
   7  -3   4  265.27   17.80
  -8   3  -4   75.49    6.50
   8  -3   4   76.39   13.00
   8  -3   4   80.29    5.90
  -9   3  -4    4.50    4.60
   9  -3   4    4.00    3.80
   9  -3   4    5.40    9.40
  10  -3   4   23.70   13.30
  11  -3   4  127.39   21.00
   9   2  -4    8.10    7.30
   9   2  -4   23.00   15.00
   8   2  -4   15.20   11.60
   7   2  -4   49.20   11.10
  -7  -2   4   69.59   10.60
   6   2  -4  379.86   22.20
   5   2  -4   59.89    9.30
  -5  -2   4   59.79    8.80
   4   2  -4  170.98   10.70
   4   2  -4  165.08   11.90
   4   2  -4  151.28   11.00
  -4  -2   4  164.08   11.00
   3   2  -4  565.64   21.00
   3   2  -4  559.54   20.20
  -3  -2   4  562.94   20.80
   2   2  -4  381.56   13.80
   2   2  -4  388.76   14.40
   2   2  -4  367.76   14.60
  -2  -2   4  369.06   15.50
   1   2  -4 1250.37   31.10
   1   2  -4 1288.47   31.70
   1   2  -4 1231.88   34.40
  -1  -2   4 1289.07   35.30
   0   2  -4  455.35   15.90
   0   2  -4  453.05   11.30
  -1   2  -4  573.64   16.50
  -1   2  -4  578.54   14.20
  -1   2  -4  571.24   18.10
   1  -2   4  569.44   14.30
  -2   2  -4  231.18    8.70
  -2   2  -4  208.78    7.90
  -2   2  -4  201.98    9.00
  -3   2  -4  513.35   14.60
  -3   2  -4  526.85   17.60
   3  -2   4  514.55   14.60
   3  -2   4  514.75   17.90
  -4   2  -4   57.29    7.10
  -4   2  -4   48.80    3.40
   4  -2   4   42.90    3.40
   4  -2   4   55.79    6.60
  -5   2  -4  137.39   10.40
   5  -2   4  146.89    5.80
   5  -2   4  117.89   10.80
  -6   2  -4   31.80    4.30
   6  -2   4   35.00    4.00
  -7   2  -4  329.07   10.20
   7  -2   4  351.46   12.40
   8  -2   4   70.79   13.50
   9  -2   4    1.00   10.60
  10  -2   4    8.60   12.30
  10   1  -4   58.89   16.60
   9   1  -4    7.20   12.70
  -9  -1   4    1.50    9.40
   8   1  -4   72.79   13.70
  -8  -1   4   52.09    9.80
   7   1  -4  370.26   23.70
  -7  -1   4  339.17   18.30
   6   1  -4   58.89   10.70
  -6  -1   4   70.89    9.10
   5   1  -4   16.90    5.60
   5   1  -4   16.30    4.80
  -5  -1   4   19.50    5.70
   4   1  -4    9.50    4.20
   4   1  -4   12.00    3.50
  -4  -1   4   13.90    4.00
   3   1  -4  986.00   29.30
   3   1  -4  979.00   30.20
   3   1  -4  939.01   28.30
  -3  -1   4  935.51   28.90
   2   1  -4  126.69    7.50
   2   1  -4  150.18    8.20
  -2  -1   4  128.99    8.20
   1   1  -4  141.29    6.90
   1   1  -4  149.88    7.90
  -1  -1   4  154.18    7.60
  -1  -1   4  141.39    7.90
   0   1  -4  295.37    9.70
   0   1  -4  302.37   11.10
   0  -1   4  306.47   11.60
   0  -1   4  301.67    9.80
  -1   1  -4  708.33   19.70
  -1   1  -4  703.93   19.40
   1  -1   4  680.83   20.30
   1  -1   4  731.73   20.40
  -2   1  -4   10.70    1.80
  -2   1  -4   12.90    3.30
  -2   1  -4   13.00    2.50
   2  -1   4   11.50    2.70
  -3   1  -4  180.58    6.60
  -3   1  -4  191.98   10.10
  -3   1  -4  186.78    6.10
   3  -1   4  172.48    9.90
  -4   1  -4  215.18    6.70
  -4   1  -4  222.48    6.50
  -4   1  -4  228.18   12.50
  -5   1  -4   93.69    9.30
  -6   1  -4   38.20    7.80
  -7   1  -4   95.49   12.80
  -8   1  -4  117.89   16.60
   9  -1   4   51.79   14.80
  10  -1   4   30.80   15.10
  10   0  -4   42.50   16.40
 -10   0   4   41.10   12.90
   9   0  -4   17.60   15.90
  -9   0   4   16.50    9.50
   8   0  -4  163.48   19.20
  -8   0   4  150.08   13.90
   7   0  -4  380.36   24.30
  -7   0   4  392.56   19.00
   6   0  -4   89.89   12.50
  -6   0   4  106.69   10.00
   5   0  -4   -2.10    5.30
   5   0  -4   -1.00    3.80
   5   0  -4    5.20    4.60
  -5   0   4    4.50    3.90
   4   0  -4   46.20    7.20
   4   0  -4   47.40    8.10
   4   0  -4   31.80    5.60
  -4   0   4   59.89    6.10
   3   0  -4  352.56   15.30
   3   0  -4  333.87   13.70
  -3   0   4  335.07   14.10
  -3   0   4  361.96   14.90
   2   0  -4  124.49    7.70
   2   0  -4  114.09    6.80
  -2   0   4  113.29    7.30
  -2   0   4  113.09    7.10
   1   0  -4    7.40    2.50
   1   0  -4    5.60    2.50
  -1   0   4    4.00    2.20
  -1   0   4    5.80    2.20
   0   0  -4  410.46   13.00
   0   0   4  386.36   13.70
   0   0   4  391.16   12.90
  -1   0  -4  314.07   12.30
  -1   0  -4  294.67    9.90
   1   0   4  321.57   12.50
  -2   0  -4  132.79    5.10
  -2   0  -4  120.59    8.10
   2   0   4  140.39    8.50
  -3   0  -4  206.08   11.70
   3   0   4  206.68   11.80
  -4   0  -4  494.95   20.90
   4   0   4  431.86   20.20
  -6   0  -4    3.90    5.30
  -7   0  -4  146.79   15.20
  -8   0  -4   92.09   15.40
  -9   0  -4  -11.40   10.10
  10   0   4   27.30   15.60
  10  -1  -4   73.09   17.60
 -10   1   4   91.09   13.30
   9  -1  -4   86.79   15.20
  -9   1   4   82.89   11.70
   8  -1  -4   15.40    9.10
  -8   1   4   10.10    6.20
   7  -1  -4  350.76   22.00
  -7   1   4  319.97   16.60
   6  -1  -4  245.58   17.20
  -6   1   4  232.88   13.50
   5  -1  -4   48.40    7.70
   5  -1  -4   49.00    8.00
   5  -1  -4   50.09    6.20
  -5   1   4   46.90    6.50
   4  -1  -4  284.07   15.00
   4  -1  -4  266.97   12.80
  -4   1   4  289.37   13.20
  -4   1   4  268.27   17.40
   3  -1  -4   89.89    7.80
   3  -1  -4   87.69    6.50
  -3   1   4   76.89    6.40
  -3   1   4   77.29    7.10
   2  -1  -4  142.59    7.90
   2  -1  -4  150.68    9.40
  -2   1   4  152.68    8.00
  -2   1   4  140.99    8.80
   1  -1  -4    2.50    2.40
   1  -1  -4    4.80    1.60
  -1   1   4    0.80    1.50
  -1   1   4    5.00    2.70
   0  -1  -4  164.28    7.20
   0  -1  -4  173.28    9.40
   0   1   4  178.68    9.40
   0   1   4  168.38    7.50
  -1  -1  -4  575.24   15.60
  -1  -1  -4  551.44   20.00
   1   1   4  571.84   16.70
   1   1   4  565.04   20.30
  -2  -1  -4   48.00    5.70
  -2  -1  -4   39.70    2.40
   2   1   4   43.50    2.90
   2   1   4   48.30    6.80
  -3  -1  -4   17.40    5.40
   3   1   4   16.20    4.90
  -4  -1  -4  300.57   17.10
  -5  -1  -4   69.59   10.40
  -6  -1  -4   63.99   10.70
  -7  -1  -4    0.30    6.80
  -8  -1  -4  184.78   20.00
  -9  -1  -4   29.10   12.90
  11  -2  -4   35.80   15.80
 -11   2   4    6.10   12.50
  10  -2  -4   72.29   16.10
 -10   2   4   56.19   11.40
   9  -2  -4   39.50   13.20
  -9   2   4   32.40    8.70
   8  -2  -4  167.18   17.80
  -8   2   4  165.58   13.00
   7  -2  -4   50.19    9.60
  -7   2   4   55.09    8.30
   6  -2  -4  700.83   30.20
  -6   2   4  723.03   26.30
   5  -2  -4   97.29   10.10
   5  -2  -4   96.39    7.90
  -5   2   4   91.19   12.70
  -5   2   4  110.49    8.60
   4  -2  -4  155.08   11.50
   4  -2  -4  150.08    9.10
  -4   2   4  148.49   10.60
  -4   2   4  172.18    9.80
   3  -2  -4 1641.64   46.40
   3  -2  -4 1518.45   41.70
  -3   2   4 1668.33   43.10
  -3   2   4 1549.14   45.10
   2  -2  -4  547.85   17.70
   2  -2  -4  529.65   20.60
  -2   2   4  541.75   18.00
  -2   2   4  499.15   19.90
   1  -2  -4   38.80    6.60
   1  -2  -4   28.10    4.20
  -1   2   4   23.30    3.80
  -1   2   4   28.80    5.20
   0  -2  -4 1036.60   27.00
   0  -2  -4 1050.79   32.50
   0   2   4 1050.19   27.50
   0   2   4 1024.20   32.00
  -1  -2  -4  707.43   25.30
  -1  -2  -4  727.53   19.10
   1   2   4  737.93   19.70
   1   2   4  696.13   25.50
  -2  -2  -4  725.03   17.80
  -2  -2  -4  693.43   26.50
   2   2   4  718.33   18.20
   2   2   4  721.83   26.60
  -3  -2  -4    1.40    3.40
  -4  -2  -4  454.85   22.20
  -5  -2  -4  404.36   22.80
  -6  -2  -4   -6.10    6.40
  -7  -2  -4    3.30    8.50
  -8  -2  -4   90.59   16.60
  -9  -2  -4   49.99   15.70
  11  -3  -4   28.70   16.20
 -11   3   4   31.00   11.90
  10  -3  -4    2.90   13.80
 -10   3   4   25.90    9.90
   9  -3  -4   55.89   13.10
  -9   3   4   61.39    9.60
   8  -3  -4   21.10    9.20
  -8   3   4   23.30    6.70
   7  -3  -4   60.69   11.80
  -7   3   4   44.10    7.50
   6  -3  -4  292.87   17.80
  -6   3   4  288.37   17.30
   5  -3  -4   71.39   10.40
  -5   3   4   69.09    7.10
   4  -3  -4   -4.90    2.60
   4  -3  -4    0.10    2.40
  -4   3   4   -2.90    3.60
  -4   3   4    0.70    2.20
   3  -3  -4  365.16   17.80
  -3   3   4  373.56   15.40
   2  -3  -4 1447.46   42.90
   2  -3  -4 1426.66   37.50
  -2   3   4 1345.27   41.90
  -2   3   4 1405.16   38.00
   1  -3  -4    0.10    1.80
   1  -3  -4    1.60    2.60
  -1   3   4    4.50    2.20
  -1   3   4   -5.00    3.00
   0  -3  -4  572.64   22.40
   0  -3  -4  519.75   16.20
   0   3   4  509.45   16.50
  -1  -3  -4  632.74   24.90
  -1  -3  -4  612.34   17.30
   1   3   4  608.14   17.70
   1   3   4  587.84   24.40
  -2  -3  -4  630.34   26.50
  -2  -3  -4  670.63   17.50
   2   3   4  697.63   20.60
  -3  -3  -4   -1.10    3.50
  -4  -3  -4  160.18   14.10
  -5  -3  -4  202.28   17.10
  -6  -3  -4   68.39   12.40
  -7  -3  -4   79.89   14.90
  -8  -3  -4   35.70   14.40
  11  -4  -4    7.90   13.80
  10  -4  -4   45.20   13.90
 -10   4   4   76.29   11.90
   9  -4  -4  112.39   16.10
  -9   4   4   96.29   12.60
   8  -4  -4    6.90    7.30
  -8   4   4   14.60    6.40
   7  -4  -4   38.70    8.80
  -7   4   4   40.30    7.60
   6  -4  -4  212.48   16.30
  -6   4   4  205.58   12.60
   5  -4  -4  182.58   15.50
  -5   4   4  168.58   11.70
   4  -4  -4    8.10    4.70
  -4   4   4   13.30    7.10
  -4   4   4    9.50    3.80
   3  -4  -4  101.39   10.00
   3  -4  -4   85.29    6.80
  -3   4   4   95.99    7.30
  -3   4   4   96.99   10.10
   2  -4  -4  764.52   29.10
  -2   4   4  750.72   24.00
  -2   4   4  725.93   28.00
   1  -4  -4   71.49    5.60
   1  -4  -4   73.19   10.20
  -1   4   4   69.19    5.70
  -1   4   4   66.99    9.70
   0  -4  -4  218.18   14.00
   0  -4  -4  210.98    9.10
   0   4   4  184.88   13.20
   0   4   4  193.88    9.40
  -1  -4  -4  622.54   18.60
  -1  -4  -4  649.14   27.00
   1   4   4  634.04   19.20
  -2  -4  -4  257.37    9.40
  -2  -4  -4  257.17   16.80
   2   4   4  288.97   10.30
  -3  -4  -4   17.60    5.80
  -4  -4  -4  110.79   12.90
  -5  -4  -4  147.09   16.40
  -6  -4  -4   13.20    9.70
  -7  -4  -4    3.50   11.20
  11  -5  -4   13.90   13.60
 -11   5   4  -14.10    9.20
  10  -5  -4   99.69   17.90
 -10   5   4  100.19   13.30
   9  -5  -4   54.09   13.40
  -9   5   4   50.59    9.10
   8  -5  -4   47.60   10.80
  -8   5   4   28.40    6.50
   7  -5  -4   63.99   11.70
  -7   5   4   57.09    9.00
   6  -5  -4  315.77   20.10
  -6   5   4  310.27   16.60
   5  -5  -4  120.79   11.70
  -5   5   4  132.19   10.20
   4  -5  -4    4.80    3.90
  -4   5   4   10.90    3.60
   3  -5  -4  411.36   21.40
  -3   5   4  481.05   18.70
   2  -5  -4  341.87   14.20
   2  -5  -4  380.56   19.80
  -2   5   4  346.27   15.10
   1  -5  -4  122.09    7.60
   1  -5  -4  114.09   11.20
  -1   5   4  123.79    8.10
   0  -5  -4    8.00    5.10
   0  -5  -4    5.10    2.60
   0   5   4    7.40    3.00
  -1  -5  -4  325.87   19.50
  -1  -5  -4  297.47   11.80
   1   5   4  297.57   12.40
  -2  -5  -4  135.29   12.90
  -2  -5  -4  123.79    6.80
   2   5   4  127.69    7.40
  -3  -5  -4   15.80    7.10
   3   5   4   20.70    3.60
  -4  -5  -4   38.10   10.40
  -5  -5  -4   79.29   17.80
  -6  -5  -4   15.50   11.00
  -7  -5  -4   28.00   13.80
  11  -6  -4  -29.70   11.70
 -11   6   4    4.70   10.20
  10  -6  -4  117.49   19.90
   9  -6  -4  167.68   19.60
  -9   6   4  156.18   15.20
   8  -6  -4   28.80   10.10
  -8   6   4   25.20    6.60
   7  -6  -4   53.49   11.80
  -7   6   4   38.70    7.20
   6  -6  -4  187.08   16.00
  -6   6   4  180.88   12.90
   5  -6  -4  425.66   23.90
  -5   6   4  390.66   18.90
   4  -6  -4   15.10    5.00
  -4   6   4   13.30    4.40
   3  -6  -4  157.58   13.90
   2  -6  -4  103.39   13.70
  -2   6   4   81.99    7.60
   1  -6  -4  109.79   11.60
   1  -6  -4  114.49    9.50
  -1   6   4  131.79    8.90
   0  -6  -4   40.10    8.90
   0  -6  -4   35.40    5.60
   0   6   4   42.30    6.50
  -1  -6  -4  152.28    8.70
  -1  -6  -4  151.08   14.60
   1   6   4  157.48    9.60
  -2  -6  -4    7.10    6.20
  -2  -6  -4    9.30    4.30
   2   6   4   15.90    4.20
  -3  -6  -4   36.10    9.50
   3   6   4   16.90    4.40
   4   6   4   63.69    7.20
  -5  -6  -4  277.17   24.00
  -6  -6  -4   22.70   12.90
  11  -7  -4   13.60   14.00
 -11   7   4   -9.10    9.60
  10  -7  -4   88.39   19.00
 -10   7   4   80.49   13.40
   9  -7  -4  175.78   29.50
  -9   7   4  205.48   16.20
   8  -7  -4   90.49   16.30
  -8   7   4   63.29   10.80
   7  -7  -4   -5.30    6.80
  -7   7   4    6.40    4.90
   6  -7  -4  112.89   15.80
  -6   7   4   98.39   10.50
   5  -7  -4    1.10    5.60
  -5   7   4   -0.60    3.50
   4  -7  -4   24.70    7.50
  -4   7   4   16.10    5.70
   3  -7  -4   56.59   11.70
  -3   7   4   55.59    8.80
   2  -7  -4  153.98   14.40
  -2   7   4  159.28   10.70
   1  -7  -4  218.28   17.40
  -1   7   4  214.68   13.90
   0  -7  -4    4.30    5.00
   0   7   4    0.70    3.50
  -1  -7  -4  133.99   15.20
   1   7   4  139.19    9.60
  -2  -7  -4  141.69   10.60
  -2  -7  -4  148.59   17.00
   2   7   4  153.28   10.20
  -3  -7  -4   75.79   15.70
   3   7   4   75.79    7.60
  -4  -7  -4   -0.80    9.90
   4   7   4    5.70    4.80
  -5  -7  -4   45.80   13.50
  11  -8  -4   22.20   16.10
 -11   8   4   32.30   12.90
  10  -8  -4    6.90   13.90
 -10   8   4    1.60    8.70
   9  -8  -4  101.49   17.40
  -9   8   4  159.98   16.50
   8  -8  -4   84.79   14.70
  -8   8   4   97.79   13.60
   7  -8  -4   19.00    8.10
  -7   8   4   15.00    5.90
   6  -8  -4  158.28   20.30
  -6   8   4  165.78   13.50
   5  -8  -4  584.94   30.40
  -5   8   4  555.24   25.00
   4  -8  -4    4.60    7.00
  -4   8   4   20.10    5.60
   3  -8  -4   65.79   13.20
  -3   8   4   52.99    7.90
   2  -8  -4  535.95   29.70
  -2   8   4  586.34   23.80
   1  -8  -4  237.08   19.50
  -1   8   4  265.77   14.80
   0  -8  -4    0.10    6.60
   0   8   4   12.30    5.30
  -1  -8  -4   51.59   11.90
   1   8   4   45.70    7.40
  -2  -8  -4  216.28   21.10
  -3  -8  -4   38.40   13.50
   3   8   4   22.10    7.20
  -4  -8  -4   29.00   13.70
  10  -9  -4    0.30   11.30
 -10   9   4    7.40    9.40
   9  -9  -4   43.50   15.10
  -9   9   4   58.29   11.50
   8  -9  -4   75.99   15.70
  -8   9   4   72.09   12.00
   7  -9  -4    6.60    9.10
  -7   9   4    7.00    6.70
   6  -9  -4   68.39   13.90
  -6   9   4   54.09    9.60
   5  -9  -4  302.57   23.00
  -5   9   4  270.37   17.80
   4  -9  -4  165.08   17.20
  -4   9   4  139.59   13.00
   3  -9  -4   21.80    7.70
  -3   9   4   12.90    5.80
   2  -9  -4  223.58   19.70
  -2   9   4  171.28   14.20
   1  -9  -4  130.19   18.60
  -1   9   4  134.19   11.60
   0   9   4   48.40    8.60
  -1  -9  -4   45.60   13.80
   1   9   4   71.09    9.90
  -2  -9  -4  234.88   24.50
   2   9   4  235.18   15.10
  -3  -9  -4   35.70   14.30
  10 -10  -4   -5.10   11.80
 -10  10   4    2.10    9.30
   9 -10  -4   50.49   16.50
  -9  10   4   44.00   11.80
   8 -10  -4   21.10   11.90
  -8  10   4   26.90    9.70
   7 -10  -4    9.90   11.20
  -7  10   4    5.80    7.20
   6 -10  -4   61.09   15.30
  -6  10   4   64.29   11.80
  -5  10   4   87.19   15.40
   4 -10  -4  108.79   22.50
  -4  10   4  104.29   11.30
  -3  10   4   33.30    9.30
   2 -10  -4   50.09   12.80
  -2  10   4   69.99   11.10
   1 -10  -4  202.58   21.70
  -1  10   4  153.78   14.00
   0 -10  -4   71.89   16.70
   0  10   4   58.89    9.60
  -1 -10  -4   29.10   12.90
   1  10   4    1.90    7.90
   9 -11  -4   56.59   15.90
  -9  11   4   15.20    9.60
   8 -11  -4   78.79   17.10
  -8  11   4   68.89   13.20
   7 -11  -4    5.10   10.50
  -7  11   4   -1.90    7.20
   6 -11  -4   23.40   11.60
  -6  11   4   25.50    8.90
   5 -11  -4  115.89   19.10
  -5  11   4   91.59   13.40
   4 -11  -4   52.89   13.30
  -4  11   4   52.59   10.40
   3 -11  -4    9.60    9.70
  -3  11   4   -3.30    7.00
   2 -11  -4   41.90   13.70
  -2  11   4   42.20    9.80
   1 -11  -4  135.19   20.10
   7 -12  -4   40.10   14.80
  -7  12   4   12.70   10.90
   6 -12  -4   10.40   13.60
  -6  12   4   15.70    9.50
   5 -12  -4   75.99   18.50
  -5  12   4   67.09   12.60
   4 -12  -4   79.49   17.30
  -4  12   4   79.49   15.20
   3 -12  -4   13.30   12.80
  -3  13  -5   -6.70    7.80
   3 -13   5    0.00   12.10
  -4  13  -5   24.50    9.10
   4 -13   5   24.00   13.20
  -5  13  -5  101.39   14.20
   5 -13   5   74.89   15.40
  -6  13  -5    2.50    7.40
   6 -13   5  -13.60   12.40
  -7  13  -5    3.40    7.50
   7 -13   5   -6.60   13.20
   0  12  -5   17.80    9.00
   0 -12   5   17.20   14.20
  -1  12  -5   44.20   10.30
   1 -12   5  103.69   15.10
  -2  12  -5  228.38   18.10
   2 -12   5  238.88   20.00
  -3  12  -5    6.10    7.20
   3 -12   5    2.50    9.80
  -4  12  -5  107.09   13.70
   4 -12   5   94.29   13.80
  -5  12  -5   43.10    9.10
   5 -12   5   45.40   11.80
  -6  12  -5   25.90    8.70
   6 -12   5    6.10    9.40
  -7  12  -5   -1.50    7.20
   7 -12   5  -12.70    9.40
  -8  12  -5   45.60   10.70
   8 -12   5   38.80   13.50
  -9  12  -5   36.00   10.50
   9 -12   5   48.40   16.50
   1  11  -5   18.00   10.00
  -1 -11   5  -14.70   11.50
   0  11  -5   -5.80    7.00
   0 -11   5   -3.00    9.00
  -1  11  -5   66.89   10.50
   1 -11   5   69.69   12.00
  -2  11  -5  118.99   12.90
   2 -11   5  120.89   13.70
  -3  11  -5  160.68   20.00
   3 -11   5  173.38   14.90
  -4  11  -5   48.00   14.60
   4 -11   5   49.40    9.10
  -5  11  -5  181.98   18.40
   5 -11   5  167.08   15.40
  -6  11  -5  156.98   14.60
   6 -11   5  178.68   17.60
  -7  11  -5   -4.00    5.90
   7 -11   5    5.60    8.30
  -8  11  -5  113.69   14.20
   8 -11   5  126.19   16.80
  -9  11  -5   67.69   11.30
   9 -11   5   66.69   16.00
 -10  11  -5   18.00    9.90
  10 -11   5   21.40   17.30
   3  10  -5   -6.10    9.40
  -3 -10   5    4.20   13.20
   2  10  -5  145.49   15.80
  -2 -10   5  128.39   17.40
  -1 -10   5   40.80   10.40
   0  10  -5    9.70    5.80
   0 -10   5   16.40    9.40
  -1  10  -5  156.08   13.70
   1 -10   5  148.89   13.70
  -2  10  -5  137.69   14.20
  -2  10  -5  123.49   11.90
   2 -10   5  128.49   12.30
  -3  10  -5    0.30    8.20
  -3  10  -5   -4.70    4.60
   3 -10   5   -5.20    5.50
  -4  10  -5   -8.80    7.30
  -4  10  -5   -4.20    4.40
   4 -10   5   -5.10    5.40
  -5  10  -5  303.07   18.80
  -5  10  -5  324.87   18.40
   5 -10   5  323.27   17.80
  -6  10  -5  107.19   11.30
   6 -10   5  107.29   12.40
  -7  10  -5    1.30    5.70
   7 -10   5   21.30    8.40
  -8  10  -5   19.70    7.40
   8 -10   5   37.20   10.10
   9 -10   5  190.58   21.70
 -10  10  -5   18.60    9.50
  10 -10   5   32.80   14.70
   4   9  -5   13.40    9.40
  -4  -9   5    7.80   14.60
   3   9  -5   -4.50    7.30
  -3  -9   5    2.10   11.60
   2   9  -5   80.39   10.70
  -2  -9   5   87.89   11.90
   1   9  -5  129.09   11.50
   0   9  -5   -1.40    7.60
   0   9  -5   -2.40    5.10
   0  -9   5    2.90    5.90
  -1   9  -5   66.39    9.50
   1  -9   5   61.49    8.20
  -2   9  -5  101.89   10.10
  -2   9  -5   84.29   10.10
   2  -9   5   94.99    9.20
  -3   9  -5  200.38   13.50
  -3   9  -5  191.28   12.70
   3  -9   5  202.18   12.50
  -4   9  -5    9.60    4.50
  -4   9  -5   -1.10    5.50
   4  -9   5    1.00    5.10
  -5   9  -5  112.99   10.90
  -5   9  -5  128.49   14.60
   5  -9   5  145.99   12.00
  -6   9  -5  200.68   13.70
   6  -9   5  204.38   15.30
  -7   9  -5   44.30    8.60
   7  -9   5   59.29   14.30
  -8   9  -5   30.10    7.80
   8  -9   5   33.40   10.60
  -9   9  -5  117.59   13.60
   9  -9   5  124.59   16.20
 -10   9  -5   94.09   12.40
  10  -9   5   94.99   18.10
  -5  -8   5   80.09   20.60
   4   8  -5   75.09   11.40
  -4  -8   5   43.00   13.20
   3   8  -5    3.00    6.20
  -3  -8   5   -7.40    7.40
   2   8  -5   61.29    9.30
  -2  -8   5   47.20   10.60
   1   8  -5  560.04   24.30
   1   8  -5  558.74   23.30
  -1  -8   5  555.14   23.40
   0   8  -5   20.70    4.90
   0   8  -5   23.40    6.70
   0  -8   5   20.70    5.40
  -1   8  -5   59.69    7.60
  -1   8  -5   76.89    9.10
   1  -8   5   66.79    7.60
  -2   8  -5  237.28   13.90
  -2   8  -5  240.98   12.60
   2  -8   5  249.78   12.40
  -3   8  -5  262.67   12.90
  -3   8  -5  280.07   15.00
   3  -8   5  277.47   12.90
  -4   8  -5    9.50    5.30
  -4   8  -5   21.30    5.30
   4  -8   5   11.30    4.70
  -5   8  -5   99.09   10.00
  -5   8  -5  101.29    9.10
   5  -8   5  105.19    9.60
  -6   8  -5  120.19   10.50
   6  -8   5  135.39   12.30
   6  -8   5  122.29   11.30
  -7   8  -5   83.39    8.90
   7  -8   5   82.99   12.40
  -8   8  -5    6.00    5.30
   8  -8   5   10.80    7.90
  -9   8  -5  159.88   13.80
   9  -8   5  173.38   18.90
 -10   8  -5   49.60   10.60
  10  -8   5   66.39   16.10
 -11   8  -5  -17.70    9.80
  11  -8   5  -20.80   14.30
   6   7  -5   61.99   16.60
   6   7  -5   64.59   11.10
   5   7  -5  170.18   14.10
  -5  -7   5  131.29   17.50
   4   7  -5   19.70    7.40
  -4  -7   5   37.40    9.80
   3   7  -5    3.10    4.40
  -3  -7   5    0.40    6.40
   2   7  -5  202.88   12.50
   2   7  -5  173.98   16.10
  -2  -7   5  203.18   14.10
   1   7  -5  235.18   13.20
   1   7  -5  203.68   13.40
  -1  -7   5  230.58   13.00
   0   7  -5   72.19    8.30
   0   7  -5   65.89    7.70
   0  -7   5   60.79    6.90
  -1   7  -5  105.79    8.60
  -1   7  -5   82.49    7.30
   1  -7   5   95.89    7.20
  -2   7  -5  885.41   28.80
  -2   7  -5  813.02   24.50
   2  -7   5  872.41   24.60
  -3   7  -5  172.48    9.30
  -3   7  -5  197.78   11.60
   3  -7   5  191.18    9.70
  -4   7  -5    0.20    3.80
  -4   7  -5   -0.60    3.10
   4  -7   5    4.30    3.50
  -5   7  -5   18.20    4.80
   5  -7   5   13.10    5.30
   5  -7   5   13.30    5.50
  -6   7  -5  233.58   13.30
   6  -7   5  227.88   14.50
   6  -7   5  220.68   14.70
  -7   7  -5    2.70    4.30
   7  -7   5    7.80    5.60
  -8   7  -5   15.20    5.90
   8  -7   5   21.10    9.20
  -9   7  -5   56.09    8.00
   9  -7   5   41.00   11.50
 -10   7  -5   94.89   11.60
  10  -7   5  100.59   17.60
 -11   7  -5    9.50   11.10
  11  -7   5   17.60   15.50
   7   6  -5   10.10   15.00
   7   6  -5    8.70    9.20
   6   6  -5   32.60   12.90
   6   6  -5   40.80    8.60
   5   6  -5  254.17   14.80
   4   6  -5   93.29    9.80
  -4  -6   5   66.49   10.50
   3   6  -5   50.79    7.30
  -3  -6   5   64.69    9.90
   2   6  -5  224.48   12.50
   2   6  -5  194.88   14.60
  -2  -6   5  200.18   13.00
   1   6  -5  289.27   13.90
   1   6  -5  262.27   13.30
  -1  -6   5  273.87   13.00
   0   6  -5  363.16   14.00
   0   6  -5  389.06   18.00
   0  -6   5  375.06   13.90
  -1   6  -5  191.38   10.90
   1  -6   5  223.08    8.70
  -2   6  -5  250.57    9.30
  -2   6  -5  255.37   12.60
   2  -6   5  273.67    9.50
  -3   6  -5  222.78   11.40
  -4   6  -5   44.50    5.80
   4  -6   5   54.89    6.30
   4  -6   5   49.90    5.90
  -5   6  -5  250.97   12.40
   5  -6   5  239.18   13.50
   5  -6   5  240.28   13.10
  -6   6  -5    5.00    3.30
   6  -6   5   10.20    6.00
   6  -6   5    3.10    4.90
  -7   6  -5    4.80    4.30
   8  -6   5   10.50    7.50
  -9   6  -5   25.10    7.00
   9  -6   5   18.20   10.90
 -10   6  -5   71.59    9.70
  10  -6   5   67.89   14.70
 -11   6  -5    4.70   15.60
  11  -6   5    0.10   13.90
   7   5  -5   12.90    7.60
   7   5  -5    4.40   13.40
   6   5  -5   24.70   10.80
   6   5  -5   44.70    8.30
   5   5  -5   86.89   12.80
   5   5  -5   96.99    9.70
   4   5  -5  386.16   17.40
   3   5  -5    5.80    3.40
   3   5  -5   -4.40    5.90
  -3  -5   5   -0.80    4.50
   2   5  -5   86.79    9.30
   2   5  -5   83.29    8.30
  -2  -5   5   79.19    7.90
   1   5  -5  275.87   12.90
   1   5  -5  261.47   11.60
  -1  -5   5  266.87   11.70
   0   5  -5  223.48   11.10
   0  -5   5  205.18    8.30
  -1   5  -5   44.50    6.00
  -2   5  -5  150.08    8.60
   2  -5   5  139.29    8.50
  -3   5  -5  286.27   12.50
   3  -5   5  281.67   12.40
   3  -5   5  311.57   12.70
   3  -5   5  290.57   11.00
  -4   5  -5  456.15   16.70
   4  -5   5  460.15   16.40
   4  -5   5  423.66   16.10
   4  -5   5  449.76   16.80
  -5   5  -5  269.57   12.30
   5  -5   5  287.37   12.50
   5  -5   5  270.47   14.20
   5  -5   5  280.97   14.40
  -6   5  -5  981.70   28.50
   6  -5   5  904.31   32.20
   6  -5   5  986.60   33.90
   6  -5   5  898.01   27.40
  -7   5  -5  138.29    9.10
   7  -5   5  120.49    8.70
   7  -5   5  136.59   13.70
  -8   5  -5   -3.60    3.90
   8  -5   5   -6.40    4.90
   8  -5   5   -3.70    7.40
  -9   5  -5  100.09    9.80
   9  -5   5   98.59   15.00
   9  -5   5   75.69    7.90
 -10   5  -5   54.39    8.70
  11  -5   5   -0.20   14.10
   8   4  -5   76.59   10.20
   8   4  -5   72.39   17.70
   7   4  -5   30.30   12.50
   7   4  -5   23.60    8.20
   6   4  -5   20.00    9.00
   6   4  -5   37.40    7.40
   5   4  -5  200.68   11.80
   5   4  -5  192.18   16.50
   4   4  -5   74.39    7.10
   4   4  -5   54.79    9.50
   3   4  -5   33.20    5.80
   2   4  -5   63.59    6.10
   2   4  -5   61.09    6.50
   1   4  -5  723.63   22.80
   1   4  -5  690.33   20.50
   1   4  -5  708.33   25.30
   0   4  -5  158.78   10.40
   0   4  -5  148.19    5.50
   0   4  -5  147.49    5.50
   0   4  -5  147.59    8.30
  -1   4  -5   66.19    5.50
  -2   4  -5  232.58   10.30
   2  -4   5  218.48   10.10
  -3   4  -5  657.33   20.20
   3  -4   5  649.24   19.00
   3  -4   5  636.84   20.00
  -4   4  -5   31.10    4.40
   4  -4   5   38.70    5.80
   4  -4   5   42.90    5.10
   4  -4   5   40.60    5.50
  -5   4  -5   -2.10    1.90
   5  -4   5    0.70    2.80
   5  -4   5   -1.70    3.10
   5  -4   5    1.80    4.00
  -6   4  -5  371.46   13.70
   6  -4   5  359.36   13.30
   6  -4   5  383.46   22.00
   6  -4   5  375.56   19.00
  -7   4  -5  407.96   14.80
   7  -4   5  386.56   14.00
   7  -4   5  389.16   21.60
  -8   4  -5   29.80    4.70
   8  -4   5   28.60    5.10
   8  -4   5   34.70    8.40
  -9   4  -5   59.39    6.60
   9  -4   5   50.29    5.90
   9  -4   5   55.19   13.00
 -10   4  -5   56.49    7.90
  10  -4   5   49.90   14.00
  11  -4   5   13.10   16.00
   9   3  -5   -0.80    9.50
   9   3  -5  -10.80   15.90
   8   3  -5   41.20    8.70
   8   3  -5   77.09   16.90
   7   3  -5  101.59   10.00
   7   3  -5   92.09   16.00
   6   3  -5   54.09   11.00
   5   3  -5    5.70    5.50
  -5  -3   5   12.00    5.80
   4   3  -5  306.47   16.00
   4   3  -5  295.67   16.50
  -4  -3   5  300.37   18.50
   3   3  -5   42.40    6.00
   3   3  -5   40.20    6.30
  -3  -3   5   38.00    7.00
   2   3  -5  181.58    9.60
   2   3  -5  191.48   11.20
   2   3  -5  193.58   10.10
  -2  -3   5  217.18   12.40
   1   3  -5  317.77   11.10
   1   3  -5  308.47   15.70
   1   3  -5  313.17   12.60
   0   3  -5  801.32   26.40
   0   3  -5  859.91   24.50
  -1   3  -5  126.89    7.00
  -1   3  -5  114.59    8.10
  -2   3  -5  393.66   13.40
   2  -3   5  390.96   11.60
   2  -3   5  389.16   11.50
  -3   3  -5  348.87   12.20
   3  -3   5  347.17   12.90
  -4   3  -5   75.79    4.80
   4  -3   5   64.49    6.90
   4  -3   5   61.29    4.90
  -5   3  -5    5.30    2.30
   5  -3   5    4.10    2.40
   5  -3   5    1.10    4.70
  -6   3  -5  141.79    7.00
   6  -3   5  126.39    6.70
   6  -3   5  136.79   12.90
  -7   3  -5  354.46   12.10
   7  -3   5  381.36   22.50
   7  -3   5  370.76   11.90
  -8   3  -5   26.60    5.80
   8  -3   5   23.00    9.10
   9  -3   5   10.70    9.70
  10  -3   5  115.19   18.20
   9   2  -5   12.80    7.70
   9   2  -5   30.30   15.40
   8   2  -5   93.69   15.80
  -8  -2   5   68.79   12.70
   7   2  -5   88.09   15.00
  -7  -2   5   98.59   12.30
   6   2  -5   44.30    8.90
  -6  -2   5   41.80    8.10
   5   2  -5  126.89   11.90
  -5  -2   5  104.89   13.10
   4   2  -5  311.57   16.10
   4   2  -5  324.17   16.90
  -4  -2   5  353.16   16.70
   3   2  -5  260.37   13.20
   3   2  -5  266.97   12.60
   3   2  -5  258.37   13.00
  -3  -2   5  268.77   13.80
   2   2  -5    3.90    3.50
   2   2  -5    4.60    2.50
   2   2  -5    2.60    2.60
  -2  -2   5    4.80    3.60
   1   2  -5  548.85   16.60
   1   2  -5  558.84   19.50
   1   2  -5  593.04   18.70
  -1  -2   5  560.54   20.20
   0   2  -5  711.63   22.90
   0   2  -5  743.03   18.50
   0  -2   5  746.33   18.40
   0  -2   5  754.12   23.90
  -1   2  -5  232.48   10.60
  -1   2  -5  235.88    7.80
  -1   2  -5  248.78    9.50
   1  -2   5  240.18    8.10
  -2   2  -5  263.37   11.10
  -2   2  -5  283.17   10.00
   2  -2   5  278.67   10.70
  -3   2  -5  562.04   18.70
  -3   2  -5  527.95   16.90
  -3   2  -5  534.85   15.70
   3  -2   5  568.54   19.30
  -4   2  -5   98.39    4.90
  -4   2  -5   95.99    8.00
  -4   2  -5   99.59    6.10
   4  -2   5  101.79    8.50
  -5   2  -5   10.80    4.80
  -5   2  -5    4.20    2.70
   5  -2   5   -2.50    4.60
  -6   2  -5  210.68   14.80
  -6   2  -5  210.68    9.00
  -6   2  -5  227.28    7.40
  -7   2  -5  167.28   13.80
   8  -2   5   35.60   11.00
  10  -2   5   63.59   18.10
  10   1  -5   60.49   17.20
 -10  -1   5   13.60   14.20
   9   1  -5   -2.80   12.30
  -9  -1   5    9.70   11.70
   8   1  -5  163.68   19.60
  -8  -1   5  144.49   14.50
   7   1  -5   99.99   13.70
  -7  -1   5  108.59   11.50
   6   1  -5   19.80    7.20
  -6  -1   5   18.30    7.30
   5   1  -5  120.59   11.40
  -5  -1   5  133.79   10.60
   4   1  -5  487.85   19.50
   4   1  -5  527.55   21.60
   4   1  -5  487.45   22.80
  -4  -1   5  520.85   20.60
   3   1  -5  523.55   20.00
   3   1  -5  517.65   19.40
   3   1  -5  528.85   19.50
  -3  -1   5  557.14   20.50
   2   1  -5   44.20    5.70
   2   1  -5   38.50    5.30
  -2  -1   5   33.40    5.40
  -2  -1   5   29.60    4.90
   1   1  -5  479.75   17.10
  -1  -1   5  493.25   17.60
  -1  -1   5  481.55   15.40
   0   1  -5  733.83   20.40
   0   1  -5  723.73   21.80
   0  -1   5  712.93   22.30
  -1   1  -5  217.18   10.00
  -1   1  -5  214.08    9.10
   1  -1   5  217.98    9.70
   1  -1   5  211.38    9.10
  -2   1  -5  144.59    6.20
  -2   1  -5  153.68    8.40
  -2   1  -5  146.49    6.90
   2  -1   5  137.29    8.30
  -3   1  -5  297.47    9.90
  -3   1  -5  297.67   13.70
  -3   1  -5  292.27    9.70
   3  -1   5  294.67   14.10
  -4   1  -5  356.36    9.60
  -4   1  -5  349.07   16.60
  -4   1  -5  344.67   10.00
   4  -1   5  342.27   17.40
  -5   1  -5   12.20    5.40
  -6   1  -5  125.39   12.50
  -7   1  -5  206.78   17.10
  -8   1  -5    6.60    8.10
  10  -1   5   28.80   16.20
  10   0  -5   36.50   16.30
 -10   0   5   47.10   14.20
   9   0  -5    9.80   11.40
  -9   0   5   -1.70    8.80
   8   0  -5  110.39   15.00
  -8   0   5  138.19   13.60
   7   0  -5  340.97   22.70
  -7   0   5  380.56   19.00
   6   0  -5   32.50    8.90
  -6   0   5   41.30    7.60
   5   0  -5  109.99   10.80
  -5   0   5  113.09    9.40
   4   0  -5  557.84   21.20
   4   0  -5  595.44   23.90
  -4   0   5  632.14   22.40
   3   0  -5  645.74   22.20
   3   0  -5  664.73   23.50
  -3   0   5  684.03   23.10
  -3   0   5  658.83   22.80
   2   0  -5   27.90    4.50
   2   0  -5   30.90    5.30
  -2   0   5   26.30    4.50
  -2   0   5   24.00    4.00
   1   0  -5   46.30    4.80
   1   0  -5   54.49    5.50
  -1   0   5   45.70    4.90
  -1   0   5   53.69    6.10
   0   0  -5  663.43   20.80
   0   0  -5  636.34   19.40
   0   0   5  639.84   20.60
   0   0   5  652.93   19.90
  -1   0  -5  238.68   11.20
  -1   0  -5  235.18    9.20
   1   0   5  247.08   11.50
  -2   0  -5  191.68    7.30
  -2   0  -5  188.88   10.60
   2   0   5  191.08   11.00
  -3   0  -5  215.28    6.30
  -3   0  -5  207.68    6.50
  -3   0  -5  225.38   12.70
  -4   0  -5   38.80    7.90
   4   0   5   13.20    6.20
  -5   0  -5    4.70    4.60
  -6   0  -5   58.39   10.20
  -7   0  -5   23.90    9.30
  -9   0  -5    3.90    9.80
  10  -1  -5   55.29   15.20
 -10   1   5   33.70   13.10
   9  -1  -5   49.90   23.10
  -9   1   5   12.50    8.90
   8  -1  -5  147.69   17.60
  -8   1   5  125.19   12.90
   7  -1  -5   77.39   13.10
  -7   1   5  104.49   10.90
   6  -1  -5  296.87   18.90
  -6   1   5  268.77   15.20
   5  -1  -5   74.99   10.70
  -5   1   5   47.10    7.40
   4  -1  -5  581.04   21.40
   4  -1  -5  653.03   24.90
  -4   1   5  603.44   23.40
  -4   1   5  609.44   22.30
   3  -1  -5  721.53   23.70
   3  -1  -5  727.33   25.80
  -3   1   5  683.63   24.70
  -3   1   5  750.22   24.40
   2  -1  -5   13.00    3.00
   2  -1  -5   11.90    3.70
  -2   1   5   15.80    4.30
  -2   1   5   12.40    3.30
   1  -1  -5  559.54   18.40
   1  -1  -5  552.74   20.20
  -1   1   5  556.34   20.30
  -1   1   5  590.44   18.80
   0  -1  -5  706.43   23.80
   0  -1  -5  697.53   20.50
   0   1   5  711.13   20.90
   0   1   5  670.23   23.40
  -1  -1  -5  356.96   11.80
  -1  -1  -5  367.86   16.00
   1   1   5  364.26   12.10
   1   1   5  355.06   16.10
  -2  -1  -5   48.80    7.30
   2   1   5   68.09    9.70
   2   1   5   45.80    3.50
  -3  -1  -5  818.42   29.50
   3   1   5  763.62   29.30
  -4  -1  -5  257.17   19.70
  -5  -1  -5    8.80    5.50
  -6  -1  -5   40.00   10.10
  -7  -1  -5  238.38   20.60
  -8  -1  -5   38.30   12.40
  -9  -1  -5    6.70   11.80
  11  -2  -5   65.09   19.80
 -11   2   5   37.70   15.20
  10  -2  -5   39.10   15.80
 -10   2   5   58.39   12.20
   9  -2  -5    4.10   10.70
  -9   2   5   -3.20    6.80
   8  -2  -5  123.49   17.30
  -8   2   5  161.88   12.60
   7  -2  -5  135.39   14.70
  -7   2   5  149.49   11.90
   6  -2  -5   73.89   10.70
  -6   2   5   63.69    8.70
   5  -2  -5   63.39    9.90
  -5   2   5   47.60    7.40
   4  -2  -5  433.96   20.20
   4  -2  -5  392.06   16.60
  -4   2   5  446.86   17.90
  -4   2   5  395.16   19.00
   3  -2  -5   63.49    6.00
   3  -2  -5   57.29    7.90
  -3   2   5   63.39    9.40
  -3   2   5   51.99    6.60
   2  -2  -5  175.58    9.20
   2  -2  -5  183.88   11.80
  -2   2   5  184.88   11.70
  -2   2   5  183.38   10.00
   1  -2  -5   98.39    6.40
   1  -2  -5   86.49    8.00
  -1   2   5   94.09    6.50
  -1   2   5   90.89    8.10
   0  -2  -5  294.77   11.20
   0  -2  -5  288.87   14.70
   0   2   5  294.47   15.00
   0   2   5  309.47   11.70
  -1  -2  -5  313.07   10.70
  -1  -2  -5  300.97   15.70
   1   2   5  328.17   18.00
   1   2   5  312.77   11.20
  -2  -2  -5   20.30    2.60
  -2  -2  -5   28.70    6.30
   2   2   5    5.40    4.90
  -4  -2  -5  715.93   30.60
  -5  -2  -5   85.19   13.30
  -6  -2  -5    8.20    8.10
  -7  -2  -5  201.38   20.70
  -8  -2  -5   86.99   17.00
  11  -3  -5   38.10   16.30
 -11   3   5   23.50   12.30
  10  -3  -5   28.30   14.90
 -10   3   5   21.90   10.30
   9  -3  -5   -4.30    9.90
  -9   3   5    5.00    6.70
   8  -3  -5    6.50    8.30
  -8   3   5   21.50    7.00
   7  -3  -5  237.48   18.00
  -7   3   5  235.08   14.80
   6  -3  -5  210.78   16.60
  -6   3   5  204.58   13.10
   5  -3  -5    5.30    5.60
   4  -3  -5    6.20    5.40
  -4   3   5   18.60    5.50
  -4   3   5   12.00    3.60
   3  -3  -5  497.95   22.20
   3  -3  -5  448.26   17.60
  -3   3   5  441.96   20.70
  -3   3   5  489.05   18.70
   2  -3  -5  184.28   12.50
  -2   3   5  182.18    9.90
  -2   3   5  173.28   12.00
   1  -3  -5  455.25   20.50
   1  -3  -5  414.16   15.20
  -1   3   5  440.56   16.00
  -1   3   5  403.26   19.10
   0  -3  -5  128.49   10.50
   0  -3  -5  131.49    7.00
   0   3   5  132.79    7.40
   0   3   5  115.59   10.10
  -1  -3  -5  222.68   14.60
  -1  -3  -5  217.48    8.80
   1   3   5  228.28    9.40
  -2  -3  -5  104.19    5.30
   2   3   5  106.19    5.70
  -3  -3  -5  248.68   17.10
  -4  -3  -5  227.18   17.30
  -5  -3  -5  348.37   22.90
  -6  -3  -5   -0.10    8.40
  -7  -3  -5  109.69   18.30
  -8  -3  -5   16.70   13.20
  11  -4  -5   64.39   16.90
 -11   4   5   25.80   12.80
  10  -4  -5   63.59   14.50
 -10   4   5   62.49   12.00
   9  -4  -5   76.39   14.30
  -9   4   5   67.49   10.10
   8  -4  -5   -3.00    8.40
  -8   4   5   -4.70    5.50
   7  -4  -5  100.99   14.40
  -7   4   5  118.29   10.90
   6  -4  -5   64.79   11.10
  -6   4   5   56.79    8.80
   5  -4  -5   26.90    5.80
  -5   4   5   15.60    4.80
   4  -4  -5  178.18   13.90
  -4   4   5  170.28   11.10
   3  -4  -5 1254.47   42.70
  -3   4   5 1235.98   37.30
   2  -4  -5  230.38   15.40
   2  -4  -5  205.88   10.70
  -2   4   5  243.58   12.10
   1  -4  -5   29.20    7.50
  -1   4   5   37.60    5.60
   0  -4  -5  527.25   17.50
   0  -4  -5  551.34   24.80
   0   4   5  532.55   18.30
  -1  -4  -5  304.97   11.50
  -1  -4  -5  314.17   18.60
   1   4   5  330.07   12.60
  -2  -4  -5    7.80    2.40
  -2  -4  -5    5.00    5.00
   2   4   5    6.30    2.30
  -3  -4  -5   10.20    5.60
   3   4   5    6.70    4.20
  -4  -4  -5  274.57   20.30
  -5  -4  -5   75.19   13.90
  -6  -4  -5    5.40    9.10
  -7  -4  -5   13.80   11.90
  11  -5  -5   42.30   15.30
 -11   5   5   52.59   12.70
  10  -5  -5  101.69   18.40
 -10   5   5   83.39   15.20
   9  -5  -5   15.30   12.10
  -9   5   5    5.10    7.80
   8  -5  -5   41.80   11.50
  -8   5   5   49.00    9.80
   7  -5  -5  281.67   20.80
  -7   5   5  294.57   17.60
   6  -5  -5  116.99   12.80
  -6   5   5  127.29   10.90
   5  -5  -5   23.40    7.20
  -5   5   5   11.00    4.80
   4  -5  -5  122.79   12.00
  -4   5   5  103.39    8.70
   3  -5  -5  903.91   35.40
  -3   5   5  904.71   30.20
   2  -5  -5  325.67   19.80
  -2   5   5  299.87   14.40
   1  -5  -5   21.00    5.90
   1  -5  -5   13.90    4.10
  -1   5   5   20.10    4.70
   0  -5  -5  309.37   13.00
   0  -5  -5  351.86   20.20
   0   5   5  334.47   14.10
  -1  -5  -5  139.59   13.60
  -1  -5  -5  121.99    7.70
   1   5   5  147.39    8.50
  -2  -5  -5   18.70    3.80
  -2  -5  -5   12.20    6.50
   2   5   5    9.50    3.30
  -3  -5  -5   87.99   14.10
  -3  -5  -5  100.99    6.40
   3   5   5  109.39    6.50
  -4  -5  -5  192.58   19.20
  -5  -5  -5    8.90    9.10
  -6  -5  -5    9.30   11.10
  11  -6  -5   12.30   13.00
 -11   6   5   31.90   11.90
  10  -6  -5  136.49   21.40
 -10   6   5  132.99   15.60
  -9   6   5  101.89   12.60
   8  -6  -5  160.18   18.20
  -8   6   5  133.89   13.70
   7  -6  -5  181.68   16.90
  -7   6   5  126.39   12.10
   6  -6  -5  367.96   23.00
  -6   6   5  305.17   18.00
   5  -6  -5   20.10    7.90
  -5   6   5    7.70    4.70
   4  -6  -5  141.29   14.40
  -4   6   5  166.48   11.70
   3  -6  -5   25.50    7.30
  -3   6   5   21.80    5.00
   2  -6  -5  180.58   15.30
   1  -6  -5   33.50    7.30
  -1   6   5   54.79    7.60
   0  -6  -5  179.18   10.50
   0  -6  -5  163.08   15.00
   0   6   5  195.98   11.30
  -1  -6  -5  188.68   10.20
  -1  -6  -5  189.98   16.70
   1   6   5  194.68   10.70
  -2  -6  -5  101.69    8.60
  -2  -6  -5  139.89   15.40
   2   6   5  128.69    8.60
  -3  -6  -5   67.09   13.30
   3   6   5   54.29    5.80
  -4  -6  -5  124.39   18.40
  -5  -6  -5   46.30   14.30
  11  -7  -5   30.90   15.30
 -11   7   5   -1.90    8.90
  10  -7  -5   72.59   17.80
 -10   7   5   72.89   12.80
   9  -7  -5   23.80   10.70
  -9   7   5   20.00    9.00
   8  -7  -5    5.70   10.10
  -8   7   5   29.80    8.90
   7  -7  -5  118.49   17.00
  -7   7   5  145.29   13.90
   6  -7  -5  494.15   28.90
  -6   7   5  485.75   23.40
   5  -7  -5  128.49   18.10
  -5   7   5  126.39   11.40
   4  -7  -5  118.69   17.30
  -4   7   5  127.59   10.80
   3  -7  -5  188.78   17.10
  -3   7   5  234.18   14.20
   2  -7  -5  301.47   21.60
  -2   7   5  318.27   16.20
   1  -7  -5   12.80    6.80
  -1   7   5   -3.50    4.10
   0  -7  -5   96.39   14.70
  -1  -7  -5  185.98   18.70
   1   7   5  200.08   11.70
  -2  -7  -5  100.89    9.60
  -2  -7  -5  123.39   18.40
   2   7   5  114.59    9.60
  -3  -7  -5   10.00    9.60
   3   7   5   -6.20    5.20
  -4  -7  -5   57.19   14.90
  10  -8  -5   58.89   16.60
 -10   8   5   45.70   12.30
   9  -8  -5    2.30   12.10
  -9   8   5   23.70    8.60
   8  -8  -5    6.30    8.80
  -8   8   5   -5.50    7.70
   7  -8  -5   72.39   14.70
  -7   8   5   95.19   12.70
   6  -8  -5  240.58   21.00
  -6   8   5  201.28   15.60
   5  -8  -5   67.79   13.80
  -5   8   5   72.19   11.60
   4  -8  -5    3.60    6.50
  -4   8   5    2.60    4.70
   3  -8  -5  272.87   21.50
  -3   8   5  261.97   15.90
   2  -8  -5  100.39   16.50
  -2   8   5   90.99    9.60
   1  -8  -5   15.50    8.50
  -1   8   5   33.60    6.80
   0  -8  -5   57.69   13.30
   0   8   5   77.59   10.10
  -1  -8  -5  125.79   19.10
   1   8   5   95.59   10.30
  -2  -8  -5  107.79   18.10
   2   8   5  102.69   15.70
  -3  -8  -5   -3.50   10.90
   3   8   5   15.20    7.40
  10  -9  -5    9.80   13.10
 -10   9   5   28.50   10.70
   9  -9  -5   71.59   15.60
  -9   9   5   34.70   11.20
   8  -9  -5    5.20   11.30
  -8   9   5    8.90    7.80
   7  -9  -5    8.50    8.90
  -7   9   5   10.30    7.30
   6  -9  -5   43.70   11.90
  -6   9   5   49.10   11.90
   5  -9  -5  117.89   18.60
  -5   9   5   83.09   12.10
   4  -9  -5    8.10    6.90
  -4   9   5    4.30    5.10
   3  -9  -5  132.69   19.20
  -3   9   5  122.19   15.20
   2  -9  -5  130.49   19.30
  -2   9   5  115.49   12.20
   1  -9  -5   21.30   10.00
  -1   9   5   27.60    6.90
   0  -9  -5   39.30   11.20
   0   9   5   32.40    8.10
  -1  -9  -5  186.28   21.70
   1   9   5  115.69   12.60
  -2  -9  -5   67.79   16.40
   2   9   5   81.49   10.30
   9 -10  -5   65.29   16.20
  -9  10   5   50.79   11.00
   8 -10  -5   -1.20   11.30
  -8  10   5   14.90    8.30
   7 -10  -5   -2.20    9.80
  -7  10   5   17.20    9.20
   6 -10  -5  101.79   18.40
  -6  10   5  122.79   16.70
   5 -10  -5   59.99   14.30
  -5  10   5   64.69   11.90
   4 -10  -5    5.80    8.90
   3 -10  -5   93.39   17.90
  -3  10   5   87.39   13.20
   2 -10  -5  116.29   18.90
  -2  10   5  143.79   15.90
   1 -10  -5   56.29   13.40
  -1  10   5   60.89   10.60
   0 -10  -5   28.70   11.50
   0  10   5    4.80    7.50
   8 -11  -5  -11.10   11.20
  -8  11   5    3.70    9.70
   7 -11  -5    5.00   10.30
  -7  11   5    4.00    8.30
   6 -11  -5   93.79   19.90
  -6  11   5  110.89   16.20
   5 -11  -5  150.38   22.20
  -5  11   5  158.98   16.40
   4 -11  -5  -10.60    9.90
  -4  11   5   29.10   10.90
   3 -11  -5   30.60   12.70
  -3  11   5   32.40   10.20
   2 -11  -5  116.89   20.20
  -2  11   5  132.69   16.60
   3 -13   6    6.60   13.60
  -4  13  -6  183.88   17.70
  -5  13  -6   13.20    8.90
   5 -13   6    6.80   17.40
  -6  13  -6   -8.60    7.70
   6 -13   6   -2.10   12.80
  -1  12  -6   78.79   11.70
   1 -12   6   85.79   14.50
  -2  12  -6   59.89   10.70
   2 -12   6   58.99   13.60
  -3  12  -6   -4.10    7.40
   3 -12   6    5.20    9.40
  -4  12  -6   77.79   11.50
   4 -12   6   91.09   11.90
  -5  12  -6  114.49   14.60
   5 -12   6  138.69   14.60
  -6  12  -6   -7.80    6.70
  -7  12  -6   45.40   10.80
   7 -12   6   23.50   12.10
  -8  12  -6  177.18   16.10
   8 -12   6  141.89   19.00
   1  11  -6    2.30    9.60
  -1 -11   6   11.20   12.20
   0  11  -6   66.49   11.10
   0 -11   6   56.09   12.60
  -1  11  -6  151.38   15.10
   1 -11   6  164.08   16.40
  -2  11  -6   34.20    8.70
   2 -11   6   46.50    9.30
  -3  11  -6  125.39   12.90
   3 -11   6  140.49   13.20
  -4  11  -6  119.49   12.50
   4 -11   6   99.69   11.90
  -5  11  -6   24.60    7.20
  -5  11  -6   35.10    9.90
   5 -11   6   15.50    8.40
  -6  11  -6    9.50    6.70
   6 -11   6    7.90    7.90
  -7  11  -6   49.90   10.40
   7 -11   6   51.09   11.40
  -8  11  -6   84.29   11.70
   8 -11   6   82.79   13.80
  -9  11  -6   39.50   10.20
   9 -11   6   24.70   14.50
   3  10  -6   15.10   10.00
  -3 -10   6   21.00   16.20
   2  10  -6   52.89   10.30
  -2 -10   6   29.90   11.70
   1  10  -6   13.80    7.40
  -1 -10   6    1.90    9.10
   0 -10   6    7.20    7.20
  -1  10  -6   42.50   10.40
  -1  10  -6   51.19    9.40
   1 -10   6   54.09    8.80
  -2  10  -6   93.19   10.00
  -2  10  -6   78.39   11.20
   2 -10   6   84.29    9.50
  -3  10  -6   -0.30    4.80
  -3  10  -6    1.70    6.90
   3 -10   6   -2.40    5.30
  -4  10  -6   56.49    8.80
  -4  10  -6   89.19   11.10
   4 -10   6   75.19    9.20
  -5  10  -6  148.69   12.60
  -5  10  -6  115.89   13.50
   5 -10   6  145.89   12.60
  -6  10  -6   22.50    6.90
   6 -10   6   24.70   10.70
   6 -10   6   14.30    7.90
  -7  10  -6   35.20    8.40
   7 -10   6   41.00   12.30
  -8  10  -6   63.49   10.80
   8 -10   6   83.79   13.90
  -9  10  -6   99.99   15.20
   9 -10   6   77.49   15.70
 -10  10  -6    3.90    9.30
  10 -10   6   -7.50   13.90
   4   9  -6    5.00    8.30
  -4  -9   6  -17.90   12.50
   3   9  -6   40.20    9.40
  -3  -9   6   35.10   13.40
   2   9  -6  153.48   14.40
  -2  -9   6  136.49   15.80
   1   9  -6   40.00    7.10
  -1  -9   6   51.19    8.80
   0   9  -6   -4.10    5.30
   0  -9   6   13.70    6.50
  -1   9  -6   86.09   10.60
  -1   9  -6   86.79   10.20
   1  -9   6   90.69    8.90
  -2   9  -6  113.09    9.40
  -2   9  -6  111.79   10.60
   2  -9   6  107.09    8.90
  -3   9  -6   47.40    6.70
  -3   9  -6   65.49    9.50
   3  -9   6   51.79    6.30
  -4   9  -6   63.19    9.10
  -4   9  -6   61.59    7.00
   4  -9   6   63.69    7.40
  -5   9  -6  209.78   14.10
   5  -9   6  244.38   13.70
   5  -9   6  208.48   13.20
  -6   9  -6   68.69    9.40
   6  -9   6   53.29    8.90
   6  -9   6   56.09   10.10
  -7   9  -6   15.30    5.70
   7  -9   6    5.20    7.00
  -8   9  -6  176.58   13.80
   8  -9   6  164.08   16.90
  -9   9  -6   96.09   11.70
   9  -9   6  103.99   16.00
 -10   9  -6    0.90    8.30
  10  -9   6    6.60   14.30
   5   8  -6   73.89   12.20
   5   8  -6   74.89   17.40
   4   8  -6   14.80   12.40
   3   8  -6   86.29   10.70
  -3  -8   6   51.99   10.50
   2   8  -6  161.78   12.20
  -2  -8   6  162.18   14.40
   1   8  -6   47.50   10.60
   1   8  -6   67.39    9.10
  -1  -8   6   62.09    8.30
   0   8  -6   41.10    7.20
   0   8  -6   49.80    7.70
   0  -8   6   57.99    6.80
  -1   8  -6  263.87   12.40
  -1   8  -6  293.77   15.70
   1  -8   6  275.97   11.60
  -2   8  -6   33.00    4.80
  -2   8  -6   34.10    6.30
  -3   8  -6   60.49    6.20
  -3   8  -6   74.99    8.10
   3  -8   6   72.79    7.70
  -4   8  -6  147.79   11.20
   4  -8   6  158.88    9.40
  -5   8  -6  259.97   14.60
   5  -8   6  286.97   14.20
   5  -8   6  272.67   14.00
  -6   8  -6   93.69    9.70
   6  -8   6   94.59   10.50
   6  -8   6   96.39   12.10
  -7   8  -6   35.60    6.90
   7  -8   6   33.30    8.10
  -8   8  -6  106.39   10.90
   8  -8   6  121.49   14.60
  -9   8  -6  128.79   12.80
   9  -8   6  121.89   16.70
 -10   8  -6   -8.00    8.10
  10  -8   6    3.30   12.80
   6   7  -6   29.40   15.80
   6   7  -6   29.90   10.50
   5   7  -6  105.89   16.00
   5   7  -6   85.99   10.70
   4   7  -6   -6.10    5.90
   3   7  -6  150.48   12.20
   2   7  -6  318.07   16.40
   2   7  -6  250.77   16.50
  -2  -7   6  323.77   16.80
   1   7  -6  164.88   11.30
   1   7  -6  175.18   12.00
  -1  -7   6  173.98   11.10
   0   7  -6  135.99    9.00
   0   7  -6  139.69   10.40
   0  -7   6  140.29    8.50
  -1   7  -6  344.57   16.20
  -2   7  -6  653.23   24.20
  -3   7  -6    3.30    3.00
   3  -7   6    4.60    2.60
  -4   7  -6  134.59    9.70
   4  -7   6  123.59    8.10
   4  -7   6  139.39    8.30
  -5   7  -6  106.79    8.80
   5  -7   6  123.39    9.40
   5  -7   6  114.79    9.50
  -6   7  -6   20.60    4.80
   6  -7   6   18.60    6.80
   6  -7   6   25.80    6.70
  -7   7  -6   12.90    5.30
   7  -7   6   16.90    6.70
  -8   7  -6    6.80    5.20
   8  -7   6   20.60    9.60
  -9   7  -6   25.80    7.00
   9  -7   6   36.30   11.30
 -10   7  -6   25.90    8.10
  10  -7   6  -11.70   12.80
 -11   7  -6  -10.60   10.10
  11  -7   6   -4.80   15.00
   7   6  -6    5.80    9.50
   7   6  -6  -31.40   14.30
   6   6  -6   25.10   13.10
   6   6  -6   62.99   11.10
   5   6  -6  152.08   13.60
   5   6  -6  157.98   16.90
   4   6  -6   11.00    7.90
   4   6  -6   -2.20    5.00
   3   6  -6   78.79    9.60
   3   6  -6   72.09   11.20
   2   6  -6  471.75   19.80
   2   6  -6  455.65   19.50
   1   6  -6  371.46   16.60
   1   6  -6  348.27   14.70
   0   6  -6   17.00    4.20
  -1   6  -6  192.78   11.30
  -3   6  -6  112.39    9.40
   3  -6   6  124.39    5.50
   3  -6   6  122.69    5.60
  -4   6  -6   91.89    7.60
   4  -6   6   70.79    6.40
   4  -6   6   80.99    6.60
  -5   6  -6  409.66   17.30
   5  -6   6  422.26   17.30
   5  -6   6  452.45   18.10
  -6   6  -6  416.76   17.10
   6  -6   6  364.16   18.10
   6  -6   6  411.76   19.80
  -7   6  -6   22.50    5.90
   7  -6   6   26.10    8.50
   8  -6   6   78.89   13.20
   9  -6   6  113.49   16.70
  10  -6   6   21.10   13.40
 -11   6  -6  -24.40   13.30
  11  -6   6    4.00   14.80
   7   5  -6   12.50    8.60
   6   5  -6  148.59   17.70
   6   5  -6  209.78   14.70
   5   5  -6  143.09   12.60
   5   5  -6  133.99   14.70
   4   5  -6   -5.20    4.50
   3   5  -6   32.90    7.70
   3   5  -6   28.80    5.60
   3   5  -6   33.80    7.60
   2   5  -6  325.37   15.10
   2   5  -6  310.87   15.00
   2   5  -6  315.07   14.30
   1   5  -6  159.98   10.10
   1   5  -6  144.79    7.90
   1   5  -6  152.78    8.20
   0   5  -6   13.60    3.80
  -1   5  -6  304.57   13.40
  -2   5  -6  377.86   19.40
  -2   5  -6  362.26   14.90
  -3   5  -6   57.19    5.70
   3  -5   6   60.29    4.30
   3  -5   6   59.19    6.10
   3  -5   6   56.29    4.30
  -4   5  -6   59.59    6.60
   4  -5   6   56.39    6.20
   4  -5   6   63.79    5.80
   4  -5   6   59.69    6.10
  -5   5  -6  528.75   18.30
   5  -5   6  503.85   19.90
   5  -5   6  490.95   19.40
   5  -5   6  476.35   17.50
  -6   5  -6  278.67   12.60
   6  -5   6  301.87   16.60
   6  -5   6  268.47   16.30
   6  -5   6  302.07   12.80
  -7   5  -6    4.60    3.70
   7  -5   6    1.20    4.90
   7  -5   6    0.00    5.70
  -8   5  -6   40.30    6.00
   8  -5   6   20.40    8.50
   8  -5   6   33.40    6.30
  -9   5  -6   56.69    6.80
   9  -5   6   40.20    7.60
   9  -5   6   71.69   14.50
 -10   5  -6   49.99    8.40
  10  -5   6   77.39   17.30
   8   4  -6   56.99   17.30
   8   4  -6   26.80   10.90
   7   4  -6   -0.50   10.90
   7   4  -6    2.50    6.60
   6   4  -6   16.00    7.00
   6   4  -6   17.60    9.40
   5   4  -6  164.88   15.50
   5   4  -6  164.78   11.80
   4   4  -6  212.38   15.10
   4   4  -6  191.98   11.90
   3   4  -6   49.30    6.80
   3   4  -6   54.99    7.60
   3   4  -6   38.30    6.20
   2   4  -6   67.49    7.20
   2   4  -6   69.09    6.70
   1   4  -6  162.18    9.60
   1   4  -6  166.18    9.40
   1   4  -6  166.08    9.20
   0   4  -6    7.60    3.00
   0   4  -6   10.10    4.40
  -1   4  -6  289.57   12.50
  -1   4  -6  311.27   14.90
  -2   4  -6   83.09    8.40
  -2   4  -6  111.49    7.10
  -3   4  -6  127.29    7.40
   3  -4   6  121.29    6.60
   3  -4   6  114.99    7.30
  -4   4  -6   57.69    5.40
   4  -4   6   58.69    6.30
   4  -4   6   59.89    5.50
   4  -4   6   59.59    6.90
  -5   4  -6  356.66   13.40
   5  -4   6  365.26   16.90
   5  -4   6  320.97   16.40
   5  -4   6  348.37   13.30
  -6   4  -6  141.49    8.00
   6  -4   6  118.29    7.80
   6  -4   6  135.99   11.80
  -7   4  -6   48.60    5.60
   7  -4   6   40.80    9.00
   7  -4   6   49.40    5.50
  -8   4  -6   10.40    4.10
   8  -4   6   11.10    8.10
  -9   4  -6  155.18    8.80
  -9   4  -6  115.19   10.70
   9  -4   6  154.08   19.00
  10  -4   6   34.60   14.50
   8   3  -6   40.30   10.20
   8   3  -6   64.69   17.30
   7   3  -6    5.40   10.20
   7   3  -6   -2.20    5.40
   6   3  -6   34.00   10.20
  -6  -3   6   33.10    9.40
   5   3  -6  204.08   15.70
  -5  -3   6  140.59   14.10
   4   3  -6  243.58   15.20
   4   3  -6  230.88   14.40
  -4  -3   6  237.48   15.20
   3   3  -6   13.20    4.70
   3   3  -6   12.80    4.90
   2   3  -6   55.49    5.60
   2   3  -6   55.79    5.50
  -2  -3   6   65.29    8.60
   1   3  -6  188.98   11.50
   1   3  -6  193.58    8.10
   1   3  -6  187.78   10.80
   0   3  -6   72.39    5.70
   0   3  -6   76.29    7.50
  -1   3  -6  204.08    9.50
  -1   3  -6  199.38   11.40
  -2   3  -6  244.88   10.30
  -2   3  -6  234.28    8.40
  -2   3  -6  234.48   11.70
   2  -3   6  233.68    8.60
  -3   3  -6  290.57   11.30
  -3   3  -6  301.77   11.90
  -3   3  -6  301.27   13.20
   3  -3   6  297.57   12.10
  -4   3  -6    5.80    3.10
  -4   3  -6   -0.50    1.70
  -4   3  -6    1.60    3.50
   4  -3   6    5.30    3.70
  -5   3  -6   70.49    7.10
  -5   3  -6   83.19    5.20
  -5   3  -6   79.89    8.10
   5  -3   6   77.59    9.50
  -6   3  -6  203.28   16.50
  -6   3  -6  201.88    8.50
  -6   3  -6  195.88    9.80
  -7   3  -6  218.18    8.60
  -7   3  -6  206.18    9.50
   7  -3   6  207.78   16.80
   8  -3   6   31.30   11.50
   9  -3   6   92.29   14.30
  10  -3   6   63.79   17.00
   9   2  -6   77.89   18.70
   8   2  -6   38.40   13.60
  -8  -2   6   37.30   11.40
   7   2  -6    3.90   10.50
  -7  -2   6   16.10    8.40
   6   2  -6   70.79   11.50
  -6  -2   6   64.79   10.00
   5   2  -6  254.57   19.80
  -5  -2   6  269.17   16.60
   4   2  -6  167.08   11.60
   4   2  -6  162.88   11.60
  -4  -2   6  165.08   12.60
   3   2  -6    9.80    3.20
   3   2  -6   -3.70    3.80
  -3  -2   6   10.10    4.50
   2   2  -6   43.70    6.90
   2   2  -6   47.00    5.40
   2   2  -6   42.00    4.90
  -2  -2   6   43.80    7.00
   1   2  -6  481.55   18.90
   1   2  -6  522.35   17.60
  -1  -2   6  528.15   20.10
   0   2  -6  196.58   10.50
   0   2  -6  197.58    7.50
   0  -2   6  199.68    7.50
   0  -2   6  195.38   11.10
  -1   2  -6   63.69    7.10
  -1   2  -6   60.89    4.80
  -1   2  -6   53.89    3.80
   1  -2   6   58.89    4.30
  -2   2  -6 1041.50   27.70
  -2   2  -6 1007.90   29.20
  -2   2  -6 1056.79   28.30
   2  -2   6 1062.49   29.00
  -3   2  -6  263.47    9.70
  -3   2  -6  258.77   12.10
  -3   2  -6  270.77   11.20
   3  -2   6  263.57   12.60
  -4   2  -6   34.70    4.50
  -4   2  -6   32.60    3.70
  -4   2  -6   32.70    6.00
   4  -2   6   23.80    5.60
  -5   2  -6   12.90    2.50
  -5   2  -6    8.60    2.90
  -5   2  -6    8.80    4.40
  -6   2  -6  438.56   21.50
  -7   2  -6   58.19   10.20
  -8   2  -6    7.10    8.30
   9  -2   6   68.49   13.90
  10  -2   6   65.39   17.60
   9   1  -6   16.30   15.50
  -9  -1   6   46.60   13.60
   8   1  -6  116.59   17.90
  -8  -1   6  121.19   15.00
   7   1  -6   68.59   12.20
  -7  -1   6   55.69    9.20
   6   1  -6   75.29   11.40
  -6  -1   6   51.79    8.50
   5   1  -6  594.24   26.10
  -5  -1   6  568.34   24.10
   4   1  -6  153.78   11.60
   4   1  -6  160.18   11.60
  -4  -1   6  159.38   12.50
   3   1  -6    6.70    3.60
   3   1  -6   -0.50    4.00
  -3  -1   6    6.50    4.20
   2   1  -6  694.83   22.70
   2   1  -6  654.23   23.00
  -2  -1   6  661.93   21.60
  -2  -1   6  710.33   24.20
   1   1  -6  329.97   12.90
   1   1  -6  334.67   15.40
  -1  -1   6  331.37   12.60
  -1  -1   6  332.97   14.70
   0   1  -6  459.05   16.50
   0   1  -6  437.56   15.30
   0  -1   6  440.66   16.90
   0  -1   6  453.95   15.40
  -1   1  -6    1.40    2.20
  -1   1  -6    3.50    2.30
   1  -1   6    3.90    2.80
   1  -1   6   -1.70    2.30
  -2   1  -6  724.93   21.50
  -2   1  -6  749.73   20.60
  -2   1  -6  758.62   24.00
   2  -1   6  763.62   24.50
  -3   1  -6  367.66   12.10
  -3   1  -6  370.66   11.30
  -3   1  -6  358.46   15.90
   3  -1   6  354.96   16.20
  -4   1  -6   -1.60    3.90
  -4   1  -6    2.50    1.40
   4  -1   6    1.00    4.70
  -6   1  -6  131.29   12.90
  -7   1  -6   -1.70    5.60
  -8   1  -6    8.80    8.40
  -9   1  -6   31.60   11.40
  10   0  -6   15.10   15.80
 -10   0   6    0.80   12.60
   9   0  -6   18.00   12.60
  -9   0   6   19.80   11.90
   8   0  -6  179.88   20.30
  -8   0   6  182.28   15.60
   7   0  -6   48.10    9.20
  -7   0   6   73.39    9.90
   6   0  -6   -0.80    5.50
  -6   0   6   15.00    5.70
   5   0  -6  239.18   15.90
  -5   0   6  221.78   13.90
   4   0  -6 1045.50   35.30
  -4   0   6 1022.70   34.20
  -4   0   6 1124.09   34.70
   3   0  -6   58.29    6.40
   3   0  -6   54.89    7.50
  -3   0   6   64.39    7.80
  -3   0   6   59.19    7.40
   2   0  -6  659.93   23.10
   2   0  -6  738.93   24.40
  -2   0   6  734.33   24.20
  -2   0   6  708.23   23.90
   1   0  -6 1572.04   43.00
   1   0  -6 1563.34   42.30
  -1   0   6 1646.94   43.10
  -1   0   6 1597.74   43.30
   0   0  -6  444.26   15.80
   0   0  -6  442.26   16.90
   0   0   6  450.65   16.30
   0   0   6  444.46   17.10
  -1   0  -6   13.20    3.70
  -1   0  -6   12.30    3.20
   1   0   6    9.20    3.50
   1   0   6   15.30    3.40
  -2   0  -6  532.65   16.10
  -2   0  -6  519.25   20.10
   2   0   6  532.35   21.30
   2   0   6  551.64   17.00
  -3   0  -6  510.15   21.30
  -3   0  -6  500.05   13.50
  -3   0  -6  495.55   15.20
   3   0   6  506.85   21.50
  -4   0  -6  147.29   11.90
  -5   0  -6  168.78   14.30
  -6   0  -6  178.38   15.30
  -7   0  -6   81.09   14.30
  -8   0  -6   10.50   10.30
  -9   0  -6   28.10   13.20
  10  -1  -6   -3.40   14.50
 -10   1   6   -6.80   14.20
   9  -1  -6   40.60   15.70
  -9   1   6   69.09   12.90
   8  -1  -6  156.78   18.40
  -8   1   6  201.88   16.00
   7  -1  -6    0.80    6.70
  -7   1   6   14.00    5.90
   6  -1  -6  153.28   14.60
  -6   1   6  169.38   12.30
   5  -1  -6  140.29   12.60
  -5   1   6  158.38   11.00
   4  -1  -6  459.05   21.30
  -4   1   6  430.76   20.00
  -4   1   6  454.85   19.50
   3  -1  -6   28.50    5.00
   3  -1  -6   48.00    8.00
  -3   1   6   30.30    6.20
  -3   1   6   36.80    5.80
   2  -1  -6   64.09    6.50
   2  -1  -6   70.39    7.20
  -2   1   6   75.19    7.10
  -2   1   6   81.19    7.80
   1  -1  -6  601.44   20.30
   1  -1  -6  637.54   22.90
  -1   1   6  598.24   20.70
  -1   1   6  595.94   22.40
   0  -1  -6  152.88   10.20
   0  -1  -6  150.28    8.30
   0   1   6  167.08   10.70
   0   1   6  168.28    9.30
  -1  -1  -6    6.00    2.30
  -1  -1  -6    5.20    3.40
   1   1   6    7.70    2.80
   1   1   6    3.60    3.50
  -2  -1  -6  230.68    8.70
  -2  -1  -6  241.28   14.00
   2   1   6  226.18    9.20
   2   1   6  252.87   14.70
  -3  -1  -6  553.94   23.90
  -3  -1  -6  523.85   13.60
  -4  -1  -6   41.00    7.70
  -5  -1  -6    3.50    6.50
  -6  -1  -6  118.99   15.50
  -7  -1  -6  150.08   19.10
  -8  -1  -6   -3.00    9.90
  10  -2  -6    4.00   13.10
 -10   2   6   -5.40   10.80
  -9   2   6   47.50   10.80
   8  -2  -6  100.39   16.00
  -8   2   6  100.69   12.40
   7  -2  -6   70.79   12.50
  -7   2   6   75.69    9.60
   6  -2  -6   -1.80    5.20
  -6   2   6    5.20    3.60
  -5   2   6   63.19    8.50
   4  -2  -6  152.48   12.70
  -4   2   6  145.09   12.60
  -4   2   6  164.88   11.10
   3  -2  -6  164.08   10.60
   3  -2  -6  186.88   13.30
  -3   2   6  199.48   11.40
  -3   2   6  189.48   12.60
   2  -2  -6   59.39    5.70
   2  -2  -6   71.89   10.00
  -2   2   6   68.29    8.20
   1  -2  -6   -0.40    3.00
   1  -2  -6    2.70    2.90
  -1   2   6    2.60    2.50
   0  -2  -6  218.88    9.90
   0  -2  -6  215.48   13.10
   0   2   6  215.58   10.30
   0   2   6  213.88   13.50
  -1  -2  -6    5.50    2.40
  -1  -2  -6    0.00    4.00
   1   2   6    7.10    2.60
  -2  -2  -6  280.67   16.20
  -2  -2  -6  280.07    9.60
   2   2   6  273.57   10.10
  -3  -2  -6  303.97   18.00
  -4  -2  -6  186.68   15.00
  -5  -2  -6    8.80    7.00
  -6  -2  -6   89.89   14.80
  -7  -2  -6  115.29   17.10
  -8  -2  -6    0.70   11.50
  10  -3  -6   26.70   13.90
 -10   3   6   15.00   10.60
  -9   3   6    4.20    7.10
   8  -3  -6   85.69   14.80
  -8   3   6   67.39    9.70
   7  -3  -6  184.38   17.40
  -7   3   6  194.08   13.90
   6  -3  -6   45.10    9.50
  -6   3   6   39.80    6.70
   5  -3  -6   38.40    8.70
  -5   3   6   23.30    4.90
   4  -3  -6  126.09   11.70
  -4   3   6  124.29   12.60
   3  -3  -6   71.09   10.00
  -3   3   6   54.39    7.40
  -3   3   6   38.00    8.60
   2  -3  -6    8.20    4.70
   2  -3  -6    8.30    3.00
  -2   3   6    1.20    4.80
  -2   3   6    2.80    3.20
   1  -3  -6  430.86   20.80
   1  -3  -6  431.26   17.70
  -1   3   6  451.95   17.10
  -1   3   6  392.56   20.30
   0  -3  -6  284.07   12.20
   0  -3  -6  349.07   18.40
   0   3   6  322.37   13.40
  -1  -3  -6   31.10    4.20
  -1  -3  -6   36.30    8.40
   1   3   6   30.00    4.60
  -2  -3  -6   13.30    3.00
  -2  -3  -6   13.90    5.50
   2   3   6    8.80    2.90
  -3  -3  -6  355.66   21.00
  -4  -3  -6  160.08   14.80
  -5  -3  -6    5.00    8.20
  -6  -3  -6    4.60   10.20
  -7  -3  -6  111.99   17.80
  11  -4  -6   20.50   15.90
 -11   4   6   14.40   12.30
  10  -4  -6   10.40   12.50
 -10   4   6   16.50   11.00
   9  -4  -6   20.20   18.60
  -9   4   6    1.10    7.50
   8  -4  -6  165.58   18.90
  -8   4   6  151.58   14.50
   7  -4  -6  127.69   15.30
  -7   4   6  128.79   12.70
   6  -4  -6   65.09   10.50
  -6   4   6   49.00    8.20
   5  -4  -6  111.79   12.40
  -5   4   6  102.69    9.40
   4  -4  -6  223.58   16.20
  -4   4   6  231.38   13.20
  -3   4   6  337.47   17.50
   2  -4  -6    7.00    4.90
  -2   4   6    0.30    2.60
   1  -4  -6  657.63   22.40
  -1   4   6  737.23   23.80
   0  -4  -6  278.07   17.40
   0   4   6  253.17   11.90
  -1  -4  -6   97.49   11.30
  -1  -4  -6   84.29    6.40
   1   4   6   97.29    6.90
  -2  -4  -6   10.90    5.30
  -2  -4  -6    8.90    3.50
   2   4   6    9.20    3.10
  -3  -4  -6  148.99   14.30
   3   4   6  122.59    8.70
  -4  -4  -6   37.20    9.60
  -5  -4  -6    4.10   10.00
  -6  -4  -6   94.59   17.40
  -7  -4  -6   65.29   16.60
  11  -5  -6   57.79   20.20
 -11   5   6   48.80   13.70
  10  -5  -6   49.00   14.50
 -10   5   6   35.40   10.60
   9  -5  -6    8.50   10.70
  -9   5   6   25.30   15.80
   8  -5  -6  174.48   19.00
  -8   5   6  141.19   14.60
   7  -5  -6  345.47   24.60
  -7   5   6  367.96   20.30
   6  -5  -6   53.49   11.30
  -6   5   6   38.80    7.60
   5  -5  -6   80.39   12.90
  -5   5   6   59.79    8.90
   4  -5  -6  136.19   13.80
  -4   5   6  145.59   11.10
   3  -5  -6  124.49   13.10
  -3   5   6  159.08   11.30
   2  -5  -6   12.80    6.20
  -2   5   6   12.90    4.70
   1  -5  -6  163.88   14.30
  -1   5   6  140.29    9.40
   0  -5  -6  196.48   16.10
   0  -5  -6  162.28   10.00
   0   5   6  190.48   11.20
  -1  -5  -6  230.58   17.90
   1   5   6  263.67   12.30
  -2  -5  -6   -4.80    5.60
  -2  -5  -6   -3.20    3.90
   2   5   6    9.10    3.70
  -3  -5  -6  121.49    6.90
  -3  -5  -6  149.29   16.50
   3   5   6  152.18    7.70
  -4  -5  -6  120.39   27.00
  -5  -5  -6    0.60    9.10
  -6  -5  -6   27.00   13.50
  10  -6  -6   55.79   17.10
 -10   6   6   24.20   11.50
   9  -6  -6    6.00   11.10
  -9   6   6    4.90    8.50
   8  -6  -6   48.00   13.20
  -8   6   6   49.00    9.70
   7  -6  -6  269.17   21.70
  -7   6   6  259.77   18.30
   6  -6  -6   92.59   15.40
  -6   6   6   95.09   12.60
   5  -6  -6   -4.20    6.20
  -5   6   6    3.40    4.10
   4  -6  -6  524.25   27.60
  -4   6   6  551.34   23.80
   3  -6  -6  546.85   27.90
  -3   6   6  521.45   22.50
   2  -6  -6   13.20    6.10
  -2   6   6    0.30    3.20
   1  -6  -6  118.19   13.50
   0  -6  -6  736.63   34.60
   0   6   6  735.33   25.30
  -1  -6  -6  112.59    8.80
  -1  -6  -6  139.99   15.30
   1   6   6  127.49    9.70
  -2  -6  -6   -2.80    6.60
  -2  -6  -6   -1.70    6.10
   2   6   6   -2.40    4.60
  -3  -6  -6  100.19   17.20
   3   6   6   88.99    7.30
  -4  -6  -6   62.69   14.30
  -5  -6  -6    0.60   11.90
  10  -7  -6   23.60   14.50
 -10   7   6   41.00   12.20
   9  -7  -6   -4.10    9.50
  -9   7   6    9.00    7.70
   8  -7  -6   37.90   13.80
  -8   7   6   32.90   12.80
   7  -7  -6  116.19   17.60
  -7   7   6   91.99   12.80
   6  -7  -6  155.98   20.60
  -6   7   6  115.49   14.30
   5  -7  -6   77.69   13.40
  -5   7   6   69.89   10.70
   4  -7  -6  198.58   17.80
  -4   7   6  151.58   12.80
   3  -7  -6  202.18   18.30
  -3   7   6  202.28   13.80
   2  -7  -6  141.49   15.60
  -2   7   6  128.99   10.50
   1  -7  -6   31.50    9.40
  -1   7   6   33.80    6.70
   0  -7  -6  185.38   18.40
   0   7   6  214.68   12.60
  -1  -7  -6   85.99   15.80
   1   7   6   70.39    9.10
  -2  -7  -6    0.60    8.40
  -2  -7  -6   -7.80    8.00
   2   7   6    6.20    5.50
  -3  -7  -6   76.49   15.90
   3   7   6   61.89    7.10
  -4  -7  -6  115.69   18.70
  10  -8  -6   65.59   16.20
 -10   8   6   43.60   12.30
   9  -8  -6    3.30   11.80
  -9   8   6  -11.40    8.30
   8  -8  -6   30.50   10.90
  -8   8   6    5.30    7.00
   7  -8  -6   90.99   24.60
  -7   8   6   71.79   15.60
   6  -8  -6   66.49   15.30
  -6   8   6   60.59   11.20
   5  -8  -6    6.60    7.70
  -5   8   6    8.30    5.40
   4  -8  -6   46.30   11.50
  -4   8   6   41.60    8.80
   3  -8  -6  110.39   17.20
  -3   8   6   73.19   10.70
   2  -8  -6   19.00    9.00
  -2   8   6   38.80    8.20
   1  -8  -6   55.29   13.50
  -1   8   6   42.90    8.20
   0  -8  -6   68.19   13.60
   0   8   6   68.69   10.00
  -1  -8  -6   91.89   17.30
   1   8   6  101.49   10.90
  -2  -8  -6   20.00   10.80
   2   8   6    8.90    8.00
  -3  -8  -6   24.00   13.40
   9  -9  -6   14.10   13.90
  -9   9   6    7.90    9.00
   8  -9  -6   -3.70   10.40
  -8   9   6    0.40    6.90
   7  -9  -6   54.59   14.80
  -7   9   6   46.30   10.80
   6  -9  -6   46.50   13.30
  -6   9   6   51.99   10.90
   5  -9  -6    6.90    8.70
  -5   9   6    0.70    7.10
   4  -9  -6   55.69   17.30
  -4   9   6   78.69   12.20
   3  -9  -6   84.29   16.60
  -3   9   6  105.69   13.80
   2  -9  -6   31.30   10.50
  -2   9   6    9.70    6.50
   1  -9  -6    2.50    9.30
  -1   9   6    0.70    6.60
   0  -9  -6   96.69   18.60
   0   9   6   92.59   12.30
  -1  -9  -6   82.19   15.50
   1   9   6  102.49   11.80
   8 -10  -6   -1.70   10.10
  -8  10   6    2.00    8.60
   7 -10  -6   29.90   12.50
  -7  10   6   43.20   11.20
   6 -10  -6   68.79   17.40
  -6  10   6   72.69   12.50
   5 -10  -6   33.90   13.10
  -5  10   6   37.60   10.40
   4 -10  -6   65.69   16.20
  -4  10   6   76.79   13.00
   3 -10  -6  187.68   25.00
   2 -10  -6  105.19   18.30
  -2  10   6   75.09   11.80
   1 -10  -6   13.70   10.60
  -1  10   6    7.30    8.00
   0 -10  -6   89.99   17.90
   0  10   6  110.49   13.30
   7 -11  -6   54.99   15.10
  -7  11   6   55.89   13.40
   6 -11  -6   83.79   18.00
  -6  11   6   93.39   14.80
   5 -11  -6   18.60   11.90
  -5  11   6   -0.40    9.10
   4 -11  -6   38.70   14.10
  -4  11   6    8.80    9.70
   3 -11  -6   83.69   18.00
  -3  11   6   66.19   12.10
  -1  12  -7   41.40   10.20
   1 -12   7    8.20   13.60
  -2  12  -7   11.20    7.60
   2 -12   7    0.10    9.80
  -3  12  -7  247.38   17.90
   3 -12   7  201.78   15.20
  -4  12  -7   82.99   12.60
   4 -12   7   82.59   10.10
  -5  12  -7    6.70    7.10
   5 -12   7   18.40    8.80
  -6  12  -7   27.10    9.80
   6 -12   7   22.10   10.90
  -7  12  -7   67.69   11.90
   7 -12   7  113.79   15.80
  -8  12  -7   33.30    9.80
   8 -12   7   32.70   14.60
   1  11  -7   57.19   10.60
  -1 -11   7   15.40   13.60
   0  11  -7   53.69   10.50
   0 -11   7   63.49   12.00
  -1  11  -7   82.19   11.60
   1 -11   7   69.19   10.30
  -2  11  -7    4.80    7.40
   2 -11   7    7.70    6.80
  -3  11  -7   56.39    9.00
   3 -11   7   63.69    7.60
  -4  11  -7  113.79   12.40
   4 -11   7  100.99   10.20
  -5  11  -7   12.50    6.90
   5 -11   7   14.70    7.40
   5 -11   7   21.90   10.70
  -6  11  -7  -11.70    6.10
   6 -11   7    7.60    8.10
  -7  11  -7   63.99   10.80
   7 -11   7   69.09   11.60
  -8  11  -7   80.39   11.90
   8 -11   7   48.00   13.10
  -9  11  -7    0.50    8.90
   9 -11   7   -1.70   13.60
   2  10  -7   -2.80    8.00
   1  10  -7   -1.20    7.10
  -1 -10   7  -15.10    8.80
   0  10  -7   45.50    9.40
   0 -10   7   49.40    8.80
  -1  10  -7  260.27   15.10
  -1  10  -7  288.07   27.90
   1 -10   7  276.27   14.20
  -2  10  -7   13.40    7.00
  -2  10  -7    1.60    5.50
   2 -10   7   -0.30    6.00
  -3  10  -7   32.60    7.60
  -3  10  -7   34.10    6.50
  -4  10  -7   52.09    9.00
   4 -10   7   49.90    8.00
  -5  10  -7   54.29    8.80
   5 -10   7   57.69    7.40
   5 -10   7   40.40    8.30
  -6  10  -7   15.40    6.80
   6 -10   7    6.50    9.20
   6 -10   7    7.70    6.80
  -7  10  -7   55.79    9.70
   7 -10   7   69.59   10.80
   7 -10   7   60.79   17.90
   8 -10   7   58.59   12.60
  -9  10  -7    3.50    8.40
   9 -10   7    4.60   12.60
   4   9  -7  119.59   18.60
   4   9  -7   87.19   13.00
   3   9  -7   65.09   10.90
   2   9  -7   45.70    8.90
   1   9  -7    3.00    6.40
   1   9  -7    5.70    9.50
  -1  -9   7   -4.90    6.10
   0   9  -7   61.69    8.80
   0   9  -7   60.19    9.70
   0  -9   7   90.19    9.10
  -1   9  -7   36.90    7.40
  -2   9  -7   28.10    6.80
  -3   9  -7   32.60    7.30
  -4   9  -7  254.37   15.90
   4  -9   7  275.57   14.70
  -5   9  -7   63.89    9.00
   5  -9   7   58.79    7.50
   5  -9   7   72.89    8.00
  -6   9  -7   10.60    6.10
   6  -9   7   13.40    8.70
   6  -9   7    6.20    6.30
  -7   9  -7   35.00    7.90
   7  -9   7   16.90    8.00
   7  -9   7   11.70   13.70
  -8   9  -7  169.98   14.80
   8  -9   7  194.38   17.80
  -9   9  -7    2.60    7.40
   9  -9   7   10.00   11.90
 -10   9  -7    6.50    9.40
  10  -9   7   -6.20   15.20
   5   8  -7   14.50    9.40
   4   8  -7    6.90   10.00
   4   8  -7   19.50    8.60
   3   8  -7  165.08   17.90
   3   8  -7  133.99   15.10
   2   8  -7   28.80    7.00
   2   8  -7   18.70    9.30
   1   8  -7   41.00    7.70
   1   8  -7   25.00    7.80
   0   8  -7  144.99    9.20
   0   8  -7  158.08   12.30
  -1   8  -7   80.99    9.50
  -2   8  -7   58.99    8.80
  -3   8  -7   38.50    7.30
  -4   8  -7  390.96   18.70
   4  -8   7  423.16   13.00
  -5   8  -7  148.99   11.60
   5  -8   7  144.79    9.50
   5  -8   7  157.18    9.90
  -6   8  -7    5.80    4.30
   6  -8   7    6.80    7.00
   6  -8   7    5.80    5.50
  -7   8  -7   37.00    6.50
   7  -8   7   54.59    9.30
  -8   8  -7   21.10    6.80
   8  -8   7   25.00    9.90
  -9   8  -7   25.90    7.80
   9  -8   7    8.50   11.50
 -10   8  -7    6.10    8.30
  10  -8   7  -12.60   14.10
   5   7  -7   18.90    7.70
   5   7  -7   -6.10   11.80
   4   7  -7   23.20    9.00
   4   7  -7   25.80    7.70
   3   7  -7   87.19    9.40
   3   7  -7   97.99   12.00
   2   7  -7  312.27   25.10
   2   7  -7  383.96   18.70
   2   7  -7  352.76   17.60
   1   7  -7   52.89    6.60
   1   7  -7   56.19    7.00
   1   7  -7   55.29    7.60
   0   7  -7  260.07   14.60
   0   7  -7  301.77   14.60
  -1   7  -7  139.99   10.60
  -2   7  -7  275.97   14.50
  -3   7  -7    0.10    3.00
  -4   7  -7  255.07   14.10
   4  -7   7  277.87   13.90
   4  -7   7  256.17    9.70
  -5   7  -7  219.18   12.90
   5  -7   7  206.78   11.50
   5  -7   7  204.48   11.20
  -6   7  -7  210.78   12.80
   6  -7   7  216.18   14.30
   6  -7   7  215.58   17.00
  -7   7  -7  169.58   11.90
   7  -7   7  170.58   14.30
  -8   7  -7  258.27   14.80
   8  -7   7  262.17   20.10
  -9   7  -7   51.39    8.60
   9  -7   7   41.80   12.20
 -10   7  -7   13.30    8.60
  10  -7   7   -2.30   12.60
   6   6  -7   90.89   15.80
   6   6  -7   82.39   11.70
   5   6  -7   23.40   11.60
   5   6  -7   27.30    8.40
   4   6  -7   -2.50    5.50
   4   6  -7   21.20    8.20
   3   6  -7  244.78   15.40
   3   6  -7  265.17   16.10
   3   6  -7  231.68   15.90
   2   6  -7  123.99   10.10
   2   6  -7   87.69    9.30
   2   6  -7  112.39    9.70
   1   6  -7   14.70    3.80
   1   6  -7    5.90    3.80
   1   6  -7    1.70    3.40
   0   6  -7  223.68   12.60
  -1   6  -7 1001.10   31.80
  -2   6  -7   72.79    7.00
  -3   6  -7   67.79    6.70
  -4   6  -7  118.29    8.90
   4  -6   7  125.39    7.10
  -5   6  -7  383.96   19.30
   5  -6   7  352.46   15.50
   5  -6   7  378.26   16.10
   6  -6   7    4.80    5.50
   6  -6   7  -10.40    6.50
   7  -6   7   16.20    7.10
   8  -6   7  223.38   17.80
  -9   6  -7   82.89   11.80
   9  -6   7  116.69   15.90
 -10   6  -7    3.70    8.20
   7   5  -7   11.90    8.30
   6   5  -7  141.99   17.80
   6   5  -7  142.69   14.10
   5   5  -7   29.70    9.70
   5   5  -7   27.70    7.40
   4   5  -7    7.80    5.00
   4   5  -7   -1.30    6.80
   3   5  -7  112.59    9.90
   3   5  -7  116.69   10.90
   2   5  -7  213.78   11.50
   2   5  -7  225.88   11.90
   2   5  -7  240.58   13.10
   1   5  -7   66.99    8.20
   1   5  -7   63.39    7.90
   0   5  -7  226.78   12.20
  -2   5  -7  150.58    9.50
  -3   5  -7    7.20    2.90
  -4   5  -7  227.08   11.40
   4  -5   7  226.98   10.60
   4  -5   7  206.78   10.40
  -5   5  -7  116.09    8.50
   5  -5   7  100.99    8.90
   5  -5   7  118.69    9.80
  -6   5  -7   -3.30    3.20
   6  -5   7   -5.30    6.30
   6  -5   7   -6.40    5.10
  -7   5  -7   27.10    5.20
   7  -5   7   41.90    9.30
  -8   5  -7   62.79    7.00
   8  -5   7   60.89   11.50
  -9   5  -7   83.79    8.10
   9  -5   7   63.09   13.30
 -10   5  -7    8.20   10.00
  10  -5   7    0.80   12.70
   8   4  -7  -22.20    8.70
   8   4  -7  -26.50   15.10
   7   4  -7   84.59   12.10
   7   4  -7   31.60   12.60
   6   4  -7   88.39   10.90
   6   4  -7   95.39   14.60
   5   4  -7  125.99   11.20
   5   4  -7  119.09   14.20
   4   4  -7    9.10    6.10
   4   4  -7    9.50    4.70
   4   4  -7    5.10    7.70
   3   4  -7  104.69    9.20
   3   4  -7  109.39    9.50
   3   4  -7  114.89   10.00
   2   4  -7  122.19    8.30
   2   4  -7  135.59    8.50
   2   4  -7  150.08   10.10
   1   4  -7  321.37   15.60
   1   4  -7  293.67   10.80
   1   4  -7  317.87   10.90
   0   4  -7   44.50    5.90
  -1   4  -7  134.69    8.60
  -2   4  -7  156.58    9.00
  -2   4  -7  161.28   11.40
  -3   4  -7   40.10    6.70
  -3   4  -7   37.60    5.30
   3  -4   7   41.40    4.60
   3  -4   7   48.80    5.70
  -4   4  -7  167.78    8.80
  -4   4  -7  168.78   10.80
   4  -4   7  156.88   10.10
   4  -4   7  158.68    9.40
  -5   4  -7  242.18   11.10
   5  -4   7  249.88   14.20
  -6   4  -7    0.10    3.00
  -6   4  -7    6.20    5.20
   6  -4   7    2.70    4.90
  -7   4  -7   36.00    4.80
  -7   4  -7   34.00    6.70
   7  -4   7   57.69   10.50
  -8   4  -7   55.19    5.50
  -8   4  -7   43.00    7.50
   8  -4   7   62.09   12.40
   9  -4   7   53.69   14.40
  10  -4   7   24.20   14.10
   8   3  -7    6.50   12.60
   8   3  -7  -10.10   12.50
   7   3  -7    3.30   10.30
   6   3  -7  208.28   18.20
  -6  -3   7  206.98   17.90
   5   3  -7   65.29    9.90
  -5  -3   7   44.40   10.20
   4   3  -7   27.70    7.00
   4   3  -7   13.50    6.70
  -4  -3   7   18.90    5.20
   3   3  -7   75.49    8.40
   3   3  -7   74.29    7.80
  -3  -3   7   75.59   10.10
   2   3  -7  293.07   12.90
   2   3  -7  321.57   12.80
  -2  -3   7  293.47   19.00
   1   3  -7   49.20    4.40
  -1  -3   7   46.40    7.50
   0   3  -7   -0.60    1.70
   0   3  -7   -1.70    3.50
  -1   3  -7   94.39   10.00
  -1   3  -7   93.49    6.70
  -2   3  -7  133.79    7.80
  -2   3  -7  141.79    6.50
  -2   3  -7  151.28   10.90
  -3   3  -7   39.70    5.80
  -3   3  -7   36.80    5.30
  -3   3  -7   34.70    4.40
   3  -3   7   42.60    5.30
  -4   3  -7   72.29    5.40
  -4   3  -7   70.29    7.20
  -4   3  -7   63.69    6.80
   4  -3   7   71.99    7.80
  -5   3  -7  296.57   15.60
  -5   3  -7  245.78   11.60
  -5   3  -7  310.77   11.20
   5  -3   7  293.67   16.70
  -6   3  -7  181.28   13.80
  -6   3  -7  160.68    9.30
  -6   3  -7  174.38    7.80
  -7   3  -7   -3.30    3.70
   8  -3   7   76.29   12.90
  10  -3   7  -21.90   12.90
   9   2  -7   43.00   17.90
  -9  -2   7   48.30   13.70
   8   2  -7    6.50   13.90
  -8  -2   7   26.80   11.40
   7   2  -7    6.30    9.70
  -7  -2   7    0.50    8.40
   6   2  -7   71.49   12.00
  -6  -2   7   80.79   11.90
  -5  -2   7  389.56   20.40
   4   2  -7   32.70    7.00
   4   2  -7   27.40    6.80
  -4  -2   7   31.30    7.50
   3   2  -7  204.78   11.90
   3   2  -7  211.18   12.20
  -3  -2   7  196.78   13.50
   2   2  -7  235.68   11.70
   2   2  -7  237.78   11.20
  -2  -2   7  238.58   13.70
   1   2  -7  176.58   11.00
   1   2  -7  171.58    8.50
  -1  -2   7  169.18    8.10
  -1  -2   7  163.98   11.00
   0   2  -7   13.70    2.70
   0   2  -7   19.20    4.60
   0  -2   7   13.80    4.60
   1  -2   7  112.19    6.80
  -2   2  -7  372.86   13.90
  -2   2  -7  354.66   14.40
  -2   2  -7  383.06   13.60
   2  -2   7  386.96   14.60
  -3   2  -7   57.59    4.70
  -3   2  -7   53.49    5.90
  -3   2  -7   55.79    5.80
   3  -2   7   59.09    7.00
  -4   2  -7   54.19    5.70
  -4   2  -7   51.39    4.20
  -4   2  -7   70.59    8.60
   4  -2   7   56.29    7.80
  -5   2  -7   80.89    4.80
  -5   2  -7   87.99    5.90
  -5   2  -7   83.09    9.30
  -6   2  -7  204.78   14.70
  -7   2  -7    1.40    5.80
  -8   2  -7   52.39   11.60
   9  -2   7   15.40   13.90
   9   1  -7   26.00   15.50
  -9  -1   7   26.60   13.00
   8   1  -7   65.39   15.30
  -8  -1   7   64.49   12.40
   7   1  -7   23.70   10.80
  -7  -1   7   22.30    8.30
   6   1  -7   89.99   12.40
  -6  -1   7   55.69    9.80
   5   1  -7  240.48   18.80
  -5  -1   7  231.58   15.60
   4   1  -7  256.57   14.40
   4   1  -7  281.77   15.70
  -4  -1   7  229.98   14.80
   3   1  -7  157.98   10.70
  -3  -1   7  153.58   10.20
   2   1  -7  721.43   24.00
  -2  -1   7  730.83   23.70
  -2  -1   7  686.93   25.50
   1   1  -7  846.62   25.80
   1   1  -7  816.72   27.00
  -1  -1   7  847.22   25.70
  -1  -1   7  874.41   28.60
   0   1  -7   17.10    3.60
   0  -1   7   15.40    3.60
   0  -1   7   22.20    4.90
  -1   1  -7  921.21   27.40
  -1   1  -7  904.41   27.10
   1  -1   7  912.81   28.10
   1  -1   7  937.51   28.40
  -2   1  -7  971.20   27.80
  -2   1  -7  993.30   30.20
   2  -1   7 1008.30   31.10
  -3   1  -7   91.39    6.20
  -3   1  -7  109.89    8.70
  -3   1  -7   97.49    5.50
  -4   1  -7    6.20    2.90
  -4   1  -7   10.70    2.00
  -4   1  -7   12.00    4.50
   4  -1   7   13.10    7.70
  -5   1  -7  306.77   18.00
  -6   1  -7  194.98   15.60
  -7   1  -7    4.80    7.00
  -9   1  -7   92.29   16.80
   9   0  -7   66.69   18.80
   8   0  -7   55.69   15.60
  -8   0   7   56.49   11.10
   7   0  -7    1.80    7.30
  -7   0   7   -7.20    5.60
   6   0  -7  344.67   21.20
  -6   0   7  310.47   18.30
   5   0  -7   91.49   14.90
  -5   0   7  102.89   10.20
   4   0  -7   50.69    7.80
  -4   0   7   51.89    8.20
  -4   0   7   50.09    7.80
   3   0  -7  187.28   12.00
  -3   0   7  172.48   11.60
  -3   0   7  198.08   12.20
   2   0  -7 1158.48   35.30
   2   0  -7 1155.78   36.60
  -2   0   7 1125.59   35.00
  -2   0   7 1110.79   34.50
   1   0  -7  163.28    9.80
   1   0  -7  158.28   10.30
  -1   0   7  182.78   10.70
  -1   0   7  164.28   10.60
   0   0  -7  255.57   12.30
   0   0  -7  292.77   13.70
   0   0   7  304.07   13.40
   0   0   7  291.27   13.90
  -1   0  -7  445.06   16.30
  -1   0  -7  464.95   18.60
   1   0   7  451.45   18.70
   1   0   7  488.35   17.30
  -2   0  -7  515.95   17.20
  -2   0  -7  559.04   21.80
   2   0   7  582.94   18.60
  -3   0  -7  145.49    6.20
  -3   0  -7  139.19    6.50
  -3   0  -7  161.08   11.70
   3   0   7   99.29   11.10
  -4   0  -7    0.90    4.60
  -5   0  -7  218.28   15.80
  -6   0  -7  185.98   16.30
  -7   0  -7   11.20    8.30
  -8   0  -7    5.30   10.80
  -9   0  -7  102.19   17.60
  10  -1  -7  -16.00   14.30
 -10   1   7    6.50   12.90
   9  -1  -7   52.99   14.40
   8  -1  -7   46.10   13.00
  -8   1   7   39.80    8.60
   7  -1  -7   45.10    9.90
  -7   1   7   28.90    7.60
   6  -1  -7   25.00    7.40
  -6   1   7   12.70    6.20
   5  -1  -7  300.47   21.80
  -5   1   7  329.87   17.30
   4  -1  -7  283.27   16.80
  -4   1   7  281.87   15.50
  -4   1   7  242.08   18.40
   3  -1  -7   96.29    9.30
  -3   1   7  101.79   10.20
  -3   1   7   99.29    8.70
   2  -1  -7  128.69   10.10
   2  -1  -7  142.19    9.70
  -2   1   7  158.28   10.20
  -2   1   7  136.69   11.90
   1  -1  -7  583.94   20.70
   1  -1  -7  576.84   22.80
  -1   1   7  598.44   21.40
  -1   1   7  579.54   23.00
   0  -1  -7   50.89    5.50
   0  -1  -7   55.39    8.40
   0   1   7   58.89    7.00
   0   1   7   46.10    6.90
  -1  -1  -7  128.19    7.30
  -1  -1  -7  113.59    9.60
   1   1   7  119.79   10.10
   1   1   7  120.99    7.50
  -2  -1  -7   76.69    8.40
  -2  -1  -7   72.19    5.20
   2   1   7   71.79   10.20
   2   1   7   80.39    6.10
  -3  -1  -7  175.48    6.70
  -4  -1  -7   37.20    8.70
  -5  -1  -7  272.87   18.30
  -6  -1  -7   76.29   12.00
  -7  -1  -7   74.69   14.10
  -8  -1  -7   30.40   12.40
  10  -2  -7   -2.30   14.30
 -10   2   7   25.10   11.80
   9  -2  -7  148.29   19.40
   8  -2  -7  162.58   18.30
  -8   2   7  113.89   15.10
   7  -2  -7    2.40    8.10
  -7   2   7    0.80    5.00
   6  -2  -7    8.50    5.70
  -6   2   7    1.30    4.20
   5  -2  -7  200.48   15.00
  -5   2   7  189.68   13.20
   4  -2  -7   91.89   11.60
  -4   2   7  103.99    9.80
   3  -2  -7    9.50    5.30
  -3   2   7    7.80    4.10
  -3   2   7    9.10    5.80
   2  -2  -7  245.48   15.20
  -2   2   7  250.57   13.30
  -2   2   7  257.47   15.60
   1  -2  -7  383.46   19.20
   1  -2  -7  354.76   15.10
  -1   2   7  368.16   18.70
  -1   2   7  407.26   16.40
   0  -2  -7   15.60    5.30
   0  -2  -7   17.90    4.10
   0   2   7   18.40    4.30
   0   2   7   14.70    6.20
  -1  -2  -7    3.80    2.90
  -1  -2  -7    6.80    4.20
   1   2   7    8.30    3.40
  -2  -2  -7  446.36   22.20
  -2  -2  -7  428.06   13.80
   2   2   7  429.66   14.60
  -3  -2  -7   72.19   11.90
  -4  -2  -7   38.60    9.20
  -5  -2  -7   31.50    9.60
  -6  -2  -7  212.98   29.40
  -7  -2  -7   29.60   12.10
  -8  -2  -7    9.30   13.90
  10  -3  -7    4.90   13.10
 -10   3   7    0.60    9.40
   9  -3  -7  138.19   21.20
   8  -3  -7   67.29   12.50
  -8   3   7   70.99   11.20
   7  -3  -7   42.10   11.50
  -7   3   7   26.30    6.90
   6  -3  -7   82.39   13.40
  -6   3   7   59.59    9.00
   5  -3  -7  272.47   18.90
  -5   3   7  290.37   16.40
   4  -3  -7   22.60    6.90
  -4   3   7   25.10    6.20
   3  -3  -7   14.50    5.90
  -3   3   7   15.90    5.60
   2  -3  -7  160.98   13.30
  -2   3   7  161.48   10.50
   1  -3  -7  513.75   24.40
   1  -3  -7  451.15   18.00
  -1   3   7  519.95   19.30
   0  -3  -7   90.49    7.80
   0   3   7   91.29    7.30
  -1  -3  -7    5.80    3.30
  -1  -3  -7    5.50    4.70
   1   3   7    4.60    3.30
  -2  -3  -7  235.08    9.60
  -2  -3  -7  258.77   17.50
   2   3   7  242.88   10.30
  -3  -3  -7   73.59   11.60
   3   3   7   73.49    5.70
  -4  -3  -7    7.00    7.60
  -5  -3  -7   44.90   10.30
  -6  -3  -7   90.49   16.00
  -7  -3  -7   57.69   14.50
  10  -4  -7   24.20   15.30
 -10   4   7    2.30    9.50
   9  -4  -7   -9.50   11.10
  -9   4   7    2.10    8.90
   8  -4  -7  214.88   22.80
  -8   4   7  223.28   17.00
   7  -4  -7   72.69   12.60
  -7   4   7   78.59   11.80
   6  -4  -7  301.57   20.90
  -6   4   7  307.37   18.00
   5  -4  -7  108.39   13.90
  -5   4   7   99.39   10.30
   4  -4  -7  271.37   18.60
  -4   4   7  279.47   15.80
   3  -4  -7    4.30    5.00
  -3   4   7    5.40    3.70
   2  -4  -7   97.09   13.30
   1  -4  -7    2.70    4.10
  -1   4   7   -1.00    3.00
   0  -4  -7  123.39   12.20
   0  -4  -7  122.19    8.30
   0   4   7  103.69    8.40
  -1  -4  -7    2.80    3.60
  -1  -4  -7    0.40    5.20
   1   4   7    7.90    3.40
  -2  -4  -7  107.09    7.10
  -2  -4  -7  114.89   13.30
   2   4   7  101.89    7.30
  -3  -4  -7  195.28   17.80
  -4  -4  -7   98.69   16.50
  -5  -4  -7   51.89   12.70
  -6  -4  -7  107.09   18.00
  10  -5  -7   -8.90   13.60
 -10   5   7   11.50    9.70
   9  -5  -7   15.10   12.40
  -9   5   7   11.20    8.30
   8  -5  -7   87.09   16.50
  -8   5   7  112.69   14.20
   7  -5  -7   81.19   15.00
  -7   5   7   81.19   11.60
   6  -5  -7   15.50    7.40
  -6   5   7    2.10    4.80
   5  -5  -7  260.37   19.90
  -5   5   7  261.27   16.20
   4  -5  -7  449.16   25.30
  -4   5   7  512.25   22.60
   3  -5  -7  198.38   16.20
  -3   5   7  182.48   12.80
   2  -5  -7  340.77   21.70
  -2   5   7  342.57   16.60
   1  -5  -7  413.86   23.90
  -1   5   7  405.06   20.10
   0  -5  -7  220.08   17.40
   0   5   7  228.28   12.40
  -1  -5  -7    9.90    4.70
  -1  -5  -7   13.90    6.50
   1   5   7   10.90    4.50
  -2  -5  -7  106.79    8.30
  -2  -5  -7  125.39   16.50
   2   5   7  122.09    8.60
  -3  -5  -7  233.18    9.90
  -3  -5  -7  265.47   22.10
  -4  -5  -7  108.89   18.60
  -5  -5  -7   22.50   12.90
  10  -6  -7  -10.70   13.10
 -10   6   7   -0.30   10.80
   9  -6  -7   -5.80   10.90
  -9   6   7    4.70    8.80
   8  -6  -7   43.50   14.90
  -8   6   7   61.09   10.90
   7  -6  -7   30.00   10.20
  -7   6   7   32.00    8.10
   6  -6  -7   -1.30    7.40
  -6   6   7   -2.90    5.10
   5  -6  -7  165.48   17.70
  -5   6   7  154.58   13.40
   4  -6  -7  528.55   29.20
  -4   6   7  553.04   24.30
   3  -6  -7   98.39   15.50
  -3   6   7  103.19   12.20
   2  -6  -7   39.70   10.80
  -2   6   7   24.00    6.10
   1  -6  -7  488.85   27.80
  -1   6   7  483.75   20.70
   0  -6  -7  189.68   18.00
  -1  -6  -7   16.30    7.20
   1   6   7    4.50    4.80
   2   6   7   74.89    7.60
  -3  -6  -7  156.68   20.40
   3   6   7  138.99    9.00
  -4  -6  -7    9.60   10.70
  10  -7  -7   26.50   13.10
 -10   7   7   22.40   10.40
   9  -7  -7   26.00   13.70
  -9   7   7   23.60   10.20
   8  -7  -7   43.00   13.40
  -8   7   7   63.39   12.10
   6  -7  -7    6.90    9.90
  -6   7   7    4.70    5.50
   5  -7  -7   99.89   16.80
  -5   7   7   73.09   11.50
   4  -7  -7  143.49   16.40
  -4   7   7  161.18   13.90
   3  -7  -7   56.49   11.60
  -3   7   7   75.79   10.80
   2  -7  -7   -2.30    6.50
  -2   7   7    1.30    5.00
   1  -7  -7  166.68   17.70
  -1   7   7  166.98   12.30
   0  -7  -7  109.69   15.80
   0   7   7  109.39   10.60
  -1  -7  -7    6.50    9.20
  -2  -7  -7   85.29   15.50
   2   7   7   61.99    8.90
  -3  -7  -7  118.69   19.40
   9  -8  -7   24.60   13.90
  -9   8   7   19.30    9.70
   8  -8  -7   90.79   18.60
  -8   8   7   71.19   13.30
   7  -8  -7   97.29   17.30
  -7   8   7   89.69   13.60
   6  -8  -7    7.10    9.20
  -6   8   7    8.30    7.50
  -5   8   7   78.59   13.20
   4  -8  -7   42.20   12.10
  -4   8   7   24.50    8.30
   3  -8  -7   44.00   12.40
  -3   8   7   46.90    9.40
  -2   8   7    4.70    6.40
   1  -8  -7  124.99   18.30
  -1   8   7  109.29   11.60
   0  -8  -7   54.69   13.70
   0   8   7   67.39   10.30
  -1  -8  -7   -6.10    9.70
   1   8   7   14.20    7.90
  -2  -8  -7  -10.50   10.10
   2   8   7   -0.40    9.30
   9  -9  -7    0.90   12.40
  -9   9   7    8.60    9.60
   8  -9  -7   58.09   15.40
  -8   9   7   92.89   14.80
   7  -9  -7  106.79   18.10
  -7   9   7  118.49   15.70
   6  -9  -7    6.00    9.70
  -6   9   7    6.00    7.30
   5  -9  -7   11.60    9.70
  -5   9   7   10.10    7.50
   4  -9  -7  118.19   20.10
   3  -9  -7  109.89   18.90
  -3   9   7   93.09   13.70
   2  -9  -7   12.60   10.40
  -2   9   7   -0.10    6.70
   1  -9  -7   41.70   13.60
  -1   9   7   43.00    9.60
   0  -9  -7  165.98   22.30
   0   9   7  154.78   14.90
  -1  -9  -7   13.50   11.50
   1   9   7    0.20    8.70
   7 -10  -7   82.69   18.40
  -7  10   7   71.09   13.90
   6 -10  -7   39.20   14.20
  -6  10   7   40.90   11.10
   5 -10  -7   54.79   16.80
  -5  10   7   52.29   11.20
   4 -10  -7   80.89   18.00
  -4  10   7   74.89   14.60
   3 -10  -7   53.99   15.30
  -3  10   7   62.89   11.60
   2 -10  -7   -2.40    9.50
  -2  10   7    2.10    8.20
   1 -10  -7   15.40   11.40
  -1  10   7   -0.10   16.10
  -2  12  -8   39.30    9.80
  -3  12  -8   78.09   11.30
  -4  12  -8   18.80    7.50
  -5  12  -8    2.10    6.80
  -6  12  -8   85.09   12.70
  -7  12  -8   48.60   10.50
   0  11  -8   64.69   11.80
  -1  11  -8   21.80    8.00
  -2  11  -8   22.70    8.50
  -3  11  -8  148.49   15.00
  -4  11  -8   69.19   11.20
  -5  11  -8    1.90    6.80
  -6  11  -8   47.00   10.10
   6 -11   8   26.20    9.30
  -7  11  -8   58.29   10.30
   7 -11   8   47.20   10.90
  -8  11  -8   15.60    9.70
   8 -11   8   26.30   13.60
   2  10  -8   52.69   10.80
   1  10  -8   61.59    9.80
   1  10  -8   47.30    9.30
   0  10  -8  136.69   14.60
  -1  10  -8   39.80    9.10
  -2  10  -8   31.70    7.50
   6 -10   8   40.80    8.70
   6 -10   8   50.29    7.70
   7 -10   8   90.49   11.40
  -8  10  -8   -5.60    7.00
   8 -10   8   -6.90   12.60
  -9  10  -8    5.70    8.60
   9 -10   8  -16.20   12.90
   3   9  -8   56.79   11.90
   3   9  -8   25.60    9.70
   2   9  -8    9.50    7.00
   2   9  -8    4.50    8.50
   1   9  -8  142.39   11.40
   1   9  -8  148.29   13.90
   1   9  -8  155.48   18.60
   0   9  -8  128.39   17.50
  -1   9  -8   22.20    6.40
  -2   9  -8   31.40    7.50
  -3   9  -8  171.28   13.30
  -4   9  -8   91.89   11.20
  -5   9  -8   19.40    6.20
  -6   9  -8   56.39    8.70
   6  -9   8   57.89    8.40
   6  -9   8   66.09    8.00
  -7   9  -8   76.29   10.10
   7  -9   8   93.59   11.20
   7  -9   8   61.59   13.20
  -8   9  -8   -0.60    7.20
   8  -9   8   -2.50   16.60
  -9   9  -8   -7.40    7.80
   9  -9   8   -3.10   11.60
   4   8  -8   22.20    9.50
   4   8  -8   22.30   12.30
   3   8  -8   87.79   19.40
   3   8  -8   89.69   12.00
   2   8  -8    3.30    7.10
   2   8  -8    3.90    8.10
   1   8  -8   61.39    6.80
   1   8  -8   44.80    7.20
   1   8  -8   37.00    8.10
   0   8  -8  174.48   13.40
  -1   8  -8  148.99   12.10
  -2   8  -8   10.80    4.90
  -3   8  -8   47.60    7.10
  -4   8  -8  256.87   15.30
  -5   8  -8   35.00    7.20
   5  -8   8   32.20    6.00
  -6   8  -8   91.69   10.30
   6  -8   8   86.19    8.90
   6  -8   8   68.79    9.50
  -7   8  -8  154.88   12.10
   7  -8   8  126.89   13.90
   7  -8   8  132.79   14.10
  -8   8  -8  210.28   14.70
   8  -8   8  233.28   18.90
  -9   8  -8    2.90    7.90
   9  -8   8   -9.70   11.00
 -10   8  -8   46.30   11.50
  10  -8   8    1.10   15.10
   5   7  -8   31.30   13.60
   5   7  -8   33.50   10.40
   4   7  -8   81.49   13.40
   4   7  -8  133.59   13.10
   3   7  -8  104.69   12.90
   3   7  -8   91.99   12.20
   3   7  -8  139.59   12.30
   2   7  -8   10.00    6.90
   2   7  -8    3.70    4.70
   2   7  -8    0.10    5.30
   1   7  -8   68.59    9.00
   1   7  -8   59.99    7.20
   0   7  -8  189.98   12.60
  -1   7  -8   15.70    5.10
  -2   7  -8   49.30    7.40
  -3   7  -8  262.87   14.30
  -4   7  -8  362.96   17.40
  -5   7  -8    9.60    4.80
   5  -7   8    8.10    4.70
   5  -7   8    9.50    4.50
  -6   7  -8   30.60    6.30
   6  -7   8   24.70    7.70
   6  -7   8   41.40    7.00
  -7   7  -8  234.48   13.60
   7  -7   8  258.77   17.50
  -8   7  -8  195.38   12.90
   8  -7   8  184.38   18.10
  -9   7  -8   -8.30    6.20
   9  -7   8    9.50   11.00
 -10   7  -8   33.50   10.30
  10  -7   8   33.50   15.40
   6   6  -8   39.50   12.80
   6   6  -8   19.20    9.10
   5   6  -8   13.50   11.00
   5   6  -8   12.80    8.60
   4   6  -8   29.20    7.40
   4   6  -8   27.60   11.60
   3   6  -8  184.78   14.90
   3   6  -8  186.28   14.20
   3   6  -8  172.38   13.70
   2   6  -8  157.28    9.90
   2   6  -8  130.29    9.60
   2   6  -8  132.79   11.40
   1   6  -8  124.39   10.50
   1   6  -8  135.69    7.30
   0   6  -8  163.38   11.30
  -1   6  -8  128.39    9.70
  -2   6  -8    2.60    3.50
  -3   6  -8  302.57   14.80
  -4   6  -8  207.58   12.20
  -5   6  -8  120.79    9.60
   5  -6   8  127.39    9.90
   5  -6   8  131.19    9.00
  -6   6  -8    5.00    4.10
   6  -6   8   -1.70    8.00
   6  -6   8    1.10    5.50
  -7   6  -8  144.19   10.70
   7  -6   8  174.88   14.70
   8  -6   8  100.99   13.80
  -9   6  -8   12.30    7.60
   9  -6   8   -2.60   10.50
 -10   6  -8   36.30   10.60
  10  -6   8   19.40   16.40
   7   5  -8   46.00   10.20
   6   5  -8   72.99   14.60
   6   5  -8   85.09   12.40
   5   5  -8   17.10    7.00
   5   5  -8   20.80    9.40
   4   5  -8   67.09    9.80
   4   5  -8   76.89   10.60
   3   5  -8  240.08   14.50
   3   5  -8  241.78   14.90
   3   5  -8  284.07   15.80
   2   5  -8  221.08   11.30
   2   5  -8  226.78   13.40
   2   5  -8  223.38   11.20
   1   5  -8    4.20    3.10
   0   5  -8  314.57   15.40
  -1   5  -8  413.86   17.50
  -2   5  -8    0.50    2.50
  -4   5  -8  179.48   10.50
   4  -5   8  155.28    8.90
   4  -5   8  164.98    9.00
  -5   5  -8  112.39    8.60
   5  -5   8  113.29   10.10
   5  -5   8  105.59    9.90
  -6   5  -8   14.00    4.40
   6  -5   8   10.50    7.80
   6  -5   8    8.50    6.40
  -7   5  -8   33.70    8.80
  -7   5  -8   54.29    6.50
   7  -5   8   39.20    9.60
  -8   5  -8   51.89    6.60
  -8   5  -8   48.70   10.50
   8  -5   8   53.49   11.80
  -9   5  -8   14.70    6.40
   9  -5   8   23.00   12.10
  10  -5   8   25.30   15.50
   7   4  -8  143.59   20.10
   6   4  -8   31.90   11.70
   6   4  -8   41.00    9.00
   5   4  -8   13.10    8.00
   5   4  -8   -2.80    5.20
   4   4  -8  231.68   14.40
   4   4  -8  225.68   16.50
   4   4  -8  248.28   15.60
   3   4  -8  162.38   11.70
   3   4  -8  192.58   12.00
   3   4  -8  155.58   11.60
   2   4  -8  124.59    8.30
   2   4  -8  117.39    8.30
   2   4  -8  124.69    9.90
   1   4  -8    6.10    3.70
   1   4  -8    8.50    2.20
   1   4  -8   11.60    2.60
   0   4  -8  282.87   13.90
  -1   4  -8  255.47   14.10
  -2   4  -8   31.50    5.30
  -3   4  -8   52.69    9.30
  -3   4  -8   66.89    6.10
   3  -4   8   50.49    5.40
  -4   4  -8  393.76   15.00
  -4   4  -8  306.27   15.80
   4  -4   8  364.16   15.10
   4  -4   8  367.86   15.50
  -5   4  -8   25.20    4.80
  -5   4  -8   14.30    5.70
   5  -4   8   20.30    5.50
   5  -4   8   17.10    7.10
  -6   4  -8   10.40    4.00
   6  -4   8   12.00    6.70
  -7   4  -8   64.69    6.80
  -7   4  -8   54.29    7.30
   7  -4   8   70.69   11.50
  -8   4  -8   73.99    7.20
  -8   4  -8   65.49    7.20
   8  -4   8   55.19   12.30
   9  -4   8   24.60   13.60
  10  -4   8    5.50   13.70
   8   3  -8   14.50    8.90
   8   3  -8   19.40   15.20
   7   3  -8  134.19   17.50
   6   3  -8  142.99   16.50
  -6  -3   8  175.58   18.10
   5   3  -8   -6.50    6.90
  -5  -3   8   -1.90    7.00
   4   3  -8  248.28   14.90
   4   3  -8  229.18   15.70
  -4  -3   8  262.37   17.10
   3   3  -8  330.07   15.80
   3   3  -8  320.27   15.20
  -3  -3   8  322.67   18.50
   2   3  -8   69.29    6.50
   2   3  -8   58.09    6.30
  -2  -3   8   55.59    9.00
   1   3  -8    3.20    2.80
   1   3  -8   -0.50    3.10
  -1  -3   8    1.00    4.60
   0   3  -8  206.88   10.90
  -1   3  -8   34.40    3.20
  -1   3  -8   49.70    6.50
   1  -3   8   37.00    3.20
  -2   3  -8   97.19    7.40
  -2   3  -8  108.79    9.10
   2  -3   8  106.09    6.70
  -3   3  -8    9.50    3.30
  -3   3  -8   10.50    3.40
  -3   3  -8   14.60    4.40
   3  -3   8    6.20    3.80
  -4   3  -8  325.57   12.60
  -4   3  -8  319.47   15.00
  -4   3  -8  304.07   15.60
   4  -3   8  314.97   15.90
  -5   3  -8  139.69    7.90
  -5   3  -8  134.69    9.00
  -5   3  -8  146.59   11.50
   5  -3   8  131.19   13.20
  -6   3  -8   69.09    5.40
  -6   3  -8   55.79   10.00
  -6   3  -8   53.29    5.60
  -7   3  -8   20.60    8.30
  -7   3  -8   25.20    7.60
   8  -3   8   64.89   13.70
   9  -3   8   20.00   13.00
  -8  -2   8   15.90   13.00
   7   2  -8   38.10   12.20
  -7  -2   8   29.90   11.20
   6   2  -8  259.27   20.30
  -6  -2   8  246.58   18.70
   5   2  -8   38.60    9.80
  -5  -2   8   57.29    9.70
   4   2  -8   15.20    7.00
   4   2  -8   24.70    6.90
  -4  -2   8    8.60    7.00
   3   2  -8  293.47   14.60
   3   2  -8  292.77   15.20
  -3  -2   8  291.77   17.40
   2   2  -8  394.36   15.90
  -2  -2   8  376.66   19.20
   1   2  -8    2.30    3.00
  -1  -2   8    3.50    4.30
  -1  -2   8   -0.30    3.20
   0   2  -8  203.08    9.20
   0  -2   8  216.38   13.00
   0  -2   8  200.78    9.60
  -1   2  -8  554.14   17.70
  -1   2  -8  538.75   20.20
   1  -2   8  557.84   18.50
  -2   2  -8   88.79    7.30
  -2   2  -8   70.09    6.40
  -2   2  -8   66.99    5.60
   2  -2   8   73.49    7.00
  -3   2  -8   34.00    4.30
  -3   2  -8   36.50    5.40
  -3   2  -8   33.70    5.60
   3  -2   8   39.40    6.50
  -4   2  -8  261.27   11.40
  -4   2  -8  289.27   10.80
  -4   2  -8  300.97   15.50
   4  -2   8  280.97   16.10
  -5   2  -8  284.47   11.40
  -5   2  -8  298.97   10.20
  -6   2  -8   87.09   12.10
  -7   2  -8   81.69   13.80
  -8   2  -8   88.79   14.70
   9  -2   8    2.90   13.70
   9   1  -8   72.19   17.30
  -9  -1   8   51.89   15.90
   8   1  -8    3.10   11.80
  -8  -1   8    2.90   16.40
   7   1  -8   74.69   14.30
  -7  -1   8   59.09   11.60
   6   1  -8  123.99   15.60
  -6  -1   8   90.29   12.90
   5   1  -8   85.09   13.20
  -5  -1   8   99.29   12.50
   4   1  -8  169.28   12.70
   4   1  -8  155.88   12.60
  -4  -1   8  166.38   12.90
   3   1  -8  197.98   12.90
  -3  -1   8  188.08   13.00
  -3  -1   8  189.18   12.60
   2   1  -8  143.19   10.10
  -2  -1   8  134.59   12.70
  -2  -1   8  125.69    9.70
   1   1  -8   11.00    3.80
  -1  -1   8   18.10    4.80
  -1  -1   8   15.90    4.50
   0   1  -8  217.28   12.10
   0   1  -8  220.78   11.20
   0  -1   8  225.18   12.80
   0  -1   8  225.38   11.90
  -1   1  -8  685.73   22.90
  -1   1  -8  630.94   22.20
   1  -1   8  672.13   23.40
   1  -1   8  645.84   23.30
  -2   1  -8   81.79    7.40
  -2   1  -8   91.59    7.30
   2  -1   8   85.29    9.20
  -3   1  -8    1.10    2.50
  -3   1  -8    2.40    3.30
  -3   1  -8    5.80    3.80
   3  -1   8   11.40    6.10
  -4   1  -8  120.09    6.00
  -4   1  -8  103.39    6.60
  -4   1  -8  127.79   10.90
  -5   1  -8  439.96   22.00
  -6   1  -8  112.79   13.00
  -7   1  -8   21.30    9.80
  -8   1  -8   77.69   14.90
  -9   1  -8   66.59   16.00
   9   0  -8   18.70   15.50
  -9   0   8   12.30   12.70
   8   0  -8   -5.80   11.00
  -8   0   8   12.30   12.60
   7   0  -8    6.90    9.50
  -7   0   8   11.90    8.10
   6   0  -8  110.39   13.10
  -6   0   8  125.09   12.50
   5   0  -8   52.39    8.70
  -5   0   8   70.99   10.80
   4   0  -8    6.90    5.10
  -4   0   8   13.40    5.10
   3   0  -8  150.18   11.30
  -3   0   8  149.39   11.70
  -3   0   8  133.59   11.00
   2   0  -8  393.66   18.00
  -2   0   8  374.36   17.30
   1   0  -8  146.49   10.20
  -1   0   8  138.29   10.40
  -1   0   8  153.68   10.70
   0   0  -8   82.99    7.80
   0   0  -8   85.59    7.40
   0   0   8   86.99    8.40
   0   0   8   92.89    7.80
  -1   0  -8  273.37   14.20
   1   0   8  252.37   16.10
   1   0   8  296.37   13.40
  -2   0  -8  224.38   10.50
  -2   0  -8  227.88   13.60
   2   0   8  203.08   13.80
   2   0   8  232.38   11.50
  -3   0  -8    7.80    2.50
  -3   0  -8    9.90    3.30
  -3   0  -8   11.30    6.00
  -4   0  -8   81.69   11.20
  -5   0  -8  255.87   17.70
  -6   0  -8   62.59   11.20
  -7   0  -8    1.20   10.60
  -8   0  -8   49.30   13.90
   9  -1  -8   72.49   16.30
  -9   1   8   72.59   15.00
   8  -1  -8   30.10   11.90
  -8   1   8   16.30    9.90
   7  -1  -8   35.30   11.10
  -7   1   8   15.00    6.90
   6  -1  -8  156.18   14.70
  -6   1   8  166.28   13.50
   5  -1  -8  242.78   16.80
  -5   1   8  262.47   16.10
   4  -1  -8   17.80    5.80
  -4   1   8   18.60    5.50
   3  -1  -8  118.29   10.80
  -3   1   8  116.79    9.70
  -3   1   8  106.49   11.20
   2  -1  -8  285.97   15.50
  -2   1   8  246.48   15.40
  -2   1   8  259.97   16.30
   1  -1  -8  142.39   10.80
  -1   1   8  133.49   11.70
  -1   1   8  147.69   10.10
   0  -1  -8   72.19    8.10
   0  -1  -8   78.79    8.30
   0   1   8   60.79    6.60
   0   1   8   73.89   10.20
  -1  -1  -8  391.86   15.60
  -1  -1  -8  450.65   20.30
   1   1   8  406.66   20.50
   1   1   8  429.06   16.60
  -2  -1  -8  231.88   14.90
  -2  -1  -8  229.48   10.10
   2   1   8  223.78   11.00
  -3  -1  -8   15.50    5.50
  -3  -1  -8   14.40    3.00
  -4  -1  -8  134.69   12.80
  -5  -1  -8  129.49   14.70
  -6  -1  -8   36.00   11.10
  -7  -1  -8   -6.20    9.30
  -8  -1  -8   30.30   14.50
  10  -2  -8   48.30   17.40
 -10   2   8   22.40   12.50
   9  -2  -8   56.69   16.00
  -9   2   8   83.89   12.80
   8  -2  -8    4.60   11.50
  -8   2   8   25.30    8.80
   7  -2  -8   59.09   12.40
  -7   2   8   34.40    8.50
   6  -2  -8  223.58   18.40
  -6   2   8  208.98   15.80
   5  -2  -8  141.79   13.20
  -5   2   8  136.29   12.10
   4  -2  -8   39.70    7.70
  -4   2   8   48.40    8.10
   3  -2  -8  300.27   18.00
  -3   2   8  290.27   15.90
   2  -2  -8  311.17   17.90
   1  -2  -8  121.99   11.60
  -1   2   8  125.89    9.40
   0  -2  -8    8.60    4.90
   0  -2  -8    7.90    3.50
   0   2   8   20.00    4.90
  -1  -2  -8  439.56   24.20
  -1  -2  -8  396.56   15.60
   1   2   8  415.46   16.20
  -2  -2  -8  317.07   12.10
  -2  -2  -8  341.87   19.00
   2   2   8  317.67   13.10
  -3  -2  -8    2.10    5.20
  -3  -2  -8    3.80    2.70
  -4  -2  -8   74.39   12.40
  -5  -2  -8   49.60   10.20
  -6  -2  -8    3.20   10.20
  -7  -2  -8    5.20   11.30
  10  -3  -8   24.50   14.90
 -10   3   8   48.30   13.20
   9  -3  -8   92.89   17.20
  -9   3   8   87.99   15.30
   8  -3  -8   -0.80    9.50
  -8   3   8    5.10   11.20
   7  -3  -8   87.99   14.70
  -7   3   8   71.99   11.70
   6  -3  -8  286.67   20.40
  -6   3   8  302.17   18.50
   5  -3  -8  413.16   23.90
  -5   3   8  414.46   21.20
   4  -3  -8    9.80    6.00
  -4   3   8    6.50    5.00
   3  -3  -8  149.99   12.30
  -3   3   8  121.99   10.70
   2  -3  -8  116.09   11.80
  -2   3   8   83.59    8.70
   1  -3  -8    5.60    4.50
  -1   3   8   -2.60    3.60
   0  -3  -8   27.50    5.50
   0  -3  -8   22.90    7.00
   0   3   8   23.00    5.30
  -1  -3  -8  100.79   11.50
   1   3   8   92.59    7.90
  -2  -3  -8   73.59   12.20
  -2  -3  -8   62.49    6.20
   2   3   8   64.89    6.50
  -3  -3  -8   48.70   11.30
  -3  -3  -8   41.40    4.10
  -4  -3  -8   11.80    8.60
  -5  -3  -8   88.09   15.20
  -6  -3  -8   68.69   16.20
  10  -4  -8   56.29   17.40
 -10   4   8   29.70   12.10
   9  -4  -8   80.09   17.40
  -9   4   8   89.89   13.40
   8  -4  -8   55.49   16.50
  -8   4   8   77.39   13.30
   7  -4  -8   10.50    8.80
  -7   4   8    9.60    7.00
   6  -4  -8   98.99   15.60
  -6   4   8   85.99   11.50
   5  -4  -8  238.78   18.90
  -5   4   8  217.98   15.40
   4  -4  -8   90.49   14.10
  -4   4   8  102.19   10.30
   3  -4  -8    3.60    5.40
  -3   4   8    6.40    4.40
   2  -4  -8  284.37   19.40
  -2   4   8  287.77   15.30
   1  -4  -8  278.57   18.60
   0  -4  -8   20.80    7.80
   0   4   8   20.30    5.50
  -1  -4  -8  148.29    9.60
  -1  -4  -8  183.28   16.20
   1   4   8  159.68    9.90
  -2  -4  -8  389.56   24.40
  -2  -4  -8  320.47   13.00
   2   4   8  362.96   14.10
  -3  -4  -8   92.69   15.00
  -4  -4  -8   -0.40    8.30
  -5  -4  -8   84.19   15.50
  -6  -4  -8   96.49   18.40
  10  -5  -8  -16.60   13.80
 -10   5   8   28.00   12.50
   9  -5  -8   98.69   19.70
  -9   5   8   89.79   14.90
   8  -5  -8   94.19   18.50
  -8   5   8   85.19   13.00
   7  -5  -8  -13.50    9.10
  -7   5   8   -2.40    6.70
   6  -5  -8   52.69   12.10
  -6   5   8   54.19   10.10
   5  -5  -8  111.09   15.20
  -5   5   8  103.59   13.40
   4  -5  -8   67.29   13.10
  -4   5   8   60.59    9.60
   3  -5  -8   78.19   13.20
  -3   5   8   74.99   10.70
   2  -5  -8  333.87   22.30
  -2   5   8  326.27   17.10
   1  -5  -8  311.87   21.20
  -1   5   8  280.47   15.60
   0  -5  -8    8.90    6.10
   0   5   8   27.50    6.90
  -1  -5  -8   26.70    6.50
  -1  -5  -8   30.00    9.90
   1   5   8   41.70    7.10
  -2  -5  -8  258.67   12.80
  -2  -5  -8  328.37   23.50
   2   5   8  250.97   12.50
  -3  -5  -8   89.29   16.30
  -4  -5  -8   10.20   11.00
  -5  -5  -8   61.19   16.00
  10  -6  -8   25.60   14.90
 -10   6   8   -0.10    9.50
   9  -6  -8   51.79   14.70
  -9   6   8   29.50   10.90
   8  -6  -8   75.49   16.90
  -8   6   8   75.19   11.90
  -7   6   8    4.50    8.00
   6  -6  -8   30.90   11.50
  -6   6   8   30.70    8.10
   5  -6  -8  141.69   19.20
  -5   6   8  112.89   12.30
   4  -6  -8  100.49   15.80
  -4   6   8   98.59   13.10
   3  -6  -8   13.60    8.20
  -3   6   8   12.70    5.30
   2  -6  -8  225.98   20.00
  -2   6   8  238.18   15.40
   1  -6  -8  129.99   18.20
  -1   6   8  136.69   11.70
   0  -6  -8   33.00   10.90
   0   6   8   56.69    8.60
   1   6   8   48.40    7.50
  -2  -6  -8   78.49   15.00
   2   6   8   90.89    8.90
  -3  -6  -8  140.69   20.70
  -4  -6  -8  -13.40   11.00
   9  -7  -8   63.29   15.60
  -9   7   8   59.69   11.60
   8  -7  -8   96.69   18.10
  -8   7   8   57.99   12.50
   7  -7  -8   -4.40    9.90
  -7   7   8   17.40    7.80
   6  -7  -8   47.30   15.40
   5  -7  -8  124.99   19.00
  -5   7   8  121.79   15.40
   4  -7  -8  151.88   21.30
  -4   7   8  128.69   12.70
   3  -7  -8   -0.10    7.70
  -3   7   8    3.80    5.60
   2  -7  -8   75.39   15.30
  -2   7   8   79.49   11.60
  -1   7   8  139.89   12.50
   0  -7  -8   39.50   12.60
   0   7   8   40.90    9.10
  -1  -7  -8   21.80   11.10
   1   7   8   23.00    7.40
  -2  -7  -8   81.69   17.40
   2   7   8  100.89   10.20
  -3  -7  -8   82.59   17.50
   9  -8  -8   60.59   17.50
  -9   8   8   53.09   12.70
   8  -8  -8   96.29   18.50
  -8   8   8   58.09   11.60
   7  -8  -8   39.90   13.90
  -7   8   8   38.40   11.20
   6  -8  -8   60.99   15.60
  -6   8   8   32.70   10.30
   5  -8  -8  124.89   18.40
  -5   8   8  155.08   14.70
   4  -8  -8   32.10   13.70
  -4   8   8   44.40   10.00
   3  -8  -8   31.80   19.40
  -3   8   8   32.60    8.20
   2  -8  -8   65.99   14.90
  -2   8   8   70.79   11.50
   1  -8  -8  195.58   21.60
  -1   8   8  224.98   16.40
   0  -8  -8   48.60   13.70
   0   8   8   21.10    7.70
  -1  -8  -8   30.20   12.00
   1   8   8   18.60    8.70
   8  -9  -8   82.79   16.80
  -8   9   8   86.29   15.30
   7  -9  -8   48.00   15.10
  -7   9   8   48.20   11.60
   6  -9  -8   10.00   11.30
  -6   9   8   33.90   10.10
   5  -9  -8   62.69   15.50
  -5   9   8   53.69   10.70
   4  -9  -8   79.29   16.10
  -4   9   8   46.80   11.20
   3  -9  -8   -8.60    8.50
  -3   9   8    4.50    8.00
   2  -9  -8   36.90   12.90
  -2   9   8   33.20    9.60
   1  -9  -8   41.00   13.50
  -1   9   8   51.89   11.40
   6 -10  -8    7.00   11.90
  -6  10   8  -16.00    7.80
   5 -10  -8  110.69   21.90
  -5  10   8   57.79   13.10
   4 -10  -8  117.89   21.10
  -4  10   8   90.59   14.20
   3 -10  -8   17.60   11.80
  -3  10   8   -5.40    9.00
  -3  12  -9  107.79   14.10
  -4  12  -9  -14.10    6.30
  -5  12  -9   -9.00    6.70
  -6  12  -9   82.89   13.20
   0  11  -9   -4.40    7.90
  -1  11  -9    4.30    7.50
  -2  11  -9  142.49   14.20
  -3  11  -9   59.29   11.20
  -4  11  -9   -0.20    7.00
  -5  11  -9   43.00    9.70
  -6  11  -9   90.39   12.20
  -7  11  -9   20.10    8.90
   1  10  -9   92.89   12.70
   0  10  -9   22.30    7.80
  -1  10  -9   11.40    6.50
  -2  10  -9  218.48   16.80
  -3  10  -9   71.29   10.80
  -4  10  -9    5.00    6.50
  -5  10  -9   96.49   12.20
  -6  10  -9  102.49   11.90
  -7  10  -9   26.70    8.80
   7 -10   9   27.80    8.80
  -8  10  -9    3.70    7.90
   8 -10   9   24.50   12.60
   3   9  -9  -14.20   13.90
   3   9  -9    8.10    8.00
   2   9  -9   54.79   10.10
   2   9  -9   32.00    8.20
   1   9  -9  100.69   12.60
   0   9  -9  214.38   17.90
  -2   9  -9  124.99   12.30
  -3   9  -9  101.79   11.60
  -4   9  -9   27.60    7.00
  -5   9  -9    2.20    6.40
  -6   9  -9   88.19   10.80
  -7   9  -9   57.39    9.90
   7  -9   9   51.99    9.30
  -8   9  -9    1.10    7.30
   8  -9   9   11.50   10.80
  -9   9  -9   84.79   12.40
   9  -9   9  118.49   16.80
   4   8  -9   44.50   12.20
   4   8  -9   35.30   10.50
   3   8  -9   16.50    6.80
   3   8  -9    6.80    8.70
   2   8  -9   16.80    7.80
   2   8  -9   19.80    6.60
   0   8  -9   12.80    5.90
  -1   8  -9    2.30    5.50
  -2   8  -9  159.38   12.80
  -3   8  -9  232.68   15.00
  -4   8  -9   10.00    5.80
  -5   8  -9   32.00    6.70
  -6   8  -9   86.19   10.20
   6  -8   9   90.09    9.50
   6  -8   9  106.49   10.80
  -7   8  -9   87.69   10.20
   7  -8   9   98.49   11.50
   7  -8   9   49.60   16.10
  -8   8  -9    4.50    6.80
   8  -8   9    9.60   13.10
  -9   8  -9   16.80    8.90
   9  -8   9    7.90   13.50
   5   7  -9   20.10    9.50
   5   7  -9   23.60   13.20
   4   7  -9   50.89   11.40
   4   7  -9   53.69   10.80
   3   7  -9   49.99    9.50
   3   7  -9   46.60    9.50
   2   7  -9    4.30    5.30
   2   7  -9    7.40    6.20
   2   7  -9    0.30    6.00
   1   7  -9   74.59   10.10
   0   7  -9   60.59    8.70
  -1   7  -9   -1.40    4.00
  -2   7  -9   66.59    9.10
  -3   7  -9  339.57   17.00
  -4   7  -9   65.99    8.70
  -5   7  -9   38.80    7.20
  -6   7  -9   86.99    9.60
   6  -7   9   64.39    9.20
   6  -7   9   86.59   10.10
  -7   7  -9  107.29   10.60
   7  -7   9   86.49   15.00
   7  -7   9  123.79   14.30
  -8   7  -9   14.10    6.60
   8  -7   9   19.60   10.70
  -9   7  -9   10.10    8.30
   9  -7   9   15.60   13.30
   6   6  -9    4.90    8.90
   6   6  -9  -28.40   13.10
   5   6  -9   15.60    8.20
   5   6  -9   23.20   11.20
   4   6  -9   76.69   11.70
   4   6  -9   87.99   12.20
   3   6  -9   98.79   12.20
   3   6  -9   82.89    9.60
   3   6  -9   90.29   11.10
   2   6  -9   11.80    5.00
   2   6  -9   14.20    5.50
   2   6  -9   13.60    5.20
   1   6  -9   99.09    9.50
   0   6  -9   49.50    8.00
  -1   6  -9  103.59    9.40
  -2   6  -9   33.60    5.70
  -3   6  -9  310.67   15.60
  -4   6  -9  135.09    9.90
  -5   6  -9    6.80    4.90
   5  -6   9   11.30    5.00
   5  -6   9    9.00    5.70
  -6   6  -9   81.59    8.80
   6  -6   9  121.79   12.00
  -7   6  -9  154.58   11.10
   7  -6   9  145.49   15.60
  -8   6  -9   13.70    6.20
   8  -6   9   29.60   10.30
  -9   6  -9   26.60    8.20
   9  -6   9   -4.30   12.40
   6   5  -9   22.10   12.30
   6   5  -9   -2.30    8.50
   5   5  -9   11.60   10.10
   5   5  -9   26.60    7.20
   4   5  -9  139.19   14.20
   4   5  -9  166.48   14.40
   3   5  -9   44.20    7.40
   3   5  -9   42.80    8.00
   3   5  -9   52.69    8.10
   2   5  -9   35.00    6.70
   2   5  -9   37.10    5.40
   2   5  -9   45.20    5.70
   1   5  -9  207.98   13.10
   0   5  -9  294.87   15.20
  -1   5  -9   64.09    8.30
  -2   5  -9   31.00    5.80
  -3   5  -9  154.18   10.30
  -4   5  -9  181.98   11.00
   4  -5   9  167.58    9.30
   4  -5   9  171.18   10.20
   5  -5   9   18.50    6.80
   5  -5   9   10.00    5.70
  -6   5  -9   60.09    6.90
   6  -5   9   44.40   10.80
   6  -5   9   56.69    9.50
  -7   5  -9  109.79    9.00
   7  -5   9  109.29   13.50
  -8   5  -9   71.89    7.90
   8  -5   9   63.09   13.00
  -9   5  -9   19.20    7.50
   9  -5   9   51.99   14.50
   7   4  -9   80.79   13.10
   7   4  -9   73.29   16.40
   6   4  -9   10.30    7.20
   6   4  -9   -1.00   10.00
   5   4  -9   53.09   11.30
   5   4  -9   80.49   10.40
   4   4  -9  158.48   12.80
   4   4  -9  119.99   13.00
   4   4  -9  158.18   13.50
   3   4  -9  275.87   14.60
   3   4  -9  244.08   14.10
   3   4  -9  255.07   15.10
   2   4  -9   84.39    7.10
   2   4  -9   69.69    8.70
   2   4  -9   79.69    7.00
   1   4  -9  295.07   15.20
   0   4  -9  606.24   22.90
  -1   4  -9   20.50    4.50
  -2   4  -9   24.00    4.80
  -3   4  -9   74.09    7.20
   3  -4   9   67.89    6.20
  -4   4  -9  180.78   10.30
   4  -4   9  187.78   11.80
  -5   4  -9    0.30    3.60
  -5   4  -9   -2.30    6.50
   5  -4   9   -0.70    7.20
  -6   4  -9   29.50    7.40
  -6   4  -9   39.70    5.40
   6  -4   9   40.70    9.40
  -7   4  -9   34.10    7.70
  -7   4  -9   47.60    5.90
   7  -4   9   49.00   11.10
  -8   4  -9   28.60    7.40
   8  -4   9   23.50   11.00
   8   3  -9   28.80   16.20
   8   3  -9   60.89   12.40
   7   3  -9   41.60   13.90
  -7  -3   9   35.50   12.00
   6   3  -9    3.90    9.20
  -6  -3   9   16.80   11.60
   5   3  -9   15.20    7.20
  -5  -3   9    1.40    7.90
   4   3  -9  157.18   12.90
   4   3  -9  154.58   14.20
  -4  -3   9  156.98   15.40
   3   3  -9  165.38   11.60
   3   3  -9  164.78   11.60
  -3  -3   9  166.68   14.80
   2   3  -9  286.27   12.90
   2   3  -9  263.57   12.10
  -2  -3   9  259.37   17.30
   1   3  -9  264.27   10.30
  -1  -3   9  251.97   16.50
   0   3  -9  632.94   22.40
   0   3  -9  596.94   16.70
  -1   3  -9  222.68    8.40
   1  -3   9  234.28   10.20
  -2   3  -9   46.90    5.60
  -2   3  -9   53.59    6.80
   2  -3   9   40.10    4.80
  -3   3  -9  333.67   15.90
  -3   3  -9  366.76   14.60
  -3   3  -9  354.46   14.30
   3  -3   9  346.17   15.40
  -4   3  -9  267.87   14.10
  -4   3  -9  233.78   12.40
  -4   3  -9  262.67   11.60
  -5   3  -9    2.80    5.10
  -5   3  -9   -2.00    3.30
  -5   3  -9    3.30    5.50
  -6   3  -9   54.89    5.70
  -6   3  -9   58.59   10.30
  -6   3  -9   37.30    6.20
  -7   3  -9   87.29   12.40
   8  -3   9   32.50   11.70
   9  -3   9   -1.00   13.90
   8   2  -9   34.30   16.80
  -8  -2   9   47.70   15.40
   7   2  -9   70.19   14.10
  -7  -2   9   78.69   14.80
   6   2  -9   67.59   12.30
  -6  -2   9   72.79   12.90
   5   2  -9   33.90    9.20
  -5  -2   9   30.00    8.70
   4   2  -9  265.77   16.40
   4   2  -9  286.47   16.80
  -4  -2   9  274.27   18.40
   3   2  -9   60.29    8.10
   3   2  -9   49.99    8.20
  -3  -2   9   57.59    9.20
   2   2  -9    7.60    4.30
  -2  -2   9    7.10    4.40
  -2  -2   9    8.90    4.90
   1   2  -9  169.58    9.60
  -1  -2   9  165.28   12.60
  -1  -2   9  173.28   10.10
   0   2  -9  338.07   13.40
   0  -2   9  334.17   13.60
  -1   2  -9   44.00    5.50
   1  -2   9   44.90    6.20
  -2   2  -9   51.39    6.80
  -2   2  -9   37.70    6.50
  -2   2  -9   47.50    6.20
   2  -2   9   44.50    6.90
  -3   2  -9  316.87   12.60
  -3   2  -9  324.77   14.90
  -3   2  -9  271.17   12.90
   3  -2   9  227.28   15.50
  -4   2  -9  303.57   11.90
  -4   2  -9  309.97   16.10
  -4   2  -9  301.87   13.10
   4  -2   9  259.77   18.90
  -5   2  -9    8.60    4.10
  -5   2  -9   21.60    3.40
  -5   2  -9   12.50    6.40
  -6   2  -9   21.30    7.90
  -7   2  -9   92.19   13.50
  -8   2  -9   81.19   21.40
  -8  -1   9   12.40   11.50
   7   1  -9   52.59   12.70
   6   1  -9   52.09   11.80
  -6  -1   9   18.60    9.10
   5   1  -9   16.40    7.90
  -5  -1   9   12.60    7.40
   4   1  -9   43.30    8.10
  -4  -1   9   45.30    9.60
   3   1  -9  191.38   13.40
  -3  -1   9  181.08   12.40
  -3  -1   9  213.18   15.10
   2   1  -9    7.70    4.60
  -2  -1   9    6.80    5.30
  -2  -1   9   20.70    5.60
   1   1  -9   25.60    4.90
  -1  -1   9   39.70    6.30
  -1  -1   9   32.70    6.60
   0   1  -9  130.39    9.20
   0  -1   9  112.79    9.10
   0  -1   9  123.49   10.10
  -1   1  -9  203.38   11.70
  -1   1  -9  221.28   12.50
   1  -1   9  237.88   13.00
   1  -1   9  216.68   12.90
  -2   1  -9    4.40    4.20
  -2   1  -9    7.30    4.00
   2  -1   9    2.00    5.80
  -3   1  -9   63.79    8.90
  -3   1  -9   38.60    5.70
  -3   1  -9   53.39    5.30
   3  -1   9   48.30    8.90
  -4   1  -9   98.59   11.00
  -4   1  -9   75.89    6.60
  -4   1  -9   94.29    5.90
  -5   1  -9  136.59   14.10
  -6   1  -9    6.90    8.10
  -7   1  -9  123.59   17.20
  -8   1  -9   67.29   14.80
   9   0  -9    5.00   14.90
  -9   0   9    7.20   12.10
   8   0  -9   -1.50   11.40
  -8   0   9   -5.30   10.80
   7   0  -9  101.99   16.30
  -7   0   9  119.69   16.40
   6   0  -9  201.38   17.70
  -6   0   9  198.78   16.10
   5   0  -9    7.80    7.10
  -5   0   9   17.60    6.90
   4   0  -9   13.70    6.80
  -4   0   9   17.80    5.60
   3   0  -9  119.49   11.10
  -3   0   9  112.29   11.20
  -3   0   9  114.79   12.10
   2   0  -9  110.29   10.20
  -2   0   9   95.99   10.80
  -2   0   9  108.29   10.20
   1   0  -9    4.80    4.00
  -1   0   9   10.70    4.90
   0   0  -9  257.27   14.50
   0   0   9  272.67   16.60
   0   0   9  266.37   14.40
  -1   0  -9  315.17   16.20
  -1   0  -9  283.77   13.70
   1   0   9  314.97   15.10
   1   0   9  289.07   16.80
  -2   0  -9    5.70    4.60
   2   0   9    1.30    4.10
  -3   0  -9   18.50    5.80
  -3   0  -9   16.20    4.10
  -3   0  -9   31.80    4.10
  -4   0  -9  164.48    6.90
  -4   0  -9  147.19    6.90
  -4   0  -9  149.09   13.10
  -5   0  -9  164.38   16.20
  -6   0  -9   -1.80    8.10
  -7   0  -9   21.80   11.50
  -8   0  -9   93.79   18.80
   9  -1  -9   36.70   16.90
  -9   1   9   40.20   12.50
   8  -1  -9   16.50   12.50
  -8   1   9    7.10    9.40
   7  -1  -9  120.19   17.50
  -7   1   9  112.49   15.30
   6  -1  -9   86.99   14.20
  -6   1   9   77.49   11.70
   5  -1  -9   23.70    7.90
  -5   1   9   39.10    8.00
   4  -1  -9   81.39   11.10
  -4   1   9   71.29    9.80
   3  -1  -9  364.96   19.90
  -3   1   9  360.96   18.50
   2  -1  -9   40.10    6.80
  -2   1   9   30.50    6.40
  -2   1   9   18.10    8.80
   1  -1  -9   12.70    5.60
  -1   1   9   17.90    6.90
   0  -1  -9  474.55   21.80
   0   1   9  442.26   18.90
  -1  -1  -9  690.93   23.60
  -1  -1  -9  707.43   28.30
   1   1   9  762.52   25.40
  -2  -1  -9    1.40    3.80
  -2  -1  -9   12.20    5.70
   2   1   9    6.30    4.10
  -3  -1  -9    5.50    5.30
  -3  -1  -9    1.60    2.90
  -3  -1  -9    1.30    3.40
  -4  -1  -9  268.07   18.30
  -5  -1  -9   28.50    9.60
  -7  -1  -9    9.90   12.00
   9  -2  -9   25.40   14.30
  -9   2   9   11.60   11.10
   8  -2  -9    9.70   15.70
  -8   2   9    2.30    9.30
   7  -2  -9   81.29   15.10
  -7   2   9   97.39   13.20
   6  -2  -9  140.29   15.70
  -6   2   9  130.69   14.10
   5  -2  -9   39.80    8.70
  -5   2   9   24.10    6.80
   4  -2  -9  503.85   25.20
  -4   2   9  464.55   22.50
   3  -2  -9  323.17   18.80
  -3   2   9  290.47   16.60
  -2   2   9  274.47   15.60
   1  -2  -9   22.70   12.40
  -1   2   9   26.10    6.00
   0  -2  -9  104.39   13.40
   0   2   9  103.39    8.90
  -1  -2  -9    4.70    5.40
  -1  -2  -9   11.60    4.10
   1   2   9    6.30    4.10
  -2  -2  -9  121.99    8.50
  -2  -2  -9  119.29   12.50
   2   2   9  139.29    9.40
  -3  -2  -9    3.50    5.70
  -3  -2  -9   15.20    4.30
  -4  -2  -9   96.09   14.50
  -5  -2  -9   18.50   14.20
  -6  -2  -9   11.10   11.70
   9  -3  -9   45.50   16.10
  -9   3   9   76.59   13.40
   8  -3  -9   36.90   19.60
  -8   3   9    3.00    9.00
   7  -3  -9   38.80   12.10
  -7   3   9   41.70    9.70
   6  -3  -9  171.88   18.50
  -6   3   9  163.48   14.90
   5  -3  -9  115.09   15.40
  -5   3   9   85.19   11.80
   4  -3  -9   40.70   10.00
  -4   3   9   47.20    9.00
   3  -3  -9  381.76   22.70
  -3   3   9  396.16   20.00
   2  -3  -9  397.76   22.30
  -2   3   9  407.66   19.40
   1  -3  -9   45.50    8.80
  -1   3   9   40.30    7.10
   0  -3  -9  169.18   14.30
   0   3   9  137.59   10.70
  -1  -3  -9  231.68   16.90
  -1  -3  -9  207.68   11.60
   1   3   9  232.98   12.60
  -2  -3  -9   95.59    8.00
  -2  -3  -9   86.69   12.70
   2   3   9   89.09    8.60
  -3  -3  -9  113.29    7.20
  -3  -3  -9  120.59   14.20
  -4  -3  -9   70.79   14.90
  -5  -3  -9  129.39   17.80
  -6  -3  -9   34.70   13.60
   9  -4  -9   -2.70   12.60
  -9   4   9   -6.60   10.00
   8  -4  -9   14.70   12.20
  -8   4   9    1.50    7.80
   7  -4  -9   32.70   10.70
  -7   4   9   13.30    9.20
   6  -4  -9  159.68   17.70
  -6   4   9  155.78   14.50
   5  -4  -9    5.50    6.80
  -5   4   9    8.30    5.90
   4  -4  -9   13.00    5.70
  -4   4   9    1.20    4.80
   3  -4  -9  281.97   19.80
  -3   4   9  252.57   16.00
   2  -4  -9  223.08   18.00
  -2   4   9  217.98   14.60
   1  -4  -9   26.80    7.10
  -1   4   9   14.00    6.10
   0  -4  -9   39.40   10.00
  -1  -4  -9  474.05   27.30
  -1  -4  -9  439.76   19.30
   1   4   9  440.16   18.40
  -2  -4  -9   23.70    7.80
  -2  -4  -9   47.80   11.00
   2   4   9   46.50    7.10
  -4  -4  -9   57.99   14.00
  -5  -4  -9   79.89   15.80
   9  -5  -9   66.69   16.30
  -9   5   9   57.29   12.10
   8  -5  -9  -11.00   10.00
  -8   5   9   18.00    8.20
  -7   5   9   82.59   12.30
   6  -5  -9   59.09   13.10
  -6   5   9   30.80    9.10
   5  -5  -9   40.90   11.70
  -5   5   9   46.80    9.30
   4  -5  -9    2.30    7.60
  -4   5   9    1.30    5.50
   3  -5  -9   92.49   15.40
  -3   5   9   83.59   10.70
   2  -5  -9  112.49   16.70
  -2   5   9  112.29   11.20
   1  -5  -9   39.60   10.70
  -1   5   9   43.30    8.20
   0  -5  -9   26.80    9.40
   0   5   9   28.40    6.50
  -1  -5  -9  125.79   17.10
   1   5   9  107.29   10.60
  -2  -5  -9  108.49   18.10
   2   5   9   79.19    8.70
  -3  -5  -9   -3.50    9.50
  -4  -5  -9   49.60   15.70
   9  -6  -9   63.39   16.60
  -9   6   9   40.80   11.50
   8  -6  -9   14.80   12.60
  -8   6   9   20.50   10.60
   7  -6  -9   46.70   14.20
  -7   6   9   28.70    9.20
  -6   6   9   84.49   13.20
   5  -6  -9   60.19   14.50
  -5   6   9   69.49   12.20
   4  -6  -9    0.30    7.90
  -4   6   9    1.30    5.10
   3  -6  -9   71.39   14.20
  -3   6   9   85.29   12.30
   2  -6  -9  100.69   16.10
  -2   6   9  117.49   13.90
   1  -6  -9   18.70    8.60
  -1   6   9    9.80    6.40
   0   6   9    9.70    6.20
  -1  -6  -9   97.29   17.00
   1   6   9   85.59   10.70
  -2  -6  -9   66.99   14.20
   2   6   9   85.39    9.20
  -3  -6  -9   38.60   12.10
   8  -7  -9   12.50   13.20
  -8   7   9   29.30   10.30
   7  -7  -9    7.20   10.80
  -7   7   9   13.30    8.10
   6  -7  -9  129.29   20.30
  -6   7   9  115.19   15.60
   5  -7  -9  127.29   19.00
  -5   7   9  104.69   16.20
   4  -7  -9   19.00    9.70
  -4   7   9   17.90    7.10
   3  -7  -9   69.59   14.20
  -3   7   9   78.99   12.80
   2  -7  -9  196.68   21.60
  -2   7   9  186.78   15.40
   1  -7  -9   88.79   16.20
  -1   7   9   67.39   10.00
   0  -7  -9    2.20    9.20
   0   7   9    1.90    6.50
  -1  -7  -9   75.89   15.90
   1   7   9   76.89   10.80
  -2  -7  -9  117.99   19.10
   8  -8  -9    5.20   12.60
  -8   8   9   23.50   11.20
   7  -8  -9    9.50   10.10
  -7   8   9    4.10    8.60
   6  -8  -9   37.50   12.40
  -6   8   9   47.20   11.50
  -5   8   9  199.48   17.90
   4  -8  -9    6.30   10.20
  -4   8   9   -2.50    7.10
   3  -8  -9   71.69   16.10
   2  -8  -9   70.09   16.10
  -2   8   9   91.59   13.60
   1  -8  -9  105.89   18.80
  -1   8   9   99.99   12.80
   0  -8  -9    9.90   12.30
   0   8   9    1.00    8.60
   6  -9  -9  143.49   22.20
  -6   9   9  180.78   18.30
   5  -9  -9  120.69   20.80
  -5   9   9  100.19   15.80
   4  -9  -9   33.60   11.90
  -4   9   9   34.90   10.70
   3  -9  -9    2.90   11.10
  -3   9   9    8.40    8.20
   2  -9  -9  295.47   27.60
  -2   9   9  255.97   19.60
  -1  11 -10  106.59   13.90
  -2  11 -10   44.60    9.80
  -3  11 -10   14.40    6.90
  -4  11 -10   14.40    7.80
  -5  11 -10  116.89   14.10
  -6  11 -10   67.79   11.40
   1  10 -10   21.70    9.20
   0  10 -10   19.80    8.50
  -1  10 -10   85.09   12.10
  -2  10 -10  234.38   17.80
  -3  10 -10   24.60    8.00
  -4  10 -10   21.80    7.60
  -5  10 -10   47.30    9.30
  -6  10 -10   88.39   12.30
  -7  10 -10   16.60    8.40
   2   9 -10  104.19   13.40
   1   9 -10   63.39   10.90
   0   9 -10   -3.00    6.10
  -1   9 -10  148.69   14.20
  -2   9 -10  166.08   14.00
  -3   9 -10   34.40   12.80
  -5   9 -10  117.69   13.30
  -6   9 -10   74.39   10.40
  -7   9 -10    4.00    7.50
  -8   9 -10   65.39   14.90
   8  -9  10   66.59   13.40
   3   8 -10    2.00    7.90
   3   8 -10    2.60    9.70
   2   8 -10   81.59   11.90
   1   8 -10  166.58   15.20
   0   8 -10   36.00    9.60
  -1   8 -10   41.60    7.80
  -2   8 -10  142.69   12.70
  -3   8 -10   15.80    6.30
  -4   8 -10   20.10    6.30
  -5   8 -10   94.69   10.90
  -6   8 -10  104.59   11.70
  -7   8 -10   -3.90    6.50
   7  -8  10    1.30    8.70
  -8   8 -10   23.50    9.00
   8  -8  10   14.00   14.50
   4   7 -10   12.40    8.40
   4   7 -10   26.40   11.00
   3   7 -10  -10.20    7.20
   3   7 -10   -3.20    6.10
   2   7 -10   56.39    9.50
   1   7 -10  147.09   13.20
   0   7 -10   67.49    9.50
  -1   7 -10    7.00    5.50
  -2   7 -10  102.99   11.40
  -3   7 -10   77.49    9.80
  -4   7 -10    7.80    5.60
  -5   7 -10   96.49   10.10
  -6   7 -10   76.69    9.50
   6  -7  10   78.59    8.70
   6  -7  10   44.10    9.00
  -7   7 -10   53.39    8.30
   7  -7  10   41.20   10.40
  -8   7 -10   12.30    7.10
   8  -7  10   11.70   12.50
  -9   7 -10    4.40    9.20
   9  -7  10   44.10   15.70
   5   6 -10   72.59   14.20
   5   6 -10   74.09   11.90
   4   6 -10   30.70    9.10
   4   6 -10   24.20    9.70
   3   6 -10    2.20    8.20
   3   6 -10   -5.30    6.20
   3   6 -10   -2.60    6.70
   2   6 -10  153.88   13.20
   1   6 -10   24.70    6.50
   0   6 -10   39.00    7.70
  -1   6 -10    2.80    4.10
  -2   6 -10   97.29    9.00
  -3   6 -10  223.08   13.60
  -4   6 -10   -2.00    4.20
  -5   6 -10   73.09    8.90
   5  -6  10   56.89    7.20
   5  -6  10   74.99    8.60
  -6   6 -10  129.89   10.40
   6  -6  10  113.59   12.30
  -7   6 -10   37.80    6.90
   7  -6  10   38.10   11.00
  -8   6 -10    5.00    7.30
   8  -6  10   -2.00   10.20
  -9   6 -10   33.80   10.10
   9  -6  10   47.70   16.30
   6   5 -10    2.40    8.60
   6   5 -10    2.60   13.10
   5   5 -10  133.19   14.50
   5   5 -10   82.39   12.90
   4   5 -10  117.29   13.80
   4   5 -10   74.29   11.10
   4   5 -10   62.69   13.00
   3   5 -10   -2.60    6.30
   3   5 -10  -15.40    6.80
   3   5 -10    5.30    5.60
   2   5 -10  260.27   15.90
   1   5 -10  214.98   14.20
   0   5 -10    0.60    4.40
  -1   5 -10   -2.80    3.60
  -2   5 -10  206.38   12.70
  -3   5 -10   99.49    8.70
  -4   5 -10   64.79    7.80
   4  -5  10   49.00    5.90
   5  -5  10    7.40    7.60
  -6   5 -10  188.88   12.90
   6  -5  10  174.78   15.10
   6  -5  10  124.69   18.90
  -7   5 -10   55.79    7.40
   7  -5  10   63.09   12.10
  -8   5 -10    8.20    6.60
   8  -5  10   19.50   12.10
   9  -5  10   22.40   14.90
   7   4 -10  -12.60   13.20
   7   4 -10    0.00    8.70
   6   4 -10    5.40   10.80
   6   4 -10   13.00    8.10
   5   4 -10   58.09   10.40
   5   4 -10   43.80   10.70
   4   4 -10  226.18   16.10
   4   4 -10  229.18   15.80
   4   4 -10  158.28   16.20
   3   4 -10   29.60    6.50
   3   4 -10   29.20    7.20
   3   4 -10   24.30    6.50
   2   4 -10    2.40    4.00
   2   4 -10    5.50    4.90
   2   4 -10    9.00    4.30
   1   4 -10  480.25   21.30
   0   4 -10  348.87   16.90
  -1   4 -10   55.09    6.70
  -2   4 -10  173.18   11.00
  -3   4 -10  361.26   15.60
   3  -4  10  336.77   13.40
   4  -4  10   54.89    7.50
  -5   4 -10   55.59    6.70
   5  -4  10   45.50   10.20
  -6   4 -10   76.09    9.90
  -6   4 -10   99.29    8.40
   6  -4  10   71.99   13.80
  -7   4 -10  144.79    9.50
  -7   4 -10   86.69   15.40
   7  -4  10  116.09   15.00
   8  -4  10   14.80   12.00
   7   3 -10   48.40   14.70
  -7  -3  10   69.79   15.20
   6   3 -10  -15.30    9.10
  -6  -3  10   -5.30    9.80
   5   3 -10  131.59   15.70
  -5  -3  10  106.19   16.00
   4   3 -10  126.49   14.80
   4   3 -10  147.09   14.00
  -4  -3  10  127.69   15.70
   3   3 -10   61.59    8.30
   3   3 -10   67.49    8.10
  -3  -3  10   71.89   11.10
   2   3 -10  152.38    9.50
   2   3 -10  139.69    9.60
  -2  -3  10  135.09   13.30
   1   3 -10  446.56   15.10
   1   3 -10  469.65   16.30
  -1  -3  10  452.65   22.90
   0   3 -10  177.08    8.50
   0   3 -10  191.28   11.60
  -1   3 -10   32.50    6.10
   1  -3  10   29.90    5.10
  -2   3 -10  173.68   10.50
  -2   3 -10  177.88    9.00
   2  -3  10  178.08   10.20
  -3   3 -10  313.17   14.00
  -3   3 -10  328.47   14.30
   3  -3  10  292.67   15.20
  -4   3 -10   11.70    4.50
  -4   3 -10   23.30    6.20
   4  -3  10    8.40    7.80
  -5   3 -10   10.90    4.30
  -5   3 -10    6.50    6.70
  -5   3 -10   13.50    7.60
  -6   3 -10  104.49   10.10
  -6   3 -10  125.39   13.70
  -6   3 -10  106.89    7.60
  -7   3 -10   88.89   12.60
   8   2 -10   18.70   15.80
  -8  -2  10   62.59   15.40
   7   2 -10   45.80   13.50
  -7  -2  10   25.20   13.10
   6   2 -10   -2.30    9.70
  -6  -2  10    6.50    8.70
   5   2 -10  100.29   12.90
  -5  -2  10  107.99   15.90
   4   2 -10   56.39   10.00
  -4  -2  10   40.50   10.80
   3   2 -10   42.10    7.80
   3   2 -10   56.89   13.30
  -3  -2  10   43.00    9.30
   2   2 -10    7.30    4.90
  -2  -2  10    5.40    5.40
  -2  -2  10   18.50    6.40
   1   2 -10  336.97   14.50
  -1  -2  10  333.87   15.10
  -1  -2  10  318.57   18.40
   0   2 -10  152.08    9.10
   0  -2  10  120.79    9.80
   0  -2  10  161.98   12.90
  -1   2 -10   38.10    6.00
   1  -2  10   40.60    6.80
  -2   2 -10   74.99    7.80
  -2   2 -10   75.89    7.10
   2  -2  10   73.89    9.20
  -3   2 -10  144.69   11.70
  -3   2 -10  157.38    9.30
  -3   2 -10  179.98   11.70
   3  -2  10  136.99   12.50
  -4   2 -10   32.30    8.20
  -4   2 -10   42.60    5.40
  -4   2 -10   44.00    6.60
  -5   2 -10   63.59    6.50
  -5   2 -10   64.39    9.80
  -5   2 -10   47.50    6.20
  -6   2 -10   79.89   12.40
  -7   2 -10   42.20   11.60
  -8   2 -10   29.60   11.50
   8   1 -10   30.30   15.80
  -8  -1  10   52.39   13.90
   7   1 -10   72.39   15.30
  -7  -1  10   95.19   15.40
   6   1 -10    8.20    9.00
   5   1 -10   51.79   10.60
  -5  -1  10   30.00    8.50
   4   1 -10  169.38   14.20
  -4  -1  10  174.88   15.00
   3   1 -10  178.28   13.50
  -3  -1  10  165.98   14.20
  -3  -1  10  169.88   13.10
   2   1 -10   -3.40    4.80
  -2  -1  10   16.00    6.10
   1   1 -10    4.30    4.40
  -1  -1  10   -4.50    5.60
  -1  -1  10    4.50    4.50
   0   1 -10  122.59    9.90
   0  -1  10  130.59   11.00
   0  -1  10  115.49   10.90
  -1   1 -10   36.00    6.70
  -2   1 -10   78.49    9.40
  -2   1 -10   84.29    7.10
   2  -1  10   73.59   10.30
  -3   1 -10  138.09    8.30
  -3   1 -10  116.99    9.90
  -3   1 -10  143.49   12.20
  -4   1 -10  113.69    7.30
  -4   1 -10  126.59   12.50
  -4   1 -10   98.29    8.80
  -5   1 -10   -3.00    3.80
  -5   1 -10   -0.60    7.20
  -6   1 -10   75.69   13.10
   8   0 -10   39.20   15.40
  -8   0  10   21.10   12.90
   7   0 -10   41.90   13.70
  -7   0  10   64.49   13.20
   6   0 -10   67.19   12.60
  -6   0  10   58.59   10.90
   5   0 -10   46.30   10.70
  -5   0  10   57.29   11.40
   4   0 -10  233.88   17.50
  -4   0  10  219.98   16.00
   3   0 -10    3.10    5.40
  -3   0  10   11.20    5.20
   2   0 -10   61.29    9.10
  -2   0  10   42.90    8.40
  -2   0  10   60.49    9.90
   1   0 -10  130.19   11.60
  -1   0  10  125.39   11.80
  -1   0  10  135.79   11.30
   0   0 -10  131.79   11.60
   0   0  10  122.19   10.30
   0   0  10   97.19   11.30
  -1   0 -10   25.30    6.90
   1   0  10   26.30    6.80
  -2   0 -10   24.00    5.50
   2   0  10   28.90    6.40
  -3   0 -10  325.17   16.40
  -3   0 -10  338.47   19.80
  -3   0 -10  336.47   12.90
  -4   0 -10  197.18    8.30
  -4   0 -10  189.58   16.10
  -4   0 -10  195.18    9.10
  -5   0 -10   17.90    8.90
  -6   0 -10   54.29   12.30
  -7   0 -10   46.10   13.10
   9  -1 -10  -19.80   14.70
   8  -1 -10   28.10   14.00
  -8   1  10   36.30   12.40
   7  -1 -10   56.69   14.30
  -7   1  10   66.59   11.40
   6  -1 -10   22.60   10.60
  -6   1  10    7.10    8.20
   5  -1 -10   97.79   15.00
  -5   1  10   86.39   11.60
   4  -1 -10  327.67   20.00
  -4   1  10  284.67   18.60
   3  -1 -10  170.38   14.40
  -3   1  10  169.98   13.90
   2  -1 -10    5.20    6.10
  -2   1  10    4.30    5.20
   1  -1 -10  183.38   14.20
  -1   1  10  179.48   12.80
   0   1  10  147.19   11.10
  -1  -1 -10    4.80    5.30
   1   1  10    9.10    4.60
  -2  -1 -10   -4.30    5.10
  -2  -1 -10    5.80    4.70
   2   1  10    1.10    5.00
  -3  -1 -10   26.80    5.70
  -3  -1 -10   22.80    7.40
  -3  -1 -10   29.10    4.60
  -4  -1 -10  106.09   15.70
  -5  -1 -10   86.59   15.20
  -6  -1 -10    5.10   11.50
   9  -2 -10   -4.60   15.90
  -9   2  10   -0.40   10.80
   8  -2 -10   40.70   16.20
  -8   2  10   51.39   11.90
   7  -2 -10  176.08   20.30
  -7   2  10  179.48   16.80
   6  -2 -10   52.29   12.40
  -6   2  10   40.50    9.50
   5  -2 -10   28.80    9.40
  -5   2  10   18.60    7.40
   4  -2 -10  137.09   14.10
  -4   2  10  117.39   12.70
   3  -2 -10  430.26   23.80
  -3   2  10  398.86   21.20
   2  -2 -10   43.80    9.90
  -2   2  10   37.00    7.60
   1  -2 -10   64.89   11.60
  -1   2  10   57.89    8.80
   0  -2 -10  469.65   23.90
   0   2  10  478.05   20.70
  -1  -2 -10  146.99   13.00
   1   2  10  144.09   11.20
  -2  -2 -10   24.20    6.30
  -2  -2 -10   24.90    7.60
   2   2  10   24.40    6.40
  -3  -2 -10  100.09   15.10
  -3  -2 -10   98.89    8.30
  -4  -2 -10  234.38   20.30
  -5  -2 -10   16.70   11.60
  -6  -2 -10   31.60   14.30
   9  -3 -10   -0.60   15.40
  -9   3  10    2.30    9.80
   8  -3 -10   43.80   14.40
  -8   3  10   45.30   11.70
   7  -3 -10  143.89   19.60
  -7   3  10   83.49   13.80
   6  -3 -10   55.29   13.30
  -6   3  10   38.00   10.80
   5  -3 -10    8.90    8.10
  -5   3  10   13.50    6.60
   4  -3 -10  220.48   17.60
  -4   3  10  210.18   15.70
   3  -3 -10  165.38   15.10
  -3   3  10  132.79   12.70
   2  -3 -10   47.70    9.70
  -2   3  10   49.30    7.80
   1  -3 -10  132.79   14.00
  -1   3  10  122.79   11.00
   0  -3 -10  340.27   21.00
   0   3  10  317.07   16.40
  -1  -3 -10  268.27   19.50
   1   3  10  264.17   14.50
  -2  -3 -10   -2.90    7.30
  -2  -3 -10   -1.50    6.10
   2   3  10    5.30    5.40
  -3  -3 -10  125.99    8.70
  -3  -3 -10  151.48   17.60
  -4  -3 -10  113.79   17.40
  -5  -3 -10   13.30   11.60
   9  -4 -10  -16.00   12.40
  -9   4  10    4.40   10.40
   8  -4 -10    3.00   12.20
  -8   4  10   37.80   10.70
   7  -4 -10   53.39   20.60
  -7   4  10   52.49   11.60
   6  -4 -10   89.09   16.90
  -6   4  10  123.19   18.20
   5  -4 -10   -3.10    7.50
  -5   4  10   -4.50    6.20
   4  -4 -10   85.69   14.80
  -4   4  10   69.09   11.20
   3  -4 -10  153.28   16.70
  -3   4  10  150.68   13.30
   2  -4 -10   15.80    8.80
  -2   4  10   14.30    5.60
   1  -4 -10   14.70    8.20
  -1   4  10    3.50    5.50
   0  -4 -10  167.88   16.60
   0   4  10  159.38   11.90
  -1  -4 -10  191.68   18.60
  -2  -4 -10   11.60   10.30
  -2  -4 -10   -2.60    7.40
   2   4  10   -0.60    6.10
  -3  -4 -10   48.60   12.30
  -4  -4 -10   67.39   14.80
   8  -5 -10   16.10   12.30
  -8   5  10   17.20   10.20
   7  -5 -10  102.19   18.20
  -7   5  10   89.09   13.90
  -6   5  10   60.79   11.10
   5  -5 -10    0.80    7.00
  -5   5  10    2.10    7.50
   4  -5 -10   37.80   11.00
  -4   5  10   44.00    8.30
   3  -5 -10   82.09   15.00
  -3   5  10  107.99   14.40
   2  -5 -10   31.40   11.30
  -2   5  10   34.10    8.90
   1  -5 -10   12.00    7.40
  -1   5  10    1.80    5.10
   0  -5 -10   71.89   13.60
   0   5  10   76.39   10.30
  -1  -5 -10   61.39   13.00
   1   5  10   44.10    8.30
  -2  -5 -10    3.20   10.20
   2   5  10    8.00    6.90
  -3  -5 -10   35.70   12.60
   8  -6 -10   40.00   13.30
  -8   6  10    6.70   10.00
   7  -6 -10   82.69   17.60
  -7   6  10   77.99   13.80
   6  -6 -10   59.69   12.80
  -6   6  10   52.89   12.50
   5  -6 -10   22.50   10.90
  -5   6  10   27.10    8.90
   4  -6 -10  102.59   26.50
  -4   6  10  101.39   15.10
  -3   6  10   72.59   12.00
   2  -6 -10   36.40   13.50
  -2   6  10   18.20    8.50
   1  -6 -10    8.30    9.50
  -1   6  10   12.50    7.00
   0  -6 -10   98.69   16.80
   0   6  10  141.59   13.30
  -1  -6 -10  127.49   20.80
   1   6  10  108.49   11.50
  -2  -6 -10   19.80   12.30
   2   6  10   30.40    9.40
   7  -7 -10   25.80   12.50
  -7   7  10   20.80   10.40
   6  -7 -10   64.59   16.00
  -6   7  10   75.09   13.90
   5  -7 -10   13.20   10.90
  -5   7  10   25.70    9.10
   4  -7 -10   -2.30   10.80
  -4   7  10   21.70    9.00
   3  -7 -10  119.39   19.70
  -3   7  10  109.69   17.30
   2  -7 -10   72.79   14.10
  -2   7  10   59.69   10.80
   1  -7 -10   31.50   12.50
  -1   7  10    8.70    8.40
   0  -7 -10    6.00   10.50
   0   7  10   19.30    8.90
  -1  -7 -10   51.39   14.80
   1   7  10   64.29   10.70
   6  -8 -10  132.89   22.60
  -6   8  10  117.59   16.70
   5  -8 -10   58.29   14.90
  -5   8  10   52.59   11.80
   4  -8 -10   24.00   12.20
  -4   8  10   20.40   10.60
   3  -8 -10  196.18   24.90
  -3   8  10  193.88   16.40
   2  -8 -10   97.09   19.20
  -2   8  10  129.79   17.80
   1  -8 -10    7.70   10.70
  -1   8  10    9.20    9.50
  -3  11 -11    9.30    8.50
  -4  11 -11   33.80    9.40
  -5  11 -11   81.59   11.30
   0  10 -11   30.50   10.30
  -1  10 -11   95.89   13.10
  -2  10 -11   15.50    8.20
  -3  10 -11   14.80    8.00
  -4  10 -11   76.69   11.90
  -5  10 -11  161.28   15.60
  -6  10 -11   14.10    9.70
   1   9 -11   16.60    8.40
   0   9 -11   -6.80    6.60
  -1   9 -11  176.38   15.50
  -2   9 -11   39.20    8.90
  -3   9 -11   -0.20    6.40
  -4   9 -11   71.29   10.40
  -5   9 -11  136.69   14.10
  -6   9 -11    4.90    7.80
  -7   9 -11   -4.60    7.90
   3   8 -11   72.59   11.90
   2   8 -11   65.29   11.60
   1   8 -11   55.99   10.50
   0   8 -11   20.90    8.20
  -1   8 -11  123.09   12.70
  -2   8 -11   97.99   18.50
  -3   8 -11   15.20    6.50
  -4   8 -11   56.89    9.20
  -5   8 -11   83.19   10.50
  -6   8 -11   35.40    9.00
  -7   8 -11    8.30    7.90
   7  -8  11    5.20   13.40
  -8   8 -11   61.19   10.80
   8  -8  11   30.60   15.60
   4   7 -11   -0.40    8.90
   3   7 -11   26.40    8.40
   2   7 -11  167.58   15.00
   1   7 -11    9.70    6.50
  -1   7 -11   89.79   11.20
  -2   7 -11  138.39   12.30
  -3   7 -11    5.00    5.00
  -4   7 -11    7.40    5.60
  -5   7 -11   72.89    9.80
  -6   7 -11   40.20    8.70
  -7   7 -11   10.00    7.50
   7  -7  11   -6.60    9.30
  -8   7 -11   36.50   10.10
   8  -7  11   34.80   14.70
   5   6 -11   43.10    9.70
   5   6 -11   36.30   13.30
   4   6 -11   18.70    8.50
   4   6 -11    7.90    9.20
   3   6 -11   62.39   10.60
   3   6 -11   52.79    7.20
   2   6 -11  120.29   13.60
   1   6 -11   54.69    9.30
   0   6 -11   71.09    9.60
  -1   6 -11  123.29   11.30
  -2   6 -11  112.29   11.00
  -3   6 -11    1.20    5.30
  -4   6 -11   26.10    6.50
  -5   6 -11   49.30    7.80
  -6   6 -11   54.49    8.10
   6  -6  11   68.09   10.10
   6  -6  11   41.60   13.80
  -7   6 -11    0.80    5.90
   7  -6  11    6.30   11.40
  -8   6 -11   30.70    9.10
   8  -6  11    3.90   12.80
   5   5 -11   23.70    9.70
   5   5 -11   16.90   11.40
   4   5 -11    2.50    9.10
   4   5 -11   16.30    8.30
   3   5 -11    6.20    6.90
   3   5 -11    1.70    6.30
   3   5 -11   14.80    6.30
   2   5 -11  127.49   12.10
   1   5 -11   62.69    9.00
   0   5 -11   47.70    8.10
  -1   5 -11   67.99    9.20
  -2   5 -11  398.46   18.70
  -3   5 -11   84.99    8.80
  -4   5 -11  106.29   10.00
   4  -5  11  102.89   10.40
  -5   5 -11  133.59   10.60
   5  -5  11  120.79   13.70
   5  -5  11  120.49   12.50
  -6   5 -11  163.28   11.80
   6  -5  11  127.19   15.20
   7  -5  11  -20.80    9.00
  -8   5 -11   10.10    8.30
   8  -5  11   27.10   14.80
   6   4 -11   32.40   14.20
   6   4 -11   46.70   10.00
   5   4 -11  159.88   15.20
   5   4 -11  167.48   17.50
   4   4 -11   51.19   13.50
   4   4 -11   62.39   10.40
   4   4 -11   46.10    9.60
   3   4 -11   17.60    7.80
   3   4 -11   31.50    7.50
   3   4 -11   21.30    6.40
   2   4 -11  270.37   16.40
   2   4 -11  257.97   14.20
   1   4 -11   31.90    6.80
   0   4 -11   -0.20    3.90
  -1   4 -11  170.58   12.00
  -2   4 -11  322.47   15.90
  -3   4 -11   49.30    6.50
   3  -4  11   46.10    6.50
  -4   4 -11   11.20    4.70
   4  -4  11   -6.00    6.90
  -5   4 -11  233.08   14.20
   5  -4  11  226.88   18.40
  -6   4 -11  123.39    9.80
   6  -4  11  118.09   13.80
  -7   4 -11   14.50    6.30
   7  -4  11   34.40   12.90
   8  -4  11  -14.40   13.40
   7   3 -11    7.80   14.90
  -7  -3  11   28.80   13.50
   6   3 -11   40.50   11.30
  -6  -3  11   39.50   13.60
   5   3 -11   62.69   11.70
  -5  -3  11   57.69   12.70
   4   3 -11   47.10    9.80
   4   3 -11   49.50   17.50
   3   3 -11   45.40    8.30
   3   3 -11   38.80    9.10
  -3  -3  11   35.30    9.80
   2   3 -11  124.59   10.30
   2   3 -11  166.18   10.30
  -2  -3  11  154.28   15.40
   1   3 -11  205.98    9.90
  -1  -3  11  205.88   16.20
   0   3 -11    7.40    4.40
   0  -3  11    2.50    4.50
  -1   3 -11  128.69   10.20
  -1   3 -11  130.19    7.80
   1  -3  11  121.29    8.50
  -2   3 -11  133.39   10.20
  -2   3 -11  148.79    8.80
   2  -3  11  129.19    9.80
  -3   3 -11  170.38   11.40
  -3   3 -11  167.18   11.00
   3  -3  11  170.68   13.40
  -4   3 -11    6.90    5.10
  -4   3 -11   -2.90    6.10
   4  -3  11   -4.60    8.70
  -5   3 -11   44.50    8.70
  -5   3 -11   52.59    6.70
  -6   3 -11   76.59    7.80
  -6   3 -11   53.79   11.40
  -7   3 -11   46.90   11.10
   8  -3  11   27.10   18.40
   7   2 -11  -11.10   13.00
  -7  -2  11   -4.20   10.60
   6   2 -11   -3.70   10.10
  -6  -2  11   -3.20   10.10
   5   2 -11  206.68   18.00
  -5  -2  11  217.28   20.10
   4   2 -11  102.69   13.00
  -4  -2  11   75.99   13.70
   3   2 -11   12.90    7.60
   3   2 -11    3.60    6.20
  -3  -2  11   -8.10    6.40
   2   2 -11   52.19    7.40
  -2  -2  11   37.40    8.20
  -2  -2  11   48.20    9.80
   1   2 -11  385.96   16.30
  -1  -2  11  384.76   21.60
  -1  -2  11  380.66   17.20
   0   2 -11   11.60    4.70
   0  -2  11   11.40    6.20
   0  -2  11   25.10    6.30
  -1   2 -11   30.70    5.60
  -1   2 -11   38.80    6.20
   1  -2  11   26.50    7.20
  -2   2 -11  112.09    9.20
  -2   2 -11  116.09    9.60
  -3   2 -11  137.09   10.50
  -3   2 -11  147.79   11.80
   3  -2  11  103.59   12.10
  -4   2 -11    0.20    7.30
  -4   2 -11   10.80    6.60
  -4   2 -11   14.80    4.50
  -5   2 -11   46.80    9.70
  -5   2 -11   39.70    5.60
  -5   2 -11   16.70    8.40
  -6   2 -11   28.60   10.30
  -7   2 -11   13.70   11.90
   7   1 -11   21.20   12.70
  -7  -1  11   32.60   12.80
   6   1 -11   49.90   13.00
  -6  -1  11   52.79   12.30
   5   1 -11  177.98   16.10
   4   1 -11   51.29   12.40
  -4  -1  11   68.19   12.10
   3   1 -11   50.29    9.20
  -3  -1  11   56.09   10.30
   2   1 -11  101.49   10.90
  -2  -1  11  121.29   12.80
  -2  -1  11  103.89   11.70
   1   1 -11  152.48   11.90
  -1  -1  11  159.28   13.50
  -1  -1  11  177.58   13.80
   0   1 -11    6.20    5.50
   0  -1  11   -3.20    7.00
   0  -1  11   10.70    5.40
  -1   1 -11    4.10    4.30
   1  -1  11    6.00    7.50
   1  -1  11    1.20    5.40
  -2   1 -11  284.67   16.10
  -3   1 -11  262.57   15.90
  -3   1 -11  255.07   11.90
  -4   1 -11   23.70    7.00
  -4   1 -11   16.60    5.30
  -5   1 -11   53.69    5.20
  -5   1 -11   49.10   10.70
  -5   1 -11   44.00    5.90
  -6   1 -11   89.19   14.80
  -7   1 -11  -13.80   10.80
   8   0 -11   65.59   18.50
  -8   0  11   72.49   15.50
   7   0 -11   -6.40   12.80
  -7   0  11   17.10   10.40
   6   0 -11   36.10   12.30
  -6   0  11   36.00   11.30
   5   0 -11  116.09   15.30
  -5   0  11   84.79   13.20
   4   0 -11  100.19   14.30
  -4   0  11   82.79   11.30
  -3   0  11    9.10    5.90
   2   0 -11  281.67   17.40
  -2   0  11  279.27   18.40
   1   0 -11  103.49   11.10
  -1   0  11  101.89   12.10
   0   0 -11  125.79   11.40
   0   0  11  113.49   10.90
   1   0  11   55.89    9.00
  -2   0 -11   33.10    8.40
  -3   0 -11   15.10    6.30
  -3   0 -11   29.10    8.10
  -3   0 -11   30.00    5.70
  -4   0 -11   44.60    5.50
  -4   0 -11   54.79   10.90
  -4   0 -11   28.90    6.60
  -5   0 -11    0.30    9.00
  -6   0 -11   69.79   13.40
   8  -1 -11   60.19   18.20
  -8   1  11   79.19   14.50
   7  -1 -11   69.99   13.70
  -7   1  11   94.29   15.80
   6  -1 -11   15.80   11.20
  -6   1  11   17.60    8.10
   5  -1 -11   69.79   12.70
  -5   1  11   78.79   11.50
   4  -1 -11  121.49   14.10
  -4   1  11  121.49   15.50
   3  -1 -11   12.70    6.80
  -3   1  11   11.30    6.60
   2  -1 -11   32.50    8.70
  -2   1  11   37.30    7.70
   1  -1 -11  275.97   18.10
  -1   1  11  267.77   16.60
   0  -1 -11  198.08   15.90
   0   1  11  193.48   14.20
  -1  -1 -11    4.40    6.20
   1   1  11    6.20    5.90
  -2  -1 -11  118.09   13.80
  -3  -1 -11   93.89    7.90
  -3  -1 -11   88.69   13.70
  -4  -1 -11  105.79   16.30
  -5  -1 -11   31.50   12.20
  -6  -1 -11   76.69   15.80
   8  -2 -11   42.10   16.40
  -8   2  11   49.60   13.10
   7  -2 -11   30.20   16.90
  -7   2  11   33.70   11.90
   6  -2 -11   15.90   10.60
  -6   2  11   -2.10    7.10
   5  -2 -11   65.79   13.30
  -5   2  11   76.29   13.70
   4  -2 -11  124.39   14.70
  -4   2  11   90.19   13.40
   3  -2 -11   22.40    8.10
  -3   2  11   18.30    7.50
   2  -2 -11   23.40    8.20
  -2   2  11   28.80    7.10
   1  -2 -11  343.87   21.70
  -1   2  11  351.66   19.50
   0  -2 -11  217.18   18.00
   0   2  11  264.17   15.80
  -1  -2 -11    8.70    7.50
   1   2  11    9.10    5.60
  -2  -2 -11   51.69   11.70
   2   2  11   43.10    8.20
  -3  -2 -11  222.88   12.80
  -3  -2 -11  271.07   11.80
  -3  -2 -11  272.37   21.50
  -4  -2 -11   73.79   15.30
  -5  -2 -11   13.80   11.60
   8  -3 -11   49.20   17.70
  -8   3  11   83.89   14.80
   7  -3 -11   57.89   15.20
  -7   3  11   26.20   11.00
   6  -3 -11    3.10   11.50
  -6   3  11   -7.40    7.80
   5  -3 -11   98.19   17.50
   4  -3 -11  134.69   17.80
  -4   3  11   79.69   12.50
   3  -3 -11   65.09   12.30
  -3   3  11   44.30    9.40
   2  -3 -11   13.60    9.20
  -2   3  11    8.40    7.20
   1  -3 -11  203.68   18.20
  -1   3  11  179.08   13.80
   0  -3 -11  147.09   16.50
   0   3  11  143.99   12.30
  -1  -3 -11   30.00    9.70
   1   3  11   12.00    7.30
  -2  -3 -11   17.70   10.10
   2   3  11   22.60    7.40
  -3  -3 -11  181.68   20.30
  -4  -3 -11   23.40   12.90
   8  -4 -11   81.99   17.90
  -8   4  11   42.30   13.10
   7  -4 -11   40.20   15.10
  -7   4  11   52.19   11.90
  -6   4  11   20.60    7.50
   5  -4 -11   77.49   15.30
  -5   4  11   82.19   13.60
   4  -4 -11  187.18   19.70
  -4   4  11  204.68   16.30
   3  -4 -11   52.69   11.70
  -3   4  11   45.40    9.50
   2  -4 -11   -1.90    7.60
  -2   4  11    1.60    5.70
   1  -4 -11   92.89   16.10
  -1   4  11  110.59   13.20
   0  -4 -11   97.59   15.00
   0   4  11   88.09   11.40
   1   4  11   40.00    8.30
  -2  -4 -11   66.39   15.20
   2   4  11   48.40    9.20
  -3  -4 -11   34.30   13.30
   8  -5 -11   44.40   15.00
  -8   5  11   34.10   11.40
   7  -5 -11   85.49   18.00
  -7   5  11   80.59   14.10
   6  -5 -11   35.70   12.10
  -6   5  11   26.00    9.40
   5  -5 -11   83.69   15.20
  -5   5  11   43.40   10.90
   3  -5 -11   46.30   13.60
  -3   5  11   57.29   10.90
   2  -5 -11    6.00   11.70
  -2   5  11   11.80    7.80
   1  -5 -11   22.70   12.50
  -1   5  11   27.90    8.80
   0  -5 -11  134.69   19.20
   0   5  11  163.08   13.80
  -1  -5 -11   28.60   11.30
   1   5  11   25.60    8.50
  -2  -5 -11   33.40   13.20
   2   5  11   22.40    9.00
   7  -6 -11   91.39   17.20
  -7   6  11   62.89   13.50
   6  -6 -11   -5.20   10.80
  -6   6  11    9.70    8.50
   5  -6 -11    9.70   10.50
  -5   6  11    2.20    8.50
   4  -6 -11   54.69   14.50
  -4   6  11   45.10   11.30
   3  -6 -11   89.39   17.80
   2  -6 -11   15.50    9.70
  -2   6  11   -4.20    6.80
   1  -6 -11   53.69   13.80
  -1   6  11   64.39   11.50
   0  -6 -11   56.69   14.70
   0   6  11   41.10   10.10
  -1  -6 -11   20.10   11.80
   1   6  11   20.90    9.40
   6  -7 -11   47.40   13.90
  -6   7  11   51.79   11.70
   5  -7 -11   39.00   13.60
  -5   7  11   15.30   10.20
   4  -7 -11  117.19   19.90
  -4   7  11  115.49   15.90
   3  -7 -11  132.39   20.00
  -3   7  11  138.99   14.70
   2  -7 -11   19.30   11.60
  -2   7  11   21.10   11.10
   1  -7 -11   64.39   15.90
  -1   7  11   51.99   11.40
  -2  10 -12   10.40    7.60
  -3  10 -12   26.10    8.70
  -4  10 -12   45.00    9.50
  -5  10 -12   13.90    8.80
   0   9 -12   39.80    9.30
  -1   9 -12  176.08   16.10
  -2   9 -12   14.40    8.40
  -3   9 -12    7.10    7.90
  -4   9 -12   73.19   10.90
  -5   9 -12   37.60   10.00
  -6   9 -12   12.80    9.20
   2   8 -12    6.00    8.10
   1   8 -12    8.80    6.80
   0   8 -12  115.19   14.20
  -1   8 -12   63.99   10.50
  -2   8 -12    7.70    7.10
  -3   8 -12   23.10    7.70
  -4   8 -12   72.39   10.60
  -7   8 -12   21.10   10.70
   3   7 -12  169.48   16.80
   2   7 -12   41.60    9.70
   1   7 -12   -0.50    6.70
   0   7 -12  280.87   18.20
  -1   7 -12  137.09   13.20
  -3   7 -12    9.30    6.20
  -4   7 -12   88.39   11.00
  -5   7 -12   10.90    6.70
  -6   7 -12    7.10    7.70
  -7   7 -12   27.90    9.00
   4   6 -12   21.80    8.90
   3   6 -12   47.70   10.70
   2   6 -12  144.79   14.60
   1   6 -12   -3.70    5.50
  -1   6 -12  316.67   18.20
  -2   6 -12   71.99    9.20
  -3   6 -12   29.10    7.50
  -4   6 -12   59.79    8.60
  -5   6 -12  142.29   13.10
  -6   6 -12    0.30    6.80
   6  -6  12  -11.20    8.60
  -7   6 -12   52.89    9.30
   7  -6  12   40.70   15.20
   5   5 -12   22.20   14.40
   5   5 -12   -6.60    8.50
   4   5 -12    6.90    9.20
   4   5 -12    7.60    7.60
   3   5 -12  173.38   14.80
   2   5 -12  130.19   13.10
   1   5 -12    8.80    7.50
   0   5 -12   81.09   10.50
  -1   5 -12  100.69   10.80
  -2   5 -12   95.49   10.70
  -3   5 -12   44.50    7.90
  -4   5 -12  156.28   12.50
  -5   5 -12   96.49   10.30
   5  -5  12   68.79   10.00
   5  -5  12   67.99   13.60
  -6   5 -12    4.60    6.30
   6  -5  12    5.10   10.00
  -7   5 -12    4.60    7.90
   7  -5  12   -3.50   12.40
   5   4 -12   47.00   12.60
   5   4 -12   61.29   11.40
   4   4 -12   -3.40    6.30
   4   4 -12  -14.10    8.80
   3   4 -12   73.59   10.80
   3   4 -12   85.79   10.00
   3   4 -12   64.29    9.90
   2   4 -12   -0.80    9.70
   1   4 -12    1.90    5.30
   0   4 -12   11.30    6.00
  -1   4 -12  178.98   12.90
  -2   4 -12   93.19    9.60
  -3   4 -12    2.50    4.60
   3  -4  12   -6.80    5.90
  -4   4 -12   53.39    7.50
   4  -4  12   44.40   10.60
  -5   4 -12  123.19   10.40
   6  -4  12    9.70   10.90
  -7   4 -12   10.20    8.50
   7  -4  12   12.40   14.10
   6   3 -12   67.29   16.00
  -6  -3  12   64.49   15.00
   5   3 -12   52.19   12.40
  -5  -3  12   37.30   13.70
   4   3 -12   13.90    8.70
  -4  -3  12   15.00   10.30
   3   3 -12   47.00    8.30
   3   3 -12   35.90   11.90
  -3  -3  12   49.80   14.00
   2   3 -12  165.78   11.20
   2   3 -12  147.09   11.70
  -2  -3  12  182.18   18.00
   1   3 -12   59.69    7.10
   0   3 -12   15.40    4.70
   0   3 -12   12.30    5.70
  -1   3 -12   35.50    5.30
  -1   3 -12   34.10    7.00
   1  -3  12   26.40    6.40
  -2   3 -12  145.19   11.30
  -2   3 -12  158.38   10.00
   2  -3  12  131.89   11.30
  -3   3 -12   30.70    6.20
  -3   3 -12   21.80    6.40
   3  -3  12   18.90   12.10
  -4   3 -12   89.29   10.90
  -4   3 -12   66.89    8.30
  -5   3 -12   68.89    8.10
  -5   3 -12   58.89   10.20
  -6   3 -12   69.89    7.40
  -6   3 -12   56.99   10.60
  -7   3 -12   13.80   12.10
   6   2 -12   69.79   14.80
  -6  -2  12   55.69   15.10
   5   2 -12   65.29   12.70
  -5  -2  12   64.09   14.00
  -4  -2  12   19.30    9.60
   3   2 -12  114.79   13.60
   3   2 -12  134.19   14.10
  -3  -2  12  128.39   16.30
   2   2 -12  276.87   16.10
  -2  -2  12  227.98   18.70
   1   2 -12   66.29    8.80
  -1  -2  12   52.09    9.20
  -1  -2  12   62.49   10.90
   0   2 -12   -0.90    4.80
   0  -2  12   -7.70    7.40
   0  -2  12   -0.60    6.60
  -1   2 -12  110.39   10.00
  -1   2 -12  105.99    9.60
   1  -2  12   91.39   11.30
  -2   2 -12   73.39    8.70
  -2   2 -12   80.69    9.20
   2  -2  12   54.79   10.70
  -3   2 -12   42.00    8.50
  -3   2 -12   36.00    6.90
  -4   2 -12   48.80   10.10
  -4   2 -12   59.29    7.50
  -5   2 -12  181.98   11.00
  -5   2 -12  190.68   16.50
  -6   2 -12   59.99   12.80
   7   1 -12   27.60   15.00
  -7  -1  12   -8.20   11.10
   6   1 -12   99.09   16.90
  -6  -1  12   70.79   13.90
   5   1 -12   38.00   11.70
  -5  -1  12   37.10   11.10
   4   1 -12   -1.30    8.20
  -4  -1  12   -6.20    8.50
   3   1 -12   74.89   12.00
  -3  -1  12   54.09   11.70
   2   1 -12  512.15   24.40
  -2  -1  12  551.44   27.60
  -2  -1  12  578.64   31.60
   1   1 -12   79.39   10.60
  -1  -1  12   65.79   11.60
  -1  -1  12   72.49   10.70
   0   1 -12   28.20    7.40
   0  -1  12   40.70    9.90
   0  -1  12   43.50    8.90
  -1   1 -12  100.49   11.50
   1  -1  12  134.79   14.90
  -2   1 -12  124.19   18.90
  -2   1 -12  107.39   10.00
  -3   1 -12   14.00    7.50
  -4   1 -12  -13.10   10.70
  -4   1 -12   10.50    8.40
  -4   1 -12   -3.00    5.20
  -5   1 -12   25.50   11.00
  -5   1 -12   30.60    5.50
   7   0 -12   -7.30   14.10
  -7   0  12   13.80   11.30
   6   0 -12   95.99   16.10
  -6   0  12  119.99   16.30
   5   0 -12  125.69   16.80
  -5   0  12  100.69   15.60
   4   0 -12   50.39   10.10
   3   0 -12   78.09   12.00
  -3   0  12   61.59   12.10
   2   0 -12  131.69   15.70
  -2   0  12  134.79   16.20
   1   0 -12  221.78   17.80
  -1   0  12  247.78   17.40
   0   0 -12    3.30    6.90
   0   0  12    8.20    6.30
  -1   0 -12   81.49   11.50
   1   0  12  113.19   12.20
  -2   0 -12  193.98   16.10
  -3   0 -12   32.00    9.40
  -3   0 -12   23.60    6.10
  -4   0 -12   79.69   13.80
  -4   0 -12   61.69    7.20
  -5   0 -12   58.39   18.10
   7  -1 -12   18.60   21.90
  -7   1  12    6.60   10.70
   6  -1 -12   72.29   14.80
  -6   1  12   42.50   11.40
   5  -1 -12  183.28   19.30
  -5   1  12  104.89   14.40
   4  -1 -12   24.20    8.90
   3  -1 -12   -5.90    6.90
  -3   1  12    8.00    7.60
   2  -1 -12   74.39   12.50
  -2   1  12   64.29   11.00
   1  -1 -12  122.09   15.10
  -1   1  12   86.49   12.30
   0  -1 -12    3.30    7.00
   0   1  12   17.30    6.60
  -1  -1 -12  137.99   14.70
   1   1  12  121.69   13.80
  -2  -1 -12  167.98   16.10
   2   1  12  173.08   14.00
  -3  -1 -12  127.29   10.50
  -3  -1 -12  106.09   14.20
  -4  -1 -12   -2.50   11.00
  -4  -1 -12    5.70    7.00
  -5  -1 -12  109.69   17.10
   7  -2 -12   10.10   12.80
  -7   2  12    0.30   10.20
   6  -2 -12   33.30   12.00
  -6   2  12   43.40   11.30
   5  -2 -12  130.59   17.20
  -5   2  12  101.49   14.90
   4  -2 -12   18.90    9.90
   3  -2 -12    2.70    7.70
  -3   2  12    0.80    6.40
   2  -2 -12   62.39   12.30
  -2   2  12   64.99   11.80
   1  -2 -12  100.19   14.80
  -1   2  12  128.79   15.30
   0  -2 -12    1.30    7.90
   0   2  12    3.40    6.50
  -1  -2 -12   10.70    9.60
   1   2  12   21.20    8.40
  -2  -2 -12  165.68   17.70
   2   2  12  125.29   13.40
  -3  -2 -12  107.49   10.00
  -4  -2 -12   -6.80   11.60
   7  -3 -12   -2.00   13.30
  -7   3  12   18.50   11.10
   6  -3 -12   15.90   14.60
  -6   3  12   40.10   12.10
   5  -3 -12   66.29   14.70
  -5   3  12   83.09   12.40
   4  -3 -12   66.49   14.00
  -4   3  12   82.79   12.80
   3  -3 -12    8.90    9.10
  -3   3  12    9.70    6.40
   2  -3 -12   71.99   13.40
  -2   3  12   71.99   12.10
   1  -3 -12  155.08   20.30
  -1   3  12  116.59   14.40
   0  -3 -12   11.30    9.30
   0   3  12   24.50    8.50
  -1  -3 -12   45.90   11.80
   1   3  12   50.69    9.30
  -2  -3 -12   25.30   12.50
  -3  -3 -12   65.69   15.80
   7  -4 -12   25.60   15.50
  -7   4  12   29.80   11.70
   6  -4 -12   29.10   13.20
  -6   4  12    9.50   10.20
   5  -4 -12  119.29   18.80
  -5   4  12  107.99   15.30
   4  -4 -12   86.49   20.90
  -4   4  12   92.19   13.60
   3  -4 -12   13.70   11.90
   2  -4 -12  110.69   18.30
  -2   4  12  138.39   15.90
   1  -4 -12   88.69   22.30
  -1   4  12   91.59   12.30
   0  -4 -12    5.00   11.00
   0   4  12   34.80    8.50
  -1  -4 -12   -4.00    9.90
   1   4  12   -8.40    8.00
  -2  -4 -12  135.09   20.60
   6  -5 -12   23.50   13.60
  -6   5  12    8.30    9.10
   5  -5 -12   88.09   18.40
  -5   5  12  124.69   16.10
   4  -5 -12   81.29   17.10
  -4   5  12   68.09   12.80
   3  -5 -12   14.30   11.00
  -3   5  12   28.60    9.20
   2  -5 -12   17.90   11.30
  -2   5  12    9.20    7.60
   1  -5 -12   93.09   17.40
  -1   5  12   91.49   12.70
   0  -5 -12   43.00   13.30
   0   5  12   52.29   10.80
  -1  -5 -12   23.40   12.60
   1   5  12    7.60   10.50
   5  -6 -12  123.59   22.30
  -5   6  12  106.79   16.00
   4  -6 -12  160.78   24.00
  -4   6  12  154.08   19.50
   3  -6 -12   -6.10   10.90
  -3   6  12   16.80    9.00
   2  -6 -12   25.30   14.40
  -2   6  12   40.30   11.10
   1  -6 -12  116.59   19.00
  -1   6  12   87.59   13.70
  -1   9 -13    0.20    7.30
  -2   9 -13   -2.60    7.40
  -3   9 -13   25.30    8.10
  -4   9 -13   63.69   10.80
   1   8 -13   57.59   11.10
   0   8 -13  102.09   13.00
  -1   8 -13   27.40    9.20
  -2   8 -13  111.19   13.90
  -3   8 -13   82.59   11.50
  -4   8 -13   35.90    9.70
  -5   8 -13   16.70    8.30
   2   7 -13    3.70    7.50
   1   7 -13   33.70    9.10
   0   7 -13  204.28   16.30
  -1   7 -13   43.90    8.60
  -2   7 -13   -2.60    5.90
  -3   7 -13  119.59   13.10
  -4   7 -13   98.39   13.50
  -5   7 -13    5.80    9.10
  -6   7 -13   38.80   10.30
   3   6 -13  114.39   14.30
   2   6 -13   15.50    8.80
   1   6 -13   63.89   11.10
   0   6 -13  187.08   15.60
  -1   6 -13   46.40    9.70
  -3   6 -13  101.99   11.70
  -4   6 -13   71.49   10.20
  -5   6 -13   19.60    8.00
  -6   6 -13   33.70    9.30
   4   5 -13   23.30   10.30
   3   5 -13   56.29   11.50
   2   5 -13   11.40    8.40
   1   5 -13   25.00    8.30
   0   5 -13   87.09   11.80
  -1   5 -13   37.90    7.40
  -2   5 -13   -4.60    5.70
  -3   5 -13   81.39   10.30
  -4   5 -13  113.59   11.80
  -5   5 -13    8.10    7.40
   5  -5  13    8.00    9.20
  -6   5 -13   -1.50    8.40
   6  -5  13  -22.00   13.00
   4   4 -13   21.10    8.00
   4   4 -13   12.10    9.90
   3   4 -13  125.49   11.10
   3   4 -13  123.79   14.80
   2   4 -13   12.90    7.40
   1   4 -13   -6.40    5.50
   0   4 -13   20.30    7.20
  -1   4 -13  162.08   13.70
  -2   4 -13   -0.50    5.70
  -3   4 -13   69.99    8.70
  -4   4 -13   50.79    8.60
  -5   4 -13   51.69    8.10
  -6   4 -13  -15.20    8.00
   6  -4  13   -0.70   12.80
   5   3 -13   21.50   12.10
  -5  -3  13   26.70   12.80
   4   3 -13   50.19   10.30
  -4  -3  13   43.90   13.40
   3   3 -13   66.89    9.90
  -3  -3  13  103.49   15.50
   2   3 -13   23.40    9.00
   2   3 -13   44.10    7.00
   1   3 -13   -4.50    4.60
   1   3 -13   -0.20    5.20
   0   3 -13   31.80    6.30
   0   3 -13   24.60    6.30
  -1   3 -13  115.99    8.60
  -1   3 -13  162.78   12.80
   1  -3  13  151.88   13.30
  -2   3 -13   14.00    5.90
  -2   3 -13    6.70    6.60
   2  -3  13   -4.50    8.20
  -3   3 -13   11.10    7.00
  -3   3 -13   -4.80    5.50
  -4   3 -13  139.69   16.60
  -4   3 -13  149.09   12.00
  -5   3 -13  152.48   12.40
  -5   3 -13  136.49   15.80
  -6   3 -13    5.50   11.30
  -6   3 -13   13.00   11.80
   5   2 -13   16.20   12.00
  -5  -2  13   -5.10   10.10
   4   2 -13   27.00   10.10
  -4  -2  13   11.30   10.00
   3   2 -13  133.09   14.40
  -3  -2  13  117.09   16.70
   2   2 -13   35.10    8.10
  -2  -2  13   22.40   11.60
   1   2 -13   -2.50    6.30
  -1  -2  13    2.60    7.70
   0   2 -13  288.57   15.10
   0  -2  13  228.18   23.10
  -1   2 -13  110.69   11.20
  -1   2 -13   89.39   10.10
   1  -2  13   66.89   13.60
  -2   2 -13   51.49    8.90
  -2   2 -13   40.90    8.00
   2  -2  13   20.00   13.70
  -3   2 -13   13.10    8.80
  -3   2 -13   19.20    6.40
  -4   2 -13   36.10   10.60
  -4   2 -13   32.10    7.60
  -5   2 -13   21.10    7.80
  -5   2 -13   28.50   10.80
   6   1 -13  108.89   17.40
  -6  -1  13   86.69   16.90
   5   1 -13   25.90   11.80
  -5  -1  13   72.09   13.80
   4   1 -13   40.90   12.20
  -4  -1  13   56.89   12.50
   3   1 -13   99.69   13.10
  -3  -1  13  100.79   15.30
   2   1 -13  211.38   16.90
  -2  -1  13  155.38   16.90
   1   1 -13    1.00    7.20
  -1  -1  13   13.60    8.60
   0   1 -13  126.59   13.20
   0  -1  13  161.68   16.60
  -2   1 -13  144.19   11.60
  -2   1 -13  125.99   14.30
  -3   1 -13   -1.50    6.20
  -3   1 -13   -2.50    9.10
  -4   1 -13   82.49   13.90
  -4   1 -13   87.79    8.90
  -5   1 -13   13.80   12.00
   6   0 -13   40.80   15.10
  -6   0  13   66.59   13.70
   5   0 -13   -5.00   10.90
  -5   0  13   -4.20    9.20
   4   0 -13   10.10    9.10
  -4   0  13   -4.30    8.90
   3   0 -13  145.99   15.80
  -3   0  13  135.99   17.10
   2   0 -13  203.98   17.30
  -2   0  13  216.38   18.60
   1   0 -13    3.80    8.10
  -1   0  13    6.70    8.10
   0   0 -13   38.80    8.80
   0   0  13   22.90    8.50
  -1   0 -13  235.48   18.20
   1   0  13  240.18   17.70
  -2   0 -13   92.69   13.80
  -2   0 -13  107.19   11.10
  -3   0 -13   19.40    7.80
  -3   0 -13   17.40   10.70
  -4   0 -13   67.19   13.80
  -4   0 -13   65.69    8.30
   6  -1 -13   57.19   14.80
  -6   1  13   79.69   15.00
   5  -1 -13   26.30   11.10
  -5   1  13   14.60   10.80
   4  -1 -13   -0.70    9.80
  -4   1  13    4.00    9.00
   3  -1 -13  109.29   15.70
  -3   1  13   94.39   13.30
   2  -1 -13   53.09   12.00
  -2   1  13   26.00   10.10
   1  -1 -13   45.40   11.40
  -1   1  13   34.90   10.00
   0  -1 -13   16.00    9.60
   0   1  13   37.00    8.80
  -1  -1 -13  140.59   17.20
   1   1  13  147.09   15.50
  -2  -1 -13   48.20   11.90
  -3  -1 -13   -1.50    7.20
  -3  -1 -13    6.90   10.40
  -4  -1 -13   79.49   16.00
   6  -2 -13   36.10   15.30
  -6   2  13   62.19   13.70
   5  -2 -13   53.49   14.30
  -5   2  13   45.10   11.50
   4  -2 -13   -7.60   10.30
  -4   2  13    2.00    9.00
   3  -2 -13   22.30   11.30
  -3   2  13   16.20    9.10
   2  -2 -13  116.89   16.80
  -2   2  13   91.99   14.50
   1  -2 -13   14.80    9.20
  -1   2  13   13.80    9.00
   0  -2 -13    5.30    9.30
   0   2  13   10.50    8.30
  -1  -2 -13   42.90   11.70
   1   2  13   27.90    9.70
  -3  -2 -13  -21.70   11.60
  -3  -2 -13  -23.70    9.20
   6  -3 -13    4.90   14.50
  -6   3  13   14.80   10.10
   5  -3 -13   62.99   14.40
  -5   3  13   30.60   11.60
   4  -3 -13   -0.80    9.70
  -4   3  13    0.60    9.00
   3  -3 -13   57.99   13.10
  -3   3  13   85.79   14.80
   2  -3 -13  118.99   17.70
   1  -3 -13   29.90   11.20
  -1   3  13   29.70    9.90
   0   3  13    5.50    9.40
  -1  -3 -13   40.70   13.00
   1   3  13   39.10   10.30
  -2  -3 -13   72.49   14.50
   2   3  13   82.59   12.00
   5  -4 -13   30.30   13.40
  -5   4  13   70.49   12.30
   4  -4 -13    0.50   11.30
  -4   4  13   13.30    9.20
   3  -4 -13    4.70   10.80
  -3   4  13    3.80    9.50
   2  -4 -13  121.99   18.90
  -2   4  13   89.49   14.10
   1  -4 -13   68.79   16.00
  -1   4  13   82.99   14.80
   0  -4 -13   11.70   11.40
   0   4  13  -14.80    8.80
  -1  -4 -13   26.80   13.90
   1   4  13   29.50   11.30
   4  -5 -13   15.80   13.00
  -4   5  13   12.70   12.00
   3  -5 -13   35.40   14.70
  -3   5  13   28.60   11.10
   2  -5 -13  124.39   21.90
  -2   5  13  155.58   18.40
   1  -5 -13  134.79   21.70
  -2   8 -14    8.90    7.90
  -3   8 -14  118.29   13.90
   0   7 -14  134.39   15.70
  -1   7 -14   10.00    8.10
  -2   7 -14   49.30   10.40
  -3   7 -14   97.19   12.80
  -4   7 -14   48.00   10.20
   2   6 -14    2.10    8.50
   1   6 -14  114.29   14.20
   0   6 -14   23.50    8.90
  -1   6 -14    2.30    7.40
  -2   6 -14   80.49   12.10
  -3   6 -14  121.39   13.00
  -4   6 -14    6.80    8.70
  -5   6 -14  -13.40    9.00
   3   5 -14   28.80    9.90
   2   5 -14   -1.50    7.90
   1   5 -14   31.50   10.00
   0   5 -14  126.09   14.40
  -1   5 -14   17.90    8.10
  -2   5 -14   16.40    7.80
  -3   5 -14    7.00    7.30
  -4   5 -14   69.09   10.80
  -5   5 -14   -8.40    8.50
   3   4 -14   61.49   11.20
   2   4 -14    3.80    7.40
   1   4 -14   33.50    9.90
   0   4 -14  120.89   13.10
  -1   4 -14   23.10   12.60
  -2   4 -14    6.30    7.00
  -3   4 -14   49.40    8.50
  -4   4 -14   13.00    8.50
  -5   4 -14   -6.40    7.80
   5  -4  14  -18.90   14.60
   4   3 -14   83.99   14.20
  -4  -3  14   81.79   15.80
   3   3 -14   19.60    9.00
   2   3 -14   -9.20    6.30
   2   3 -14   -6.50    6.50
   1   3 -14   57.19   10.70
   1   3 -14   48.90   10.00
   0   3 -14  174.08   17.60
  -1   3 -14    6.80    5.50
  -1   3 -14    6.30    7.00
  -2   3 -14   40.10    8.60
  -2   3 -14   24.70    7.00
  -3   3 -14  102.39   11.20
  -3   3 -14  117.49   12.90
  -4   3 -14   15.60    7.90
  -5   3 -14   -3.70    8.90
  -5   3 -14   -1.80   10.60
   4   2 -14   61.39   13.10
  -4  -2  14   60.89   15.00
   3   2 -14   81.29   12.90
  -3  -2  14   68.39   15.30
   2   2 -14    2.70    8.00
  -2  -2  14    8.10    9.50
   1   2 -14   53.39    9.50
  -1  -2  14   45.40   12.30
   0   2 -14   76.69   10.40
   0   2 -14   79.09   10.00
  -1   2 -14  132.89   13.10
  -1   2 -14  120.29   12.90
  -2   2 -14    1.20    6.80
  -2   2 -14   18.50    9.00
  -3   2 -14   58.29   12.30
  -3   2 -14   60.39    9.70
  -4   2 -14  116.99   14.30
  -4   2 -14  135.79   13.40
   5   1 -14   34.30   13.60
  -5  -1  14    4.50   12.00
   4   1 -14   76.29   14.60
  -4  -1  14   81.99   15.40
   3   1 -14  131.59   15.70
  -3  -1  14   94.19   16.10
   2   1 -14    2.30    8.70
  -2  -1  14   13.00    9.70
   1   1 -14   22.90   12.60
  -1  -1  14   29.20   11.20
   0   1 -14  138.69   14.40
   0  -1  14  129.29   16.10
  -1   1 -14   61.39    9.40
  -1   1 -14   50.69   10.10
  -2   1 -14   16.60    9.10
  -2   1 -14    3.70    6.90
  -3   1 -14  111.89   11.80
  -3   1 -14  108.19   14.70
  -4   1 -14   90.39   15.70
  -4   1 -14   99.09   10.80
   5   0 -14   18.50   13.20
  -5   0  14   -8.10   10.10
   4   0 -14   67.49   14.30
  -4   0  14   49.00   13.60
   3   0 -14  148.79   18.60
  -3   0  14  128.19   16.50
   2   0 -14   25.50   10.60
  -2   0  14    8.50   10.30
   1   0 -14   30.10    9.70
   0   0 -14   44.40   10.20
   0   0  14   66.19   11.80
  -1   0 -14   63.29   11.50
  -2   0 -14   -4.20    7.60
  -2   0 -14    1.40   10.40
  -3   0 -14   41.50    9.60
  -3   0 -14   47.80   13.80
   5  -1 -14    0.10   12.50
  -5   1  14   16.60   11.30
   4  -1 -14   51.89   13.00
  -4   1  14   26.30   11.10
   3  -1 -14  158.68   19.50
  -3   1  14  144.69   17.40
   2  -1 -14   11.30   10.40
  -2   1  14   36.10   12.00
   1  -1 -14   -2.20   10.10
   0  -1 -14   41.60   12.00
   0   1  14   49.30   12.20
  -1  -1 -14   78.29   14.50
   1   1  14   98.79   13.60
  -2  -1 -14    7.50   11.90
  -2  -1 -14   -6.90    8.50
   5  -2 -14   31.70   15.40
  -5   2  14   15.20   11.60
   4  -2 -14   44.30   15.10
  -4   2  14   35.80   11.00
   3  -2 -14   47.00   13.30
  -3   2  14   57.59   12.70
   2  -2 -14   69.79   13.90
  -2   2  14   44.80   12.10
   1  -2 -14   -1.00   11.00
  -1   2  14   -2.00   11.20
   0  -2 -14  139.29   18.80
   0   2  14  145.09   17.10
  -1  -2 -14   16.20   12.10
   1   2  14   39.70   12.20
   4  -3 -14   18.60   14.70
  -4   3  14   15.90   11.60
   3  -3 -14   34.10   14.50
  -3   3  14   45.20   14.00
   2  -3 -14   42.70   14.70
  -2   3  14   42.50   11.30
   1  -3 -14   -8.80   12.30
  -1   3  14  -14.00   10.30
   0  -3 -14    7.00   11.80
   0   3  14    8.50   10.90
  -1   6 -15   11.40    8.00
   1   5 -15  119.69   14.90
   0   5 -15   37.10    9.70
  -1   5 -15    5.40    8.30
  -2   5 -15   53.69   10.40
  -3   5 -15   45.30   10.50
   2   4 -15   29.00    9.00
   1   4 -15   52.29   10.50
   0   4 -15   -0.60    8.40
  -1   4 -15    3.20    8.10
  -2   4 -15  129.49   13.90
  -3   4 -15    9.50   15.00
   2   3 -15   24.50   10.20
   1   3 -15   60.59   11.00
   0   3 -15   66.79   11.20
  -1   3 -15  -11.80    7.50
  -3   3 -15   98.49   11.90
  -3  -2  15  -28.40   11.00
   2   2 -15  -11.60    9.60
  -2  -2  15   26.40   12.50
   1   2 -15   50.89    9.90
   1   2 -15   54.29   10.60
   0   2 -15   84.59   11.00
   0   2 -15   92.49   12.60
  -1   2 -15   -2.10    8.10
  -1   2 -15   22.80    9.50
  -2   2 -15   65.99   11.10
  -2   2 -15   63.99   14.60
   3   1 -15   -2.60   11.00
  -3  -1  15  -19.00   10.10
   2   1 -15   22.30   10.90
  -2  -1  15   -2.60   11.60
   1   1 -15   68.39   11.60
  -1  -1  15   70.29   15.30
   0   1 -15   42.60   10.70
  -1   1 -15   10.30   10.20
  -2   1 -15   13.70    9.20
  -2   1 -15   28.70   12.00
   3   0 -15    0.20   12.00
  -3   0  15   44.60   14.40
   2   0 -15   15.60   11.80
  -2   0  15   -3.20   10.80
   1   0 -15   83.79   14.80
  -1   0  15   81.19   15.20
   0   0 -15   48.60   12.70
   0   0  15   87.79   15.90
  -1   0 -15   -1.30    8.60
  -1   0 -15    3.00   11.80
   2  -1 -15   14.10   12.80
  -2   1  15    6.70   10.70
   1  -1 -15   49.60   14.90
  -1   1  15   60.79   14.10
   0   0   0    0.00    0.00

_computing_structure_solution     'SHELXT 2018/2 (Sheldrick, 2018)'
;
_shelx_hkl_checksum   23527

