 
data_VV-36_a
 
_audit_creation_method            'SHELXL-2019/3'
_shelx_SHELXL_version_number      '2019/3'
_chemical_name_systematic         ?
_chemical_name_common             ?
_chemical_melting_point           ?
_chemical_formula_moiety          ?
_chemical_formula_sum
 'C H Cd N O' 
_chemical_formula_weight          155.43

loop_
 _atom_type_symbol
 _atom_type_description
 _atom_type_scat_dispersion_real
 _atom_type_scat_dispersion_imag
 _atom_type_scat_source
 'C'  'C'   0.0033   0.0016
 'International Tables Vol C Tables 4.2.6.8 and 6.1.1.4'
 'H'  'H'   0.0000   0.0000
 'International Tables Vol C Tables 4.2.6.8 and 6.1.1.4'
 'N'  'N'   0.0061   0.0033
 'International Tables Vol C Tables 4.2.6.8 and 6.1.1.4'
 'O'  'O'   0.0106   0.0060
 'International Tables Vol C Tables 4.2.6.8 and 6.1.1.4'
 'Cd'  'Cd'  -0.8075   1.2024
 'International Tables Vol C Tables 4.2.6.8 and 6.1.1.4'
 
_space_group_crystal_system       triclinic
_space_group_IT_number            2
_space_group_name_H-M_alt         'P -1'
_space_group_name_Hall            '-P 1'
 
_shelx_space_group_comment
;
The symmetry employed for this shelxl refinement is uniquely defined
by the following loop, which should always be used as a source of
symmetry information in preference to the above space-group names.
They are only intended as comments.
;
 
loop_
 _space_group_symop_operation_xyz
 'x, y, z'
 '-x, -y, -z'
 
_cell_length_a                    11.7094(6)
_cell_length_b                    11.7179(6)
_cell_length_c                    12.9744(6)
_cell_angle_alpha                 65.520(2)
_cell_angle_beta                  81.976(2)
_cell_angle_gamma                 86.266(2)
_cell_volume                      1604.27(14)
_cell_formula_units_Z             19
_cell_measurement_temperature     150(2)
_cell_measurement_reflns_used     ?
_cell_measurement_theta_min       ?
_cell_measurement_theta_max       ?
 
_exptl_crystal_description        ?
_exptl_crystal_colour             ?
_exptl_crystal_density_meas       ?
_exptl_crystal_density_method     ?
_exptl_crystal_density_diffrn     3.057          
_exptl_crystal_F_000              1330
_exptl_transmission_factor_min    ?
_exptl_transmission_factor_max    ?
_exptl_crystal_size_max           ?
_exptl_crystal_size_mid           ?
_exptl_crystal_size_min           ?
_exptl_absorpt_coefficient_mu     6.211
_shelx_estimated_absorpt_T_min    ?
_shelx_estimated_absorpt_T_max    ?
_exptl_absorpt_correction_type    ?
_exptl_absorpt_correction_T_min   ?
_exptl_absorpt_correction_T_max   ?
_exptl_absorpt_process_details    ?
_exptl_absorpt_special_details    ?
_diffrn_ambient_temperature       150(2)
_diffrn_radiation_wavelength      0.71073
_diffrn_radiation_type            MoK\a
_diffrn_source                    ?
_diffrn_measurement_device_type   ?
_diffrn_measurement_method        ?
_diffrn_detector_area_resol_mean  ?
_diffrn_reflns_number             30613
_diffrn_reflns_av_unetI/netI      0.0458
_diffrn_reflns_av_R_equivalents   0.0378
_diffrn_reflns_limit_h_min        -16
_diffrn_reflns_limit_h_max        16
_diffrn_reflns_limit_k_min        -16
_diffrn_reflns_limit_k_max        16
_diffrn_reflns_limit_l_min        -18
_diffrn_reflns_limit_l_max        18
_diffrn_reflns_theta_min          1.738
_diffrn_reflns_theta_max          30.567
_diffrn_reflns_theta_full         25.242
_diffrn_measured_fraction_theta_max   0.997
_diffrn_measured_fraction_theta_full  0.998
_diffrn_reflns_Laue_measured_fraction_max    0.997
_diffrn_reflns_Laue_measured_fraction_full   0.998
_diffrn_reflns_point_group_measured_fraction_max   0.997
_diffrn_reflns_point_group_measured_fraction_full  0.998
_reflns_number_total              9821
_reflns_number_gt                 7715
_reflns_threshold_expression      'I > 2\s(I)'
_reflns_Friedel_coverage          0.000
_reflns_Friedel_fraction_max      .
_reflns_Friedel_fraction_full     .
 
_reflns_special_details
;
 Reflections were merged by SHELXL according to the crystal
 class for the calculation of statistics and refinement.
 
 _reflns_Friedel_fraction is defined as the number of unique
 Friedel pairs measured divided by the number that would be
 possible theoretically, ignoring centric projections and
 systematic absences. Completness statistics refer to single and
 composite reflections containing twin component 1 only.
;
 
_computing_data_collection        ?
_computing_cell_refinement        ?
_computing_data_reduction         ?
_computing_structure_solution     'SHELXT 2018/2 (Sheldrick, 2018)'
_computing_structure_refinement 'SHELXL-2019/2 (Sheldrick, 2019)'
_computing_molecular_graphics     ?
_computing_publication_material   ?
_refine_special_details
;
 Refined as a 2-component inversion twin.
;
_refine_ls_structure_factor_coef  Fsqd
_refine_ls_matrix_type            full
_refine_ls_weighting_scheme       calc
_refine_ls_weighting_details
'w=1/[\s^2^(Fo^2^)+(0.2000P)^2^] where P=(Fo^2^+2Fc^2^)/3'
_atom_sites_solution_primary      ?
_atom_sites_solution_secondary    ?
_atom_sites_solution_hydrogens    geom
_refine_ls_hydrogen_treatment     constr
_refine_ls_extinction_method      none
_refine_ls_extinction_coef        .
_refine_ls_number_reflns          9821
_refine_ls_number_parameters      434
_refine_ls_number_restraints      0
_refine_ls_R_factor_all           0.1497
_refine_ls_R_factor_gt            0.1303
_refine_ls_wR_factor_ref          0.4238
_refine_ls_wR_factor_gt           0.4101
_refine_ls_goodness_of_fit_ref    1.809
_refine_ls_restrained_S_all       1.809
_refine_ls_shift/su_max           0.004
_refine_ls_shift/su_mean          0.000
 
loop_
 _atom_site_label
 _atom_site_type_symbol
 _atom_site_fract_x
 _atom_site_fract_y
 _atom_site_fract_z
 _atom_site_U_iso_or_equiv
 _atom_site_adp_type
 _atom_site_occupancy
 _atom_site_site_symmetry_order  
 _atom_site_calc_flag
 _atom_site_refinement_flags_posn
 _atom_site_refinement_flags_adp
 _atom_site_refinement_flags_occupancy
 _atom_site_disorder_assembly
 _atom_site_disorder_group
Cd01 Cd 0.47884(5) 1.20451(5) 0.67244(5) 0.0333(3) Uani 1 1 d . . . . .
O002 O 0.3482(3) 1.2507(4) 0.5791(4) 0.0143(8) Uani 1 1 d . . . . .
O003 O 0.2505(3) 1.2385(4) 0.7414(3) 0.0141(8) Uani 1 1 d . . . . .
O004 O 0.6103(4) 1.2491(4) 0.5541(4) 0.0188(9) Uani 1 1 d . . . . .
O005 O 1.0826(4) 1.1752(4) -0.0895(4) 0.0221(10) Uani 1 1 d . . . . .
O006 O 0.5802(4) 1.0617(4) 0.5601(4) 0.0197(9) Uani 1 1 d . . . . .
O007 O 0.6120(4) 0.8097(4) 0.6190(4) 0.0210(9) Uani 1 1 d . . . . .
O008 O 1.1118(5) 1.3612(5) -0.0884(4) 0.0279(11) Uani 1 1 d . . . . .
N009 N 0.4635(4) 0.4772(4) 0.8045(4) 0.0112(8) Uani 1 1 d . . . . .
N00A N 0.4936(4) 0.3436(4) 0.7251(4) 0.0148(9) Uani 1 1 d . . . . .
N00B N 0.4037(4) 0.8399(4) 0.9004(4) 0.0115(8) Uani 1 1 d . . . . .
N00C N 0.4495(4) 1.0385(4) 0.8025(4) 0.0126(9) Uani 1 1 d . . . . .
C00D C 0.8715(5) 1.2693(5) 0.2085(4) 0.0113(9) Uani 1 1 d . . . . .
C00E C 0.8190(5) 1.1490(5) 0.2576(4) 0.0096(9) Uani 1 1 d . . . . .
C00F C -0.0058(5) 1.5020(5) 0.4455(5) 0.0130(10) Uani 1 1 d . . . . .
C00G C 0.0907(5) 1.4161(5) 0.6178(5) 0.0130(10) Uani 1 1 d . . . . .
H00G H 0.096921 1.408297 0.692688 0.016 Uiso 1 1 calc R U . . .
C00H C 0.2571(4) 1.2729(5) 0.6364(5) 0.0107(9) Uani 1 1 d . . . . .
C00I C 0.9522(5) 1.3025(5) 0.1099(5) 0.0128(10) Uani 1 1 d . . . . .
H00I H 0.988976 1.381645 0.078697 0.015 Uiso 1 1 calc R U . . .
C00J C 0.7398(5) 1.1164(5) 0.3591(5) 0.0110(9) Uani 1 1 d . . . . .
H00J H 0.704789 1.036156 0.392733 0.013 Uiso 1 1 calc R U . . .
C00K C 0.9780(5) 1.2203(5) 0.0582(5) 0.0124(10) Uani 1 1 d . . . . .
C00L C 0.8426(5) 1.3518(5) 0.2622(5) 0.0156(11) Uani 1 1 d . . . . .
H00L H 0.877907 1.431855 0.230607 0.019 Uiso 1 1 calc R U . . .
C00M C 0.6299(5) 1.1645(5) 0.5148(5) 0.0123(10) Uani 1 1 d . . . . .
C00N C 0.7132(4) 1.1993(5) 0.4089(5) 0.0101(9) Uani 1 1 d . . . . .
C00O C 0.3019(5) 0.6437(6) 1.0220(5) 0.0155(10) Uani 1 1 d . . . . .
C00P C 0.8473(5) 1.0665(5) 0.2028(5) 0.0136(10) Uani 1 1 d . . . . .
H00P H 0.812224 0.986439 0.233910 0.016 Uiso 1 1 calc R U . . .
C00Q C 1.0628(5) 1.2600(5) -0.0464(5) 0.0148(10) Uani 1 1 d . . . . .
C00R C 0.7652(5) 1.3198(5) 0.3584(5) 0.0150(10) Uani 1 1 d . . . . .
H00R H 0.745890 1.378009 0.391788 0.018 Uiso 1 1 calc R U . . .
C00S C 0.1636(5) 1.3482(5) 0.5713(5) 0.0123(10) Uani 1 1 d . . . . .
C00T C 0.4501(5) 0.9289(5) 0.7980(5) 0.0124(10) Uani 1 1 d . . . . .
H00T H 0.478702 0.913407 0.732800 0.015 Uiso 1 1 calc R U . . .
C00U C 0.4104(5) 0.5314(5) 0.8791(5) 0.0113(9) Uani 1 1 d . . . . .
C00V C 0.3363(6) 0.4581(6) 0.9759(5) 0.0184(12) Uani 1 1 d . . . . .
C00W C 0.3816(5) 0.7137(5) 0.9258(5) 0.0131(10) Uani 1 1 d . . . . .
C00X C 0.4337(5) 0.6564(5) 0.8554(5) 0.0120(9) Uani 1 1 d . . . . .
H00X H 0.485856 0.702974 0.790324 0.014 Uiso 1 1 calc R U . . .
C00Y C 0.9252(5) 1.1010(5) 0.1047(5) 0.0141(10) Uani 1 1 d . . . . .
H00Y H 0.943327 1.045046 0.068636 0.017 Uiso 1 1 calc R U . . .
C00Z C 0.2816(6) 0.5190(6) 1.0435(5) 0.0203(12) Uani 1 1 d . . . . .
C010 C 0.0682(6) 1.4278(6) 0.4021(6) 0.0203(12) Uani 1 1 d . . . . .
H010 H 0.059772 1.429862 0.329614 0.024 Uiso 1 1 calc R U . . .
C011 C 0.4241(5) 0.3744(5) 0.7950(5) 0.0157(10) Uani 1 1 d . . . . .
H011 H 0.354575 0.331838 0.835069 0.019 Uiso 1 1 calc R U . . .
C012 C 0.1516(5) 1.3531(6) 0.4625(6) 0.0189(12) Uani 1 1 d . . . . .
H012 H 0.201386 1.304692 0.431489 0.023 Uiso 1 1 calc R U . . .
C013 C 0.5660(6) 0.5114(6) 0.7308(6) 0.0192(12) Uani 1 1 d . . . . .
H013 H 0.613848 0.580018 0.716975 0.023 Uiso 1 1 calc R U . . .
C014 C 0.3737(6) 0.8998(6) 0.9733(5) 0.0204(12) Uani 1 1 d . . . . .
H014 H 0.340454 0.862586 1.050862 0.024 Uiso 1 1 calc R U . . .
C015 C 0.5841(6) 0.4293(6) 0.6833(6) 0.0201(12) Uani 1 1 d . . . . .
H015 H 0.648143 0.429120 0.629688 0.024 Uiso 1 1 calc R U . . .
C016 C 0.4014(6) 1.0218(6) 0.9115(5) 0.0208(12) Uani 1 1 d . . . . .
H016 H 0.389613 1.086066 0.938649 0.025 Uiso 1 1 calc R U . . .
N3 N 0.2241(19) 0.4321(18) 1.1362(15) 0.022(4) Uani 0.4 1 d . . P A 2
N2 N 0.3192(11) 0.3375(11) 1.0243(10) 0.024(2) Uani 0.5 1 d . . P A 2
O1 O 0.2508(12) 0.3193(11) 1.1185(10) 0.036(3) Uani 0.5 1 d . . P A 2
O1 O 0.1720(8) 0.5782(9) 1.1595(8) 0.0283(18) Uani 0.6 1 d . . P A 1
N3 N 0.1977(12) 0.4789(13) 1.1300(11) 0.024(3) Uani 0.6 1 d . . P A 1
N2 N 0.2374(9) 0.6808(9) 1.0910(8) 0.0212(18) Uani 0.6 1 d . . P A 1
 
loop_
 _atom_site_aniso_label
 _atom_site_aniso_U_11
 _atom_site_aniso_U_22
 _atom_site_aniso_U_33
 _atom_site_aniso_U_23
 _atom_site_aniso_U_13
 _atom_site_aniso_U_12
Cd01 0.0337(4) 0.0295(4) 0.0405(4) -0.0200(3) 0.0012(2) 0.0000(2)
O002 0.0111(18) 0.018(2) 0.0172(19) -0.0127(16) 0.0018(14) 0.0084(14)
O003 0.0113(18) 0.017(2) 0.0116(18) -0.0062(15) 0.0051(13) 0.0031(14)
O004 0.022(2) 0.0132(19) 0.025(2) -0.0156(17) 0.0123(17) -0.0058(16)
O005 0.027(2) 0.016(2) 0.023(2) -0.0125(18) 0.0154(18) -0.0085(17)
O006 0.026(2) 0.0129(19) 0.019(2) -0.0089(16) 0.0110(17) -0.0081(17)
O007 0.035(3) 0.013(2) 0.017(2) -0.0101(16) 0.0008(18) 0.0032(18)
O008 0.043(3) 0.019(2) 0.019(2) -0.0086(18) 0.015(2) -0.017(2)
N009 0.017(2) 0.0057(18) 0.014(2) -0.0081(16) 0.0030(16) -0.0031(15)
N00A 0.018(2) 0.009(2) 0.021(2) -0.0110(18) 0.0032(18) -0.0033(17)
N00B 0.019(2) 0.009(2) 0.011(2) -0.0091(16) -0.0023(16) 0.0038(16)
N00C 0.017(2) 0.010(2) 0.013(2) -0.0077(17) -0.0007(16) 0.0034(16)
C00D 0.015(2) 0.005(2) 0.012(2) -0.0029(17) 0.0007(18) -0.0005(17)
C00E 0.013(2) 0.005(2) 0.012(2) -0.0038(17) -0.0006(17) -0.0011(17)
C00F 0.011(2) 0.018(3) 0.018(3) -0.016(2) -0.0006(18) 0.0074(19)
C00G 0.013(2) 0.015(2) 0.015(2) -0.011(2) -0.0009(18) 0.0049(19)
C00H 0.009(2) 0.011(2) 0.014(2) -0.0086(19) 0.0038(17) 0.0007(17)
C00I 0.017(2) 0.008(2) 0.014(2) -0.0054(18) 0.0015(19) -0.0040(18)
C00J 0.012(2) 0.006(2) 0.018(2) -0.0083(18) 0.0006(18) -0.0018(17)
C00K 0.017(2) 0.006(2) 0.013(2) -0.0036(18) 0.0041(18) -0.0030(18)
C00L 0.019(3) 0.010(2) 0.019(3) -0.010(2) 0.006(2) -0.0049(19)
C00M 0.010(2) 0.013(2) 0.016(2) -0.009(2) 0.0021(18) 0.0011(18)
C00N 0.009(2) 0.008(2) 0.014(2) -0.0059(18) -0.0007(17) -0.0001(17)
C00O 0.016(3) 0.014(2) 0.017(3) -0.009(2) 0.004(2) -0.001(2)
C00P 0.019(3) 0.006(2) 0.016(2) -0.0067(18) 0.0071(19) -0.0025(18)
C00Q 0.019(3) 0.009(2) 0.015(2) -0.0052(19) 0.0048(19) -0.0048(19)
C00R 0.018(3) 0.008(2) 0.020(3) -0.008(2) 0.004(2) -0.0019(19)
C00S 0.011(2) 0.013(2) 0.018(2) -0.012(2) -0.0001(18) 0.0032(18)
C00T 0.015(2) 0.012(2) 0.014(2) -0.0101(19) 0.0012(18) 0.0017(18)
C00U 0.018(2) 0.006(2) 0.011(2) -0.0060(18) 0.0023(18) -0.0014(18)
C00V 0.032(3) 0.011(2) 0.012(2) -0.006(2) 0.006(2) -0.008(2)
C00W 0.016(2) 0.011(2) 0.015(2) -0.009(2) -0.0028(19) 0.0029(19)
C00X 0.014(2) 0.011(2) 0.013(2) -0.0074(19) -0.0006(18) 0.0014(18)
C00Y 0.019(3) 0.008(2) 0.015(2) -0.0078(19) 0.0101(19) -0.0051(19)
C00Z 0.026(3) 0.017(3) 0.018(3) -0.010(2) 0.010(2) -0.007(2)
C010 0.022(3) 0.027(3) 0.024(3) -0.023(3) -0.007(2) 0.015(2)
C011 0.019(3) 0.011(2) 0.018(3) -0.009(2) 0.005(2) -0.004(2)
C012 0.015(3) 0.027(3) 0.024(3) -0.021(2) -0.004(2) 0.013(2)
C013 0.020(3) 0.014(3) 0.026(3) -0.012(2) 0.007(2) -0.007(2)
C014 0.036(3) 0.016(3) 0.016(3) -0.013(2) -0.001(2) 0.000(2)
C015 0.022(3) 0.014(3) 0.027(3) -0.015(2) 0.009(2) -0.006(2)
C016 0.037(4) 0.015(3) 0.015(3) -0.011(2) 0.000(2) 0.000(2)
N3 0.041(11) 0.013(8) 0.014(7) -0.012(7) 0.013(6) -0.017(7)
N2 0.036(6) 0.015(5) 0.021(5) -0.007(4) 0.000(4) -0.011(4)
O1 0.055(7) 0.023(5) 0.027(5) -0.008(4) 0.008(5) -0.017(5)
O1 0.033(5) 0.028(4) 0.029(4) -0.020(4) 0.010(3) -0.006(4)
N3 0.035(7) 0.019(6) 0.021(5) -0.015(5) 0.012(4) -0.014(5)
N2 0.029(5) 0.017(4) 0.016(4) -0.007(3) 0.005(3) -0.003(3)
 
_geom_special_details
;
 All esds (except the esd in the dihedral angle between two l.s. planes)
 are estimated using the full covariance matrix.  The cell esds are taken
 into account individually in the estimation of esds in distances, angles
 and torsion angles; correlations between esds in cell parameters are only
 used when they are defined by crystal symmetry.  An approximate (isotropic)
 treatment of cell esds is used for estimating esds involving l.s. planes.
;
 
loop_
 _geom_bond_atom_site_label_1
 _geom_bond_atom_site_label_2
 _geom_bond_distance
 _geom_bond_site_symmetry_2
 _geom_bond_publ_flag
Cd01 O004 1.944(4) . ?
Cd01 N00C 1.989(5) . ?
Cd01 O002 1.992(4) . ?
Cd01 N00A 2.036(5) 1_565 ?
Cd01 C00M 2.685(5) . ?
Cd01 C00H 2.713(5) . ?
O002 C00H 1.289(6) . ?
O003 C00H 1.243(7) . ?
O004 C00M 1.285(6) . ?
O005 C00Q 1.323(7) . ?
O006 C00M 1.244(7) . ?
O008 C00Q 1.223(7) . ?
N009 C011 1.374(7) . ?
N009 C013 1.393(7) . ?
N009 C00U 1.420(7) . ?
N00A C011 1.282(7) . ?
N00A C015 1.397(8) . ?
N00B C00T 1.368(7) . ?
N00B C014 1.392(7) . ?
N00B C00W 1.409(7) . ?
N00C C00T 1.308(7) . ?
N00C C016 1.385(7) . ?
C00D C00I 1.407(7) . ?
C00D C00L 1.409(7) . ?
C00D C00E 1.425(7) . ?
C00E C00P 1.418(7) . ?
C00E C00J 1.424(7) . ?
C00F C010 1.412(7) . ?
C00F C00G 1.426(8) 2_586 ?
C00F C00F 1.422(10) 2_586 ?
C00G C00S 1.375(7) . ?
C00G H00G 0.9500 . ?
C00H C00S 1.485(8) . ?
C00I C00K 1.382(7) . ?
C00I H00I 0.9500 . ?
C00J C00N 1.373(7) . ?
C00J H00J 0.9500 . ?
C00K C00Y 1.417(7) . ?
C00K C00Q 1.486(8) . ?
C00L C00R 1.364(8) . ?
C00L H00L 0.9500 . ?
C00M C00N 1.490(7) . ?
C00N C00R 1.423(7) . ?
C00O N2 1.285(10) . ?
C00O C00Z 1.399(8) . ?
C00O C00W 1.424(8) . ?
C00P C00Y 1.384(7) . ?
C00P H00P 0.9500 . ?
C00R H00R 0.9500 . ?
C00S C012 1.415(8) . ?
C00T H00T 0.9500 . ?
C00U C00V 1.402(8) . ?
C00U C00X 1.403(7) . ?
C00V N2 1.303(12) . ?
C00V C00Z 1.412(8) . ?
C00W C00X 1.398(7) . ?
C00X H00X 0.9500 . ?
C00Y H00Y 0.9500 . ?
C00Z N3 1.327(14) . ?
C00Z N3 1.336(18) . ?
C010 C012 1.367(8) . ?
C010 H010 0.9500 . ?
C011 H011 0.9500 . ?
C012 H012 0.9500 . ?
C013 C015 1.333(8) . ?
C013 H013 0.9500 . ?
C014 C016 1.352(9) . ?
C014 H014 0.9500 . ?
C015 H015 0.9500 . ?
C016 H016 0.9500 . ?
N3 O1 1.44(2) . ?
N2 O1 1.309(16) . ?
O1 N3 1.371(15) . ?
O1 N2 1.366(13) . ?
 
loop_
 _geom_angle_atom_site_label_1
 _geom_angle_atom_site_label_2
 _geom_angle_atom_site_label_3
 _geom_angle
 _geom_angle_site_symmetry_1
 _geom_angle_site_symmetry_3
 _geom_angle_publ_flag
O004 Cd01 N00C 126.6(2) . . ?
O004 Cd01 O002 101.15(19) . . ?
N00C Cd01 O002 109.7(2) . . ?
O004 Cd01 N00A 97.86(19) . 1_565 ?
N00C Cd01 N00A 112.3(2) . 1_565 ?
O002 Cd01 N00A 107.28(19) . 1_565 ?
O004 Cd01 C00M 26.57(17) . . ?
N00C Cd01 C00M 106.60(18) . . ?
O002 Cd01 C00M 94.95(16) . . ?
N00A Cd01 C00M 124.13(19) 1_565 . ?
O004 Cd01 C00H 124.96(19) . . ?
N00C Cd01 C00H 98.50(18) . . ?
O002 Cd01 C00H 26.56(15) . . ?
N00A Cd01 C00H 90.77(19) 1_565 . ?
C00M Cd01 C00H 121.49(17) . . ?
C00H O002 Cd01 109.7(4) . . ?
C00M O004 Cd01 110.8(4) . . ?
C011 N009 C013 106.0(5) . . ?
C011 N009 C00U 125.5(5) . . ?
C013 N009 C00U 128.4(5) . . ?
C011 N00A C015 107.1(5) . . ?
C011 N00A Cd01 129.1(4) . 1_545 ?
C015 N00A Cd01 123.7(4) . 1_545 ?
C00T N00B C014 106.9(5) . . ?
C00T N00B C00W 127.1(4) . . ?
C014 N00B C00W 125.8(5) . . ?
C00T N00C C016 107.0(5) . . ?
C00T N00C Cd01 127.3(4) . . ?
C016 N00C Cd01 124.5(4) . . ?
C00I C00D C00L 121.4(5) . . ?
C00I C00D C00E 120.0(5) . . ?
C00L C00D C00E 118.6(5) . . ?
C00P C00E C00D 118.5(5) . . ?
C00P C00E C00J 122.5(5) . . ?
C00D C00E C00J 119.0(5) . . ?
C010 C00F C00G 122.2(5) . 2_586 ?
C010 C00F C00F 119.4(6) . 2_586 ?
C00G C00F C00F 118.4(6) 2_586 2_586 ?
C00S C00G C00F 120.5(5) . 2_586 ?
C00S C00G H00G 119.8 . . ?
C00F C00G H00G 119.8 2_586 . ?
O003 C00H O002 121.2(5) . . ?
O003 C00H C00S 121.3(5) . . ?
O002 C00H C00S 117.4(5) . . ?
O003 C00H Cd01 78.9(3) . . ?
O002 C00H Cd01 43.7(3) . . ?
C00S C00H Cd01 155.5(4) . . ?
C00K C00I C00D 120.2(5) . . ?
C00K C00I H00I 119.9 . . ?
C00D C00I H00I 119.9 . . ?
C00N C00J C00E 120.9(5) . . ?
C00N C00J H00J 119.5 . . ?
C00E C00J H00J 119.5 . . ?
C00I C00K C00Y 120.6(5) . . ?
C00I C00K C00Q 118.2(5) . . ?
C00Y C00K C00Q 121.2(5) . . ?
C00R C00L C00D 121.6(5) . . ?
C00R C00L H00L 119.2 . . ?
C00D C00L H00L 119.2 . . ?
O006 C00M O004 122.3(5) . . ?
O006 C00M C00N 122.0(5) . . ?
O004 C00M C00N 115.7(5) . . ?
O006 C00M Cd01 80.2(3) . . ?
O004 C00M Cd01 42.6(3) . . ?
C00N C00M Cd01 156.4(4) . . ?
C00J C00N C00R 119.6(5) . . ?
C00J C00N C00M 120.5(5) . . ?
C00R C00N C00M 119.8(5) . . ?
N2 C00O C00Z 112.6(6) . . ?
N2 C00O C00W 129.0(7) . . ?
C00Z C00O C00W 118.2(5) . . ?
C00Y C00P C00E 121.0(5) . . ?
C00Y C00P H00P 119.5 . . ?
C00E C00P H00P 119.5 . . ?
O008 C00Q O005 122.6(5) . . ?
O008 C00Q C00K 123.4(5) . . ?
O005 C00Q C00K 114.0(5) . . ?
C00L C00R C00N 120.2(5) . . ?
C00L C00R H00R 119.9 . . ?
C00N C00R H00R 119.9 . . ?
C00G C00S C012 120.7(5) . . ?
C00G C00S C00H 118.4(5) . . ?
C012 C00S C00H 121.0(5) . . ?
N00C C00T N00B 110.5(5) . . ?
N00C C00T H00T 124.7 . . ?
N00B C00T H00T 124.7 . . ?
C00V C00U C00X 121.3(5) . . ?
C00V C00U N009 119.1(5) . . ?
C00X C00U N009 119.6(5) . . ?
N2 C00V C00U 131.0(8) . . ?
N2 C00V C00Z 112.0(7) . . ?
C00U C00V C00Z 116.4(5) . . ?
C00X C00W N00B 121.0(5) . . ?
C00X C00W C00O 118.9(5) . . ?
N00B C00W C00O 120.0(5) . . ?
C00W C00X C00U 121.3(5) . . ?
C00W C00X H00X 119.3 . . ?
C00U C00X H00X 119.3 . . ?
C00P C00Y C00K 119.7(5) . . ?
C00P C00Y H00Y 120.2 . . ?
C00K C00Y H00Y 120.2 . . ?
N3 C00Z C00O 106.4(8) . . ?
N3 C00Z C00O 128.0(9) . . ?
N3 C00Z C00V 129.5(8) . . ?
N3 C00Z C00V 107.5(9) . . ?
C00O C00Z C00V 123.8(5) . . ?
C012 C010 C00F 121.3(5) . . ?
C012 C010 H010 119.3 . . ?
C00F C010 H010 119.3 . . ?
N00A C011 N009 111.1(5) . . ?
N00A C011 H011 124.4 . . ?
N009 C011 H011 124.4 . . ?
C010 C012 C00S 119.6(5) . . ?
C010 C012 H012 120.2 . . ?
C00S C012 H012 120.2 . . ?
C015 C013 N009 106.7(5) . . ?
C015 C013 H013 126.6 . . ?
N009 C013 H013 126.6 . . ?
C016 C014 N00B 106.1(5) . . ?
C016 C014 H014 126.9 . . ?
N00B C014 H014 126.9 . . ?
C013 C015 N00A 109.1(5) . . ?
C013 C015 H015 125.5 . . ?
N00A C015 H015 125.5 . . ?
C014 C016 N00C 109.4(5) . . ?
C014 C016 H016 125.3 . . ?
N00C C016 H016 125.3 . . ?
C00Z N3 O1 102.2(12) . . ?
C00V N2 O1 104.6(10) . . ?
N2 O1 N3 113.6(11) . . ?
N3 O1 N2 112.1(8) . . ?
C00Z N3 O1 105.3(10) . . ?
C00O N2 O1 103.6(8) . . ?
 
_refine_diff_density_max    6.654
_refine_diff_density_min   -1.888
_refine_diff_density_rms    0.447

_shelx_res_file
;
TITL VV-36_a.res in P-1
    VV-36_a.res
    created by SHELXL-2019/3 at 15:34:59 on 23-Oct-2023
REM Old TITL VV-36 in P-1
REM SHELXT solution in P-1: R1 0.192, Rweak 0.016, Alpha 0.065
REM <I/s>   0.000 for    0 systematic absences,  Orientation as input
REM Formula found by SHELXT:  C41 N4 O7 Cd
CELL  0.71073  11.7094  11.7179  12.9744   65.520   81.976   86.266
ZERR   19.000   0.0006   0.0006   0.0006    0.002    0.002    0.002
LATT  1
SFAC C H N O CD
UNIT 19 19 19 19 19
ACTA
TEMP -123.150
L.S. 10
BOND $H
LIST 4
FMAP 2
PLAN 20
TWIN
WGHT    0.200000
BASF   0.50367
FVAR       0.19369
CD01  5    0.478840    1.204506    0.672443    11.00000    0.03374    0.02951 =
         0.04053   -0.02000    0.00118   -0.00002
O002  4    0.348167    1.250715    0.579115    11.00000    0.01111    0.01779 =
         0.01723   -0.01266    0.00180    0.00839
O003  4    0.250460    1.238515    0.741426    11.00000    0.01132    0.01707 =
         0.01164   -0.00623    0.00508    0.00309
O004  4    0.610272    1.249131    0.554080    11.00000    0.02248    0.01324 =
         0.02466   -0.01560    0.01233   -0.00585
O005  4    1.082615    1.175182   -0.089532    11.00000    0.02695    0.01608 =
         0.02329   -0.01254    0.01540   -0.00852
O006  4    0.580217    1.061656    0.560082    11.00000    0.02640    0.01293 =
         0.01909   -0.00895    0.01101   -0.00807
O007  4    0.612034    0.809744    0.619022    11.00000    0.03525    0.01323 =
         0.01681   -0.01009    0.00081    0.00323
O008  4    1.111825    1.361155   -0.088398    11.00000    0.04291    0.01878 =
         0.01943   -0.00863    0.01475   -0.01749
N009  3    0.463509    0.477227    0.804503    11.00000    0.01715    0.00574 =
         0.01380   -0.00808    0.00299   -0.00309
N00A  3    0.493578    0.343641    0.725081    11.00000    0.01806    0.00870 =
         0.02128   -0.01095    0.00324   -0.00334
N00B  3    0.403665    0.839910    0.900403    11.00000    0.01859    0.00930 =
         0.01110   -0.00914   -0.00232    0.00381
N00C  3    0.449498    1.038453    0.802525    11.00000    0.01740    0.00997 =
         0.01272   -0.00767   -0.00072    0.00341
C00D  1    0.871531    1.269294    0.208534    11.00000    0.01529    0.00537 =
         0.01187   -0.00287    0.00067   -0.00046
C00E  1    0.818969    1.149022    0.257572    11.00000    0.01286    0.00455 =
         0.01168   -0.00384   -0.00055   -0.00111
C00F  1   -0.005833    1.501984    0.445465    11.00000    0.01067    0.01794 =
         0.01778   -0.01624   -0.00056    0.00742
C00G  1    0.090693    1.416059    0.617834    11.00000    0.01262    0.01514 =
         0.01493   -0.01068   -0.00093    0.00492
AFIX  43
H00G  2    0.096921    1.408297    0.692688    11.00000   -1.20000
AFIX   0
C00H  1    0.257111    1.272921    0.636423    11.00000    0.00886    0.01120 =
         0.01385   -0.00858    0.00385    0.00071
C00I  1    0.952155    1.302477    0.109891    11.00000    0.01713    0.00777 =
         0.01405   -0.00537    0.00147   -0.00398
AFIX  43
H00I  2    0.988976    1.381645    0.078697    11.00000   -1.20000
AFIX   0
C00J  1    0.739752    1.116406    0.359065    11.00000    0.01197    0.00599 =
         0.01786   -0.00830    0.00062   -0.00179
AFIX  43
H00J  2    0.704789    1.036156    0.392733    11.00000   -1.20000
AFIX   0
C00K  1    0.977959    1.220270    0.058226    11.00000    0.01703    0.00597 =
         0.01259   -0.00358    0.00411   -0.00295
C00L  1    0.842608    1.351848    0.262203    11.00000    0.01913    0.01014 =
         0.01942   -0.01010    0.00649   -0.00489
AFIX  43
H00L  2    0.877907    1.431855    0.230607    11.00000   -1.20000
AFIX   0
C00M  1    0.629949    1.164542    0.514797    11.00000    0.00980    0.01317 =
         0.01572   -0.00900    0.00213    0.00106
C00N  1    0.713232    1.199331    0.408894    11.00000    0.00946    0.00805 =
         0.01381   -0.00586   -0.00068   -0.00012
C00O  1    0.301864    0.643677    1.022016    11.00000    0.01629    0.01435 =
         0.01681   -0.00916    0.00395   -0.00110
C00P  1    0.847288    1.066543    0.202790    11.00000    0.01864    0.00616 =
         0.01583   -0.00672    0.00708   -0.00254
AFIX  43
H00P  2    0.812224    0.986439    0.233910    11.00000   -1.20000
AFIX   0
C00Q  1    1.062821    1.260033   -0.046417    11.00000    0.01926    0.00894 =
         0.01506   -0.00516    0.00481   -0.00481
C00R  1    0.765194    1.319758    0.358387    11.00000    0.01845    0.00773 =
         0.01994   -0.00840    0.00367   -0.00189
AFIX  43
H00R  2    0.745890    1.378009    0.391788    11.00000   -1.20000
AFIX   0
C00S  1    0.163584    1.348174    0.571279    11.00000    0.01118    0.01263 =
         0.01787   -0.01202   -0.00013    0.00321
C00T  1    0.450067    0.928948    0.798035    11.00000    0.01459    0.01195 =
         0.01420   -0.01011    0.00121    0.00172
AFIX  43
H00T  2    0.478702    0.913407    0.732800    11.00000   -1.20000
AFIX   0
C00U  1    0.410390    0.531407    0.879106    11.00000    0.01840    0.00617 =
         0.01089   -0.00601    0.00230   -0.00136
C00V  1    0.336323    0.458066    0.975867    11.00000    0.03189    0.01136 =
         0.01164   -0.00610    0.00619   -0.00776
C00W  1    0.381553    0.713682    0.925789    11.00000    0.01624    0.01116 =
         0.01533   -0.00908   -0.00277    0.00293
C00X  1    0.433660    0.656369    0.855440    11.00000    0.01354    0.01140 =
         0.01304   -0.00744   -0.00063    0.00138
AFIX  43
H00X  2    0.485856    0.702974    0.790324    11.00000   -1.20000
AFIX   0
C00Y  1    0.925243    1.101039    0.104676    11.00000    0.01907    0.00792 =
         0.01541   -0.00782    0.01007   -0.00508
AFIX  43
H00Y  2    0.943327    1.045046    0.068636    11.00000   -1.20000
AFIX   0
C00Z  1    0.281599    0.519046    1.043494    11.00000    0.02579    0.01695 =
         0.01802   -0.01000    0.00963   -0.00663
C010  1    0.068162    1.427807    0.402144    11.00000    0.02176    0.02713 =
         0.02366   -0.02284   -0.00722    0.01495
AFIX  43
H010  2    0.059772    1.429862    0.329614    11.00000   -1.20000
AFIX   0
C011  1    0.424135    0.374448    0.795026    11.00000    0.01941    0.01100 =
         0.01806   -0.00901    0.00511   -0.00426
AFIX  43
H011  2    0.354575    0.331838    0.835069    11.00000   -1.20000
AFIX   0
C012  1    0.151649    1.353075    0.462457    11.00000    0.01547    0.02680 =
         0.02409   -0.02135   -0.00401    0.01277
AFIX  43
H012  2    0.201386    1.304692    0.431489    11.00000   -1.20000
AFIX   0
C013  1    0.566036    0.511449    0.730767    11.00000    0.02015    0.01381 =
         0.02582   -0.01240    0.00687   -0.00723
AFIX  43
H013  2    0.613848    0.580018    0.716975    11.00000   -1.20000
AFIX   0
C014  1    0.373665    0.899838    0.973338    11.00000    0.03624    0.01558 =
         0.01559   -0.01332   -0.00110    0.00032
AFIX  43
H014  2    0.340454    0.862586    1.050862    11.00000   -1.20000
AFIX   0
C015  1    0.584056    0.429326    0.683307    11.00000    0.02209    0.01441 =
         0.02732   -0.01472    0.00866   -0.00628
AFIX  43
H015  2    0.648143    0.429120    0.629688    11.00000   -1.20000
AFIX   0
C016  1    0.401353    1.021794    0.911532    11.00000    0.03651    0.01503 =
         0.01462   -0.01069   -0.00019    0.00020
AFIX  43
H016  2    0.389613    1.086066    0.938649    11.00000   -1.20000
AFIX   0
PART 2
N3    3    0.224102    0.432136    1.136226    10.40000    0.04097    0.01337 =
         0.01352   -0.01153    0.01326   -0.01677
N2    3    0.319214    0.337452    1.024315    10.50000    0.03612    0.01475 =
         0.02128   -0.00719    0.00013   -0.01095
O1    4    0.250843    0.319326    1.118512    10.50000    0.05511    0.02291 =
         0.02677   -0.00812    0.00755   -0.01653
PART 0
PART 1
O1    4    0.172016    0.578155    1.159495    10.60000    0.03336    0.02779 =
         0.02861   -0.01984    0.01045   -0.00636
N3    3    0.197657    0.478928    1.130015    10.60000    0.03487    0.01874 =
         0.02089   -0.01456    0.01245   -0.01386
N2    3    0.237402    0.680793    1.091009    10.60000    0.02898    0.01735 =
         0.01589   -0.00742    0.00467   -0.00350
PART 0
HKLF 4




REM  VV-36_a.res in P-1
REM wR2 = 0.4238, GooF = S = 1.809, Restrained GooF = 1.809 for all data
REM R1 = 0.1303 for 7715 Fo > 4sig(Fo) and 0.1497 for all 9821 data
REM 434 parameters refined using 0 restraints

END

WGHT      0.2000      0.0000

REM Highest difference peak  6.654,  deepest hole -1.888,  1-sigma level  0.447
Q1    1   0.3073  0.1604  1.0873  11.00000  0.05    6.65
Q2    1   0.1899  0.0433  1.2505  11.00000  0.05    6.22
Q3    1   0.1195  0.0446  1.3527  11.00000  0.05    5.12
Q4    1   0.2449  0.1451  1.1797  11.00000  0.05    4.73
Q5    1   0.8419  1.0773  0.6952  11.00000  0.05    4.52
Q6    1   0.1933  0.9367  1.2221  11.00000  0.05    3.88
Q7    1   0.2228  0.7833  1.2199  11.00000  0.05    2.60
Q8    1   0.8347  0.1917  0.7026  11.00000  0.05    2.39
Q9    1   0.9191  1.0518  0.6113  11.00000  0.05    2.17
Q10   1   0.3151  0.8819  1.2190  11.00000  0.05    1.95
Q11   1   1.0867  1.3596 -0.0996  11.00000  0.05    1.73
Q12   1   0.2525  1.2444  0.7134  11.00000  0.05    1.66
Q13   1  -0.1118  1.1713  0.6710  11.00000  0.05    1.31
Q14   1   0.3245  0.4082  1.0018  11.00000  0.05    1.24
Q15   1   0.2231  0.4107  1.1624  11.00000  0.05    1.22
Q16   1   0.4553  1.0548  0.7752  11.00000  0.05    1.21
Q17   1   0.3876  0.9898  0.9345  11.00000  0.05    1.14
Q18   1   0.1878  0.4624  1.1139  11.00000  0.05    0.74
Q19   1   0.4658  0.3557  0.7581  11.00000  0.05    0.71
Q20   1   0.9724  1.0564  0.5080  11.00000  0.05    0.70
;
_shelx_res_checksum   74997

_shelx_hkl_file
;
  -1   0   0    0.00    0.10
  -2   0   0  118.89    4.80
  -2   0   0  119.09    4.80
  -2   0   0  122.89    4.70
   2   0   0  115.69    4.80
   2   0   0  121.89    4.80
   2   0   0  120.49    4.70
  -3   0   0  287.57   11.60
  -3   0   0  302.67   11.50
  -3   0   0  290.27   11.60
   3   0   0  297.37   11.60
   3   0   0  294.87   11.40
   3   0   0  275.97   11.60
  -4   0   0    9.80    0.70
  -4   0   0    9.60    0.70
   4   0   0   12.10    0.70
   4   0   0   12.30    0.50
   4   0   0   11.30    0.70
  -5   0   0    1.70    0.40
  -5   0   0    1.50    0.40
   5   0   0    0.30    0.30
   5   0   0    1.00    0.20
  -6   0   0   28.00    1.60
  -6   0   0   31.70    1.60
   6   0   0   31.50    1.60
   6   0   0   27.40    1.60
   6   0   0   28.30    1.30
   6   0   0   30.70    1.30
  -7   0   0    1.00    0.40
  -7   0   0    0.60    0.40
   7   0   0    1.00    0.20
   7   0   0    1.20    0.20
   7   0   0    1.20    0.50
   7   0   0    0.60    0.40
  -8   0   0   21.50    1.40
  -8   0   0   19.40    1.40
   8   0   0   20.50    1.00
   8   0   0   22.00    1.50
   8   0   0   21.70    1.00
  -9   0   0   55.69    2.70
   9   0   0   53.09    2.20
   9   0   0   50.79    2.20
   9   0   0   54.89    2.80
 -10   0   0    0.60    0.60
  10   0   0    1.10    0.70
 -11   0   0    0.10    0.60
  11   0   0    0.60    0.80
 -12   0   0   18.10    1.60
  12   0   0   13.30    1.60
 -13   0   0    5.00    1.20
  13   0   0    5.50    1.30
 -14   0   0    0.10    1.00
  14   0   0   -0.10    1.10
 -15   0   0   -0.80    1.00
  15   0   0    2.60    1.50
 -16   0   0    1.40    1.30
  16   0   0    0.30    1.60
  16  -1   0    1.90    1.50
 -16   1   0    3.60    1.50
  15  -1   0   14.40    2.10
 -15   1   0   11.90    1.60
  14  -1   0   31.20    2.90
 -14   1   0   34.60    2.50
  13  -1   0   33.60    2.60
 -13   1   0   38.20    2.70
  12  -1   0   37.30    2.50
 -12   1   0   34.30    2.30
  11  -1   0    5.50    1.10
 -11   1   0    5.80    1.00
  10  -1   0   40.40    2.50
 -10   1   0   45.60    2.50
  -9   1   0   12.60    1.20
   8  -1   0  172.18    7.40
  -8   1   0  172.08    7.30
  -8   1   0  172.88    7.40
   7  -1   0   12.70    1.00
   7  -1   0   12.80    1.10
  -7   1   0   12.60    1.00
  -7   1   0   11.60    1.00
   6  -1   0  129.89    5.40
   6  -1   0  121.59    5.30
  -6   1   0  125.79    5.30
  -6   1   0  127.99    5.30
   5  -1   0   78.99    3.50
   5  -1   0   82.89    3.30
   5  -1   0   81.89    3.60
  -5   1   0   83.59    3.30
  -5   1   0   77.69    3.50
  -5   1   0   84.49    3.50
   4  -1   0    2.60    0.20
   4  -1   0    3.80    0.50
   4  -1   0    3.90    0.50
  -4   1   0    2.10    0.40
  -4   1   0    1.80    0.40
  -4   1   0    1.70    0.20
   3  -1   0    6.40    0.30
   3  -1   0    6.50    0.50
   3  -1   0    5.40    0.50
  -3   1   0    4.80    0.50
  -3   1   0    7.20    0.50
  -3   1   0    6.50    0.30
   2  -1   0   17.90    0.90
   2  -1   0   17.10    0.70
   2  -1   0   18.50    0.90
  -2   1   0   16.70    0.70
  -2   1   0   17.20    0.80
  -2   1   0   17.00    0.80
   1  -1   0   89.69    3.60
   1  -1   0   89.29    3.60
  -1   1   0   92.09    3.60
  -1   1   0   87.29    3.60
  -1   1   0   88.29    3.60
  -1   1   0   89.49    3.60
   0  -1   0    4.20    0.20
   0  -1   0    4.50    0.20
   0   1   0    3.00    0.30
  -1  -1   0   22.50    1.00
  -1  -1   0   21.40    0.90
   1   1   0   20.70    0.90
   1   1   0   22.60    1.00
  -2  -1   0   17.10    0.80
  -2  -1   0   15.90    0.80
   2   1   0   16.60    0.80
   2   1   0   17.00    0.80
   2   1   0   16.70    0.80
   2   1   0   16.50    0.80
  -3  -1   0   23.80    1.10
  -3  -1   0   24.70    1.10
   3   1   0   23.60    1.10
   3   1   0   22.60    1.10
   3   1   0   24.40    1.10
   3   1   0   24.20    1.10
  -4  -1   0   47.20    2.10
  -4  -1   0   49.40    2.10
   4   1   0   47.00    2.00
   4   1   0   47.90    2.10
   4   1   0   47.70    2.00
   4   1   0   48.10    2.10
  -5  -1   0   41.70    1.90
  -5  -1   0   39.00    1.90
   5   1   0   39.10    1.90
   5   1   0   42.90    1.80
   5   1   0   42.50    1.90
  -6  -1   0   95.79    4.10
  -6  -1   0   98.89    4.20
   6   1   0   97.79    4.20
   6   1   0   98.39    4.00
   6   1   0   95.09    4.20
   6   1   0   95.79    4.00
  -7  -1   0   74.99    3.40
  -7  -1   0   77.19    3.40
   7   1   0   77.79    3.20
   7   1   0   75.89    3.40
   7   1   0   74.19    3.40
   7   1   0   73.69    3.40
  -8  -1   0  293.67   11.70
  -8  -1   0  279.47   11.60
   8   1   0  282.37   11.30
   8   1   0  277.37   11.30
   8   1   0  288.57   11.70
  -9  -1   0   93.49    4.50
  -9  -1   0  103.49    4.60
   9   1   0  102.69    4.20
   9   1   0  105.89    4.60
   9   1   0  102.79    4.20
 -10  -1   0   37.50    2.20
  10   1   0   34.60    1.60
  10   1   0   35.10    2.40
  10   1   0   36.30    1.80
 -11  -1   0    0.20    0.60
  11   1   0    0.90    0.40
  11   1   0    0.80    0.80
 -12  -1   0    4.40    1.10
  12   1   0    4.00    1.10
 -13  -1   0   21.10    1.90
  13   1   0   19.40    2.00
 -14  -1   0    7.60    1.40
  14   1   0    6.90    1.50
 -15  -1   0    3.30    1.20
 -16  -1   0    2.30    1.30
  16   1   0    5.50    1.70
  16  -2   0    3.90    1.50
 -16   2   0    1.40    1.50
  15  -2   0    0.30    1.40
 -15   2   0   -0.80    1.10
  14  -2   0   -0.30    1.20
 -14   2   0    0.90    1.10
  13  -2   0    1.40    0.90
  12  -2   0    7.00    1.30
 -12   2   0    8.50    1.30
  11  -2   0   49.30    2.90
 -11   2   0   48.10    2.80
  10  -2   0    0.00    0.70
 -10   2   0    0.70    0.70
   9  -2   0   95.49    4.60
  -9   2   0  101.19    4.50
   8  -2   0  252.87   10.30
  -8   2   0  238.48   10.50
   7  -2   0  205.18    8.50
   7  -2   0  193.88    8.30
  -7   2   0  203.58    8.40
  -7   2   0  204.18    8.40
   6  -2   0   56.89    2.20
   6  -2   0   54.49    2.70
   6  -2   0   52.99    2.60
  -6   2   0   54.39    2.60
  -6   2   0   53.59    2.20
   5  -2   0  245.98   10.20
   5  -2   0  259.27   10.30
   5  -2   0  258.47    9.90
  -5   2   0  250.77   10.20
  -5   2   0  248.48    9.90
  -5   2   0  245.28   10.20
   4  -2   0  117.29    5.00
   4  -2   0  117.39    4.70
   4  -2   0  113.69    4.90
  -4   2   0  121.09    4.70
  -4   2   0  118.79    4.90
  -4   2   0  119.19    4.90
   3  -2   0   81.29    3.40
   3  -2   0   74.39    3.30
   3  -2   0   80.39    3.20
  -3   2   0   79.69    3.20
  -3   2   0   79.29    3.30
  -3   2   0   76.49    3.30
   2  -2   0   64.99    2.50
   2  -2   0   68.39    2.60
  -2   2   0   58.39    2.50
  -2   2   0   59.19    2.60
  -2   2   0   59.09    2.60
  -2   2   0   57.59    2.60
   1  -2   0   48.00    2.00
   1  -2   0   49.00    2.00
   1  -2   0   45.00    2.00
  -1   2   0   46.30    2.00
  -1   2   0   48.40    2.00
   0  -2   0  309.97   12.70
   0  -2   0  318.07   12.70
   0  -2   0  324.57   12.70
   0   2   0  322.57   12.70
   0   2   0  328.47   12.70
   0   2   0  330.97   12.70
  -1  -2   0  367.66   13.70
  -1  -2   0  335.37   13.90
  -1  -2   0  342.37   13.80
   1   2   0  357.96   13.70
   1   2   0  340.47   13.80
  -2  -2   0  118.49    4.90
  -2  -2   0  129.49    4.90
  -2  -2   0  129.39    5.00
  -2  -2   0  123.09    5.00
   2   2   0  120.39    5.00
   2   2   0  124.09    5.10
  -3  -2   0   17.70    0.90
  -3  -2   0   18.00    0.90
   3   2   0   18.60    1.00
   3   2   0   18.70    0.90
   3   2   0   19.20    1.00
   3   2   0   20.90    1.00
  -4  -2   0   36.50    1.70
   4   2   0   35.40    1.60
   4   2   0   35.40    1.60
   4   2   0   33.20    1.60
   4   2   0   35.40    1.60
  -5  -2   0   22.80    1.20
  -5  -2   0   21.70    1.10
   5   2   0   21.50    1.20
   5   2   0   22.20    1.10
   5   2   0   20.90    1.10
   5   2   0   22.70    1.10
  -6  -2   0    2.10    0.40
  -6  -2   0    3.00    0.50
   6   2   0    3.10    0.50
   6   2   0    3.20    0.40
   6   2   0    3.50    0.50
   6   2   0    3.60    0.60
  -7  -2   0   57.89    2.70
  -7  -2   0   60.49    2.80
   7   2   0   61.79    2.70
   7   2   0   60.19    2.70
   7   2   0   58.29    2.80
   7   2   0   61.09    2.80
  -8  -2   0   81.09    3.60
  -8  -2   0   87.29    4.00
   8   2   0   81.29    3.70
   8   2   0   81.39    3.50
   8   2   0   83.79    3.60
  -9  -2   0   17.40    1.40
  -9  -2   0   16.50    1.30
   9   2   0   18.70    1.30
   9   2   0   18.60    1.10
   9   2   0   17.30    1.10
 -10  -2   0    2.00    0.80
  10   2   0    2.90    0.50
  10   2   0    2.90    0.80
  10   2   0    2.60    0.60
 -11  -2   0    1.70    0.70
  11   2   0    3.20    0.80
  11   2   0    2.90    0.50
  11   2   0    3.10    0.60
 -12  -2   0   19.20    1.70
  12   2   0   17.20    1.10
  12   2   0   18.90    1.70
  12   2   0   16.40    1.20
  13   2   0    2.50    0.60
  13   2   0    2.80    0.60
  13   2   0    3.90    1.10
 -14  -2   0   13.00    1.70
  14   2   0   13.70    1.70
 -15  -2   0    0.70    1.10
  15   2   0    1.60    1.40
 -16  -2   0   -0.40    1.30
  16   2   0    1.30    1.70
  16  -3   0    6.70    1.90
 -16   3   0    4.80    1.60
  15  -3   0   21.10    2.50
 -15   3   0   17.30    2.10
  14  -3   0   12.80    1.90
 -14   3   0   13.80    1.80
  13  -3   0   12.30    1.90
 -13   3   0    9.70    1.40
  12  -3   0    7.00    1.30
 -12   3   0    5.50    1.20
  11  -3   0    4.20    1.10
 -11   3   0    5.30    1.00
  10  -3   0    0.60    0.80
 -10   3   0    0.60    0.70
   9  -3   0    2.70    0.80
  -9   3   0    3.90    0.80
   8  -3   0    1.80    0.70
  -8   3   0    1.50    0.60
   7  -3   0    3.80    0.40
   7  -3   0    4.10    0.80
  -7   3   0    4.00    0.70
  -7   3   0    4.30    0.30
   6  -3   0    4.40    0.70
   6  -3   0    2.90    0.30
   6  -3   0    3.70    0.50
  -6   3   0    4.30    0.70
  -6   3   0    3.40    0.60
  -6   3   0    3.20    0.30
   5  -3   0    4.70    0.40
   5  -3   0    4.90    0.60
   5  -3   0    6.10    0.80
  -5   3   0    4.90    0.40
  -5   3   0    5.60    0.70
  -5   3   0    6.10    0.70
   4  -3   0    4.40    0.40
   4  -3   0    5.00    0.70
  -4   3   0    5.90    0.60
  -4   3   0    5.70    0.60
  -4   3   0    5.50    0.60
  -4   3   0    4.80    0.40
   3  -3   0   24.50    1.10
   3  -3   0   23.00    1.30
  -3   3   0   23.50    1.20
  -3   3   0   24.30    1.20
  -3   3   0   23.90    1.20
  -3   3   0   25.50    1.20
   2  -3   0    8.80    0.60
   2  -3   0    9.20    0.60
   2  -3   0   10.00    0.60
  -2   3   0    9.20    0.60
  -2   3   0    9.40    0.60
  -2   3   0    9.00    0.60
   1  -3   0   25.80    1.20
   1  -3   0   24.80    1.20
   1  -3   0   25.90    1.20
  -1   3   0   21.80    1.10
  -1   3   0   21.90    1.10
  -1   3   0   22.50    1.10
   0  -3   0   79.09    3.40
   0  -3   0   83.79    3.30
   0  -3   0   82.69    3.40
   0   3   0   81.99    3.40
   0   3   0   82.19    3.40
   0   3   0   82.79    3.30
  -1  -3   0  558.24   21.20
  -1  -3   0  535.25   21.30
  -1  -3   0  524.65   21.30
   1   3   0  534.35   21.30
   1   3   0  568.34   21.10
   1   3   0  519.45   21.30
  -2  -3   0  439.96   17.80
  -2  -3   0  484.85   17.60
  -2  -3   0  438.26   17.70
   2   3   0  428.06   17.70
   2   3   0  451.85   17.80
  -3  -3   0  103.89    4.10
  -3  -3   0   99.79    4.20
  -3  -3   0  100.29    3.90
  -3  -3   0  103.19    3.90
   3   3   0   94.59    4.10
   3   3   0   88.99    4.10
  -4  -3   0  178.68    7.10
  -4  -3   0  175.48    7.00
   4   3   0  174.98    7.10
   4   3   0  177.68    7.10
   4   3   0  177.18    7.00
   4   3   0  163.18    7.10
  -5  -3   0   75.99    3.30
  -5  -3   0   75.19    3.10
   5   3   0   74.39    3.30
   5   3   0   79.29    3.30
   5   3   0   72.89    3.30
   5   3   0   71.49    3.30
  -6  -3   0   55.09    2.60
  -6  -3   0   54.89    2.40
   6   3   0   53.49    2.40
   6   3   0   54.79    2.50
   6   3   0   51.99    2.50
   6   3   0   55.09    2.50
  -7  -3   0  100.39    4.30
  -7  -3   0   99.09    4.10
   7   3   0   95.29    4.20
   7   3   0   97.69    4.20
   7   3   0   93.69    4.20
  -8  -3   0   18.00    1.30
  -8  -3   0   15.80    1.10
   8   3   0   18.50    1.20
   8   3   0   17.70    1.10
   8   3   0   18.20    1.20
  -9  -3   0   45.60    2.60
  -9  -3   0   48.10    2.50
   9   3   0   45.80    2.20
   9   3   0   46.20    2.30
   9   3   0   43.50    2.20
 -10  -3   0  107.09    5.00
 -10  -3   0  102.79    4.70
  10   3   0  108.39    4.70
  10   3   0  116.29    4.90
  10   3   0  110.59    4.70
 -11  -3   0   38.60    2.40
  11   3   0   38.60    2.00
  11   3   0   40.20    2.00
  11   3   0   41.30    2.30
 -12  -3   0    4.30    1.10
  12   3   0    3.40    1.00
  12   3   0    3.80    0.80
 -13  -3   0    7.60    1.30
  13   3   0    7.40    0.90
  13   3   0    7.00    1.30
  13   3   0    7.40    1.00
 -14  -3   0    7.20    1.30
  14   3   0    2.70    0.70
  14   3   0    3.80    1.40
 -15  -3   0    1.80    1.20
  15   3   0    2.60    1.30
 -16  -3   0    1.00    1.30
  15  -4   0    3.20    1.50
 -15   4   0    1.30    1.30
  14  -4   0    0.00    1.20
 -14   4   0   -0.50    1.10
  13  -4   0    8.00    1.60
 -13   4   0   10.30    1.50
  12  -4   0   15.10    1.90
 -12   4   0   13.30    1.70
  11  -4   0    1.90    1.00
 -11   4   0    2.40    0.90
  10  -4   0   21.60    2.00
 -10   4   0   25.40    1.80
   9  -4   0   18.10    1.70
  -9   4   0   18.90    1.50
   8  -4   0  220.68    9.30
  -8   4   0  221.68    9.10
  -8   4   0  207.78    8.60
   7  -4   0   41.80    1.90
   7  -4   0   42.20    2.60
  -7   4   0   45.60    2.40
   6  -4   0   27.80    1.30
   6  -4   0   28.90    1.70
  -6   4   0   27.70    1.60
  -6   4   0   24.30    1.60
  -6   4   0   28.40    1.60
  -6   4   0   27.70    1.30
   5  -4   0   64.19    2.80
   5  -4   0   66.29    3.10
  -5   4   0   64.69    3.00
  -5   4   0   66.19    2.80
  -5   4   0   66.89    3.00
  -5   4   0   65.39    3.00
   4  -4   0   94.19    4.00
   4  -4   0   94.19    4.20
  -4   4   0   97.39    4.20
  -4   4   0   93.79    4.10
  -4   4   0   96.79    4.10
  -4   4   0  100.29    4.00
   3  -4   0   55.59    2.40
   3  -4   0   57.39    2.60
  -3   4   0   52.89    2.50
  -3   4   0   55.49    2.50
  -3   4   0   53.89    2.50
  -3   4   0   56.49    2.40
   2  -4   0   62.69    2.90
   2  -4   0   68.49    2.90
   2  -4   0   66.99    2.90
  -2   4   0   66.09    2.90
  -2   4   0   64.99    2.90
  -2   4   0   68.39    2.90
   1  -4   0  342.77   13.90
   1  -4   0  346.37   13.90
   1  -4   0  356.46   13.90
  -1   4   0  349.67   13.80
  -1   4   0  347.57   13.90
  -1   4   0  348.17   13.90
   0  -4   0   47.30    2.00
   0  -4   0   44.00    2.10
   0  -4   0   47.00    2.10
   0   4   0   48.60    2.10
   0   4   0   48.20    2.20
  -1  -4   0    3.80    0.50
  -1  -4   0    3.50    0.40
  -1  -4   0    3.20    0.30
   1   4   0    3.90    0.50
   1   4   0    3.10    0.30
   1   4   0    4.40    0.50
  -2  -4   0   52.99    2.50
  -2  -4   0   55.79    2.20
  -2  -4   0   54.29    2.40
   2   4   0   54.99    2.50
   2   4   0   51.09    2.40
   2   4   0   53.29    2.20
  -3  -4   0  279.87   11.70
  -3  -4   0  299.37   11.70
   3   4   0  298.57   11.70
   3   4   0  285.07   11.70
  -4  -4   0   84.49    3.30
  -4  -4   0   85.99    3.60
  -4  -4   0   83.79    3.40
   4   4   0   82.69    3.70
   4   4   0   79.69    3.60
  -5  -4   0  185.68    7.50
  -5  -4   0  183.68    7.20
  -5  -4   0  173.98    7.20
   5   4   0  173.28    7.40
   5   4   0  184.58    7.50
   5   4   0  182.08    7.50
  -6  -4   0   12.50    1.00
  -6  -4   0   11.60    0.80
   6   4   0   11.50    0.90
   6   4   0   13.70    1.00
   6   4   0   13.50    1.00
  -7  -4   0    8.20    1.00
  -7  -4   0    6.60    0.70
   7   4   0    7.40    0.80
   7   4   0    7.60    0.90
   7   4   0    5.80    0.60
  -8  -4   0   36.00    2.00
  -8  -4   0   34.10    1.70
   8   4   0   34.20    2.00
   8   4   0   34.80    1.80
   8   4   0   33.50    1.90
  -9  -4   0   38.20    2.20
  -9  -4   0   36.00    1.90
   9   4   0   38.10    2.00
   9   4   0   41.60    2.00
   9   4   0   38.40    2.00
 -10  -4   0   22.40    1.60
 -10  -4   0   24.90    1.80
  10   4   0   26.50    1.60
  10   4   0   23.30    1.50
  10   4   0   27.40    1.70
 -11  -4   0    3.20    0.80
 -11  -4   0    2.30    0.80
  11   4   0    3.80    0.90
  11   4   0    5.40    0.90
  11   4   0    3.90    0.80
 -12  -4   0   62.59    3.40
  12   4   0   61.29    3.00
  12   4   0   60.39    3.10
 -13  -4   0    3.00    1.10
  13   4   0    2.20    0.80
  13   4   0    2.30    1.10
  13   4   0    1.10    1.00
 -14  -4   0    2.70    1.20
  14   4   0    2.10    0.90
  14   4   0    3.30    1.20
 -15  -4   0   22.20    2.30
  15   4   0   14.60    1.80
  15   4   0   22.00    2.30
  15  -5   0    2.60    1.50
 -15   5   0    2.50    1.40
  14  -5   0    1.00    1.20
 -14   5   0    2.00    1.10
  13  -5   0   -0.80    1.10
 -13   5   0    1.20    1.10
  11  -5   0    5.80    1.20
 -11   5   0    4.60    1.00
  10  -5   0    6.20    1.20
 -10   5   0    7.40    1.20
   9  -5   0    1.50    0.90
  -9   5   0    0.60    0.70
   8  -5   0   20.10    1.70
  -8   5   0   21.40    1.50
  -8   5   0   19.30    1.00
   7  -5   0    3.30    0.80
   7  -5   0    3.80    0.50
  -7   5   0    3.90    0.80
  -7   5   0    4.10    0.50
   6  -5   0   52.99    2.40
   6  -5   0   55.19    2.80
  -6   5   0   53.59    2.40
  -6   5   0   53.09    2.70
   5  -5   0    3.80    0.50
   5  -5   0    3.50    0.70
  -5   5   0    3.80    0.50
  -5   5   0    2.60    0.60
  -5   5   0    3.50    0.60
  -5   5   0    3.50    0.60
   4  -5   0   21.40    1.40
   4  -5   0   22.20    1.20
  -4   5   0   21.90    1.20
  -4   5   0   24.60    1.40
  -4   5   0   23.40    1.40
  -4   5   0   19.90    1.50
   3  -5   0  208.98    8.70
   3  -5   0  213.48    8.80
   3  -5   0  220.38    8.80
  -3   5   0  211.48    8.70
  -3   5   0  217.18    8.70
   2  -5   0   44.90    2.10
   2  -5   0   43.90    2.10
   2  -5   0   47.50    2.10
  -2   5   0   41.20    2.00
  -2   5   0   41.30    2.00
  -2   5   0   43.30    2.10
   1  -5   0   22.80    1.20
   1  -5   0   24.20    1.30
   1  -5   0   24.10    1.30
  -1   5   0   24.50    1.20
  -1   5   0   25.20    1.30
  -1   5   0   25.40    1.30
   0  -5   0   34.60    1.70
   0  -5   0   34.60    1.60
   0  -5   0   34.20    1.70
   0   5   0   33.20    1.70
   0   5   0   36.60    1.80
   0   5   0   33.20    1.50
  -1  -5   0  131.49    5.40
  -1  -5   0  134.69    5.50
  -1  -5   0  132.49    5.60
   1   5   0  139.89    5.30
   1   5   0  132.49    5.60
   1   5   0  126.89    5.50
  -2  -5   0  253.07   10.50
  -2  -5   0  257.67   10.40
  -2  -5   0  256.07   10.20
   2   5   0  263.07   10.50
   2   5   0  267.37   10.20
   2   5   0  252.07   10.40
  -3  -5   0    1.30    0.40
  -3  -5   0    0.90    0.40
   3   5   0    1.20    0.40
   3   5   0    1.90    0.50
   4   5   0    1.90    0.50
   4   5   0    2.20    0.50
  -5  -5   0  175.98    7.10
   5   5   0  169.28    7.20
   5   5   0  172.18    7.20
   5   5   0  164.68    7.10
  -6  -5   0    6.00    0.50
  -6  -5   0    5.20    0.50
  -6  -5   0    6.20    0.80
   6   5   0    6.50    0.80
   6   5   0    7.50    0.90
  -7  -5   0   58.29    2.60
  -7  -5   0   61.89    3.00
   7   5   0   58.39    2.90
   7   5   0   60.69    2.90
  -8  -5   0   65.89    2.90
  -8  -5   0   66.99    3.00
  -8  -5   0   71.09    3.30
   8   5   0   69.19    3.20
   8   5   0   63.39    3.20
  -9  -5   0   26.00    1.80
  -9  -5   0   25.70    1.50
  -9  -5   0   23.00    1.40
   9   5   0   26.50    1.70
 -10  -5   0   44.90    2.40
 -10  -5   0   55.89    2.80
  10   5   0   52.39    2.70
 -11  -5   0    2.40    0.90
 -11  -5   0    2.30    0.70
  11   5   0    2.20    0.90
 -12  -5   0    0.60    1.00
  12   5   0   -0.20    1.40
 -13  -5   0    0.80    0.90
  13   5   0    0.10    0.90
 -14  -5   0    1.30    1.20
 -14  -5   0    0.20    1.10
  14   5   0   -0.10    1.10
 -15  -5   0   -0.20    1.40
 -15  -5   0    1.20    1.30
  15  -6   0    3.10    1.60
 -15   6   0    2.70    1.60
  14  -6   0    7.60    1.70
 -14   6   0    7.50    1.60
  13  -6   0   19.50    2.30
 -13   6   0   20.40    2.20
  12  -6   0   19.60    2.20
 -12   6   0   20.40    1.90
  11  -6   0   11.50    1.70
 -11   6   0   11.40    1.60
  10  -6   0    4.30    1.20
 -10   6   0    3.10    1.00
 -10   6   0    4.70    1.10
   9  -6   0   21.20    1.90
  -9   6   0   21.10    1.70
  -9   6   0   20.20    1.10
   8  -6   0   14.30    1.60
  -8   6   0   16.10    1.00
  -8   6   0   16.90    1.50
   7  -6   0    7.00    0.80
   7  -6   0    8.90    1.20
  -7   6   0    7.50    1.10
  -7   6   0    6.60    0.70
   6  -6   0    1.70    0.50
   6  -6   0    1.40    0.70
  -6   6   0    1.20    0.60
  -6   6   0    2.00    0.50
   5  -6   0   13.50    1.20
   5  -6   0   13.20    1.00
  -5   6   0   14.10    1.30
  -5   6   0   13.90    1.00
   4  -6   0    8.60    0.80
   4  -6   0   10.10    1.00
  -4   6   0   10.30    0.80
  -4   6   0   10.40    0.90
  -4   6   0    9.50    1.00
   3  -6   0   51.09    2.50
   3  -6   0   52.29    2.50
   3  -6   0   47.60    2.40
  -3   6   0   51.59    2.40
  -3   6   0   52.49    2.40
  -3   6   0   50.19    2.40
   2  -6   0    5.70    0.70
   2  -6   0    6.30    0.80
   2  -6   0    6.60    0.70
  -2   6   0    4.80    0.70
  -2   6   0    5.40    0.70
  -2   6   0    5.80    0.60
   1  -6   0    1.60    0.50
   1  -6   0    1.50    0.50
   1  -6   0    2.50    0.50
  -1   6   0    2.40    0.50
  -1   6   0    1.60    0.40
  -1   6   0    2.10    0.40
   0  -6   0   45.30    2.30
   0  -6   0   42.40    2.00
   0  -6   0   40.30    1.90
   0   6   0   39.10    1.80
   0   6   0   41.50    2.10
   0   6   0   38.70    2.00
  -1  -6   0  125.79    5.60
  -1  -6   0  135.19    5.60
   1   6   0  134.49    5.70
   1   6   0  127.29    5.50
   1   6   0  136.79    5.30
  -2  -6   0    6.80    0.80
  -2  -6   0    5.30    0.40
  -2  -6   0    6.70    0.80
   2   6   0    6.90    0.80
   2   6   0    5.80    0.40
   2   6   0    6.50    0.70
  -3  -6   0  191.98    8.30
  -3  -6   0  203.08    8.20
   3   6   0  207.98    8.30
   3   6   0  189.08    8.20
  -4  -6   0  131.79    6.00
  -4  -6   0  141.79    5.90
   4   6   0  141.89    6.00
  -5  -6   0   34.80    1.90
   5   6   0   33.20    1.90
  -6  -6   0   52.49    2.70
   6   6   0   52.09    2.70
  -7  -6   0    7.00    1.00
   7   6   0    5.10    0.90
  -8  -6   0   19.40    1.00
  -8  -6   0   20.40    1.50
   8   6   0   18.80    1.70
  -9  -6   0   20.60    1.10
  -9  -6   0   24.50    1.70
  -9  -6   0   18.50    1.20
   9   6   0   23.10    1.70
 -10  -6   0   52.59    2.70
 -10  -6   0   62.59    2.80
 -10  -6   0   69.79    3.40
  10   6   0   67.29    3.20
 -11  -6   0   22.50    1.90
 -11  -6   0   17.20    1.30
 -11  -6   0   20.50    1.40
  11   6   0   22.10    1.70
 -12  -6   0   14.20    1.30
 -12  -6   0   11.70    1.60
  12   6   0   14.00    1.50
 -13  -6   0    7.50    1.40
 -13  -6   0    8.60    1.20
  13   6   0    6.30    1.30
 -14  -6   0   10.90    1.70
 -14  -6   0   10.70    1.40
  14   6   0    8.80    1.40
 -15  -6   0    5.50    1.50
  15   6   0    2.90    1.40
  14  -7   0    1.70    1.50
 -14   7   0    2.90    1.40
  13  -7   0    1.50    1.20
 -13   7   0    1.30    1.00
  12  -7   0    4.80    1.50
 -12   7   0    6.80    1.40
  11  -7   0   12.10    1.80
 -11   7   0   11.00    1.50
  10  -7   0   12.80    1.80
 -10   7   0   11.20    1.10
 -10   7   0   10.30    0.90
 -10   7   0   12.60    1.60
   9  -7   0    5.90    1.30
  -9   7   0    5.50    1.00
  -9   7   0    6.10    0.70
   8  -7   0   28.80    2.20
  -8   7   0   26.30    1.50
  -8   7   0   26.90    1.90
   7  -7   0    0.30    0.70
   7  -7   0   -0.30    0.60
  -7   7   0    1.10    0.70
  -7   7   0   -0.40    0.50
   6  -7   0  141.99    6.20
   6  -7   0  121.19    5.90
  -6   7   0  145.09    5.80
  -6   7   0  141.69    6.10
   5  -7   0   25.10    1.50
  -5   7   0   25.60    1.50
  -5   7   0   23.90    1.70
   4  -7   0  128.69    5.50
   4  -7   0  116.69    5.30
  -4   7   0  127.09    5.50
  -4   7   0  122.39    5.30
   3  -7   0  281.27   11.30
   3  -7   0  288.57   11.30
   3  -7   0  261.27   11.20
  -3   7   0  262.17   11.10
  -3   7   0  277.47   11.20
   2  -7   0  106.39    4.80
   2  -7   0  112.49    4.80
   2  -7   0  109.29    4.90
  -2   7   0  109.29    4.70
  -2   7   0  113.59    4.90
   1  -7   0  113.59    5.30
   1  -7   0  125.99    5.30
   1  -7   0  125.59    5.20
  -1   7   0  125.09    5.30
  -1   7   0  120.49    5.10
   0  -7   0  254.67   10.40
   0  -7   0  257.57   10.20
   0   7   0  251.87   10.10
   0   7   0  250.17   10.50
  -1  -7   0   98.09    4.40
  -1  -7   0  103.39    4.20
   1   7   0   99.59    4.50
   1   7   0  102.09    4.10
  -2  -7   0  111.79    4.70
  -2  -7   0  111.29    5.00
   2   7   0  122.29    4.70
   2   7   0  113.59    5.10
  -3  -7   0   33.50    1.90
   3   7   0   34.70    2.00
  -4  -7   0   20.60    1.40
  -5  -7   0   43.70    2.30
   5   7   0   39.80    2.30
  -6  -7   0   30.90    1.90
   6   7   0   31.30    2.00
  -7  -7   0   61.99    3.20
   7   7   0   62.59    3.20
  -8  -7   0    9.90    1.30
   8   7   0   10.40    1.30
  -9  -7   0    4.30    1.00
   9   7   0    4.10    1.00
 -10  -7   0    4.30    1.20
  10   7   0    4.80    1.00
 -11  -7   0    9.30    1.60
  11   7   0   11.90    1.50
 -12  -7   0    1.70    0.60
 -12  -7   0    1.90    1.10
  12   7   0    2.00    1.10
 -13  -7   0    6.40    1.50
 -13  -7   0    6.90    0.90
  13   7   0    7.00    1.30
 -14  -7   0    0.30    1.30
  14   7   0    0.40    1.30
  13  -8   0   12.00    2.00
 -13   8   0   15.20    2.00
  12  -8   0   23.40    2.50
 -12   8   0   17.10    2.00
  11  -8   0    4.80    1.40
 -11   8   0    6.70    1.40
 -11   8   0    6.00    0.70
 -10   8   0    4.50    0.70
 -10   8   0    5.50    1.60
 -10   8   0    4.20    0.90
   9  -8   0   15.70    1.90
  -9   8   0   12.20    1.10
  -9   8   0   12.30    1.40
  -9   8   0   16.40    1.70
   8  -8   0   17.50    1.90
  -8   8   0   17.30    1.70
  -8   8   0   17.60    1.30
   7  -8   0    0.50    0.70
   7  -8   0    0.10    0.80
  -7   8   0    1.10    0.60
  -7   8   0    1.20    0.80
   6  -8   0    1.30    0.70
   6  -8   0    2.50    0.90
  -6   8   0    2.10    0.80
  -6   8   0    1.80    0.60
   5  -8   0   34.00    2.30
  -5   8   0   38.40    2.00
  -5   8   0   36.00    2.30
   4  -8   0   12.60    1.30
   4  -8   0   11.80    1.20
  -4   8   0   10.70    1.10
   3  -8   0   15.30    1.30
   3  -8   0   13.20    1.20
  -3   8   0   13.10    1.20
  -3   8   0   12.30    1.10
   2  -8   0   17.40    1.30
   2  -8   0   16.50    1.30
  -2   8   0   16.40    1.10
  -2   8   0   18.00    1.30
   1  -8   0   34.30    1.80
   1  -8   0   30.90    1.80
  -1   8   0   32.50    1.60
   0  -8   0   34.80    1.90
   0  -8   0   34.50    1.80
   0   8   0   35.60    2.10
   0   8   0   31.50    1.60
  -1  -8   0   23.90    1.30
  -1  -8   0   25.50    1.60
   1   8   0   24.70    1.20
   1   8   0   24.60    1.60
  -2  -8   0   49.80    2.40
  -2  -8   0   52.99    2.60
   2   8   0   59.09    2.80
   2   8   0   49.50    2.30
  -3  -8   0   82.59    3.90
   3   8   0   86.69    4.10
  -4  -8   0   79.99    3.80
   4   8   0   80.89    3.90
  -5  -8   0    0.70    0.60
   5   8   0    0.40    0.60
  -6  -8   0   14.30    1.30
   6   8   0   11.40    1.40
  -7  -8   0   65.79    3.50
   7   8   0   72.39    3.60
  -8  -8   0   14.90    1.60
   8   8   0   12.90    1.60
  -9  -8   0   37.90    2.50
   9   8   0   41.10    2.50
  10   8   0   10.50    1.50
 -11  -8   0   28.70    2.30
  11   8   0   25.80    2.20
 -12  -8   0    4.70    1.30
  12   8   0    6.90    1.40
 -13  -8   0   -0.20    1.20
  13   8   0    1.70    1.30
 -14  -8   0    6.90    2.00
  14   8   0    6.20    1.70
  13  -9   0    1.60    1.60
 -13   9   0    3.80    1.50
  12  -9   0   15.20    2.30
 -12   9   0   14.80    1.90
  11  -9   0   39.30    3.20
 -11   9   0   37.60    2.00
 -11   9   0   39.90    2.80
  10  -9   0    7.90    1.70
 -10   9   0    8.80    1.00
 -10   9   0    7.90    1.50
   9  -9   0    2.30    1.20
  -9   9   0    0.60    1.20
  -9   9   0    1.50    0.70
   8  -9   0   13.60    1.80
  -8   9   0   13.80    1.50
  -8   9   0   15.00    1.80
   7  -9   0   12.70    1.70
  -7   9   0   13.10    1.70
  -7   9   0   12.10    1.30
   6  -9   0   24.60    2.00
  -6   9   0   23.60    1.90
  -6   9   0   21.00    1.60
   5  -9   0   25.40    2.00
  -5   9   0   26.10    1.90
  -5   9   0   26.50    1.80
   4  -9   0   45.20    2.50
   4  -9   0   44.30    2.60
  -4   9   0   44.20    2.40
   3  -9   0   20.30    1.60
   3  -9   0   17.20    1.50
  -3   9   0   16.60    1.40
   2  -9   0    4.30    0.90
   2  -9   0    4.40    0.80
  -2   9   0    4.60    0.90
  -2   9   0    4.70    0.70
   1  -9   0    0.70    0.60
   1  -9   0    1.40    0.60
  -1   9   0    0.60    0.50
   0  -9   0    4.00    0.90
   0  -9   0    4.40    0.70
   0   9   0    4.40    0.90
   0   9   0    5.30    0.60
  -1  -9   0   39.80    2.30
  -1  -9   0   41.50    2.00
   1   9   0   40.20    2.30
   1   9   0   40.10    1.90
  -2  -9   0    2.00    0.60
  -2  -9   0    3.50    0.90
   2   9   0    1.60    0.40
   2   9   0    2.50    0.80
  -3  -9   0    7.00    1.10
   3   9   0    7.80    1.20
  -4  -9   0   31.20    2.00
   4   9   0   28.30    2.00
  -5  -9   0    9.10    1.20
   5   9   0    8.90    1.30
  -6  -9   0    2.70    0.90
   6   9   0    3.40    1.00
  -7  -9   0    7.50    1.30
   7   9   0   11.10    1.40
  -8  -9   0   -0.50    0.80
   8   9   0    1.30    0.90
   9   9   0    0.80    0.90
 -10  -9   0   14.60    1.80
  10   9   0   13.80    1.80
 -11  -9   0    5.60    1.40
  11   9   0    6.80    1.40
 -12  -9   0    2.10    1.30
  12   9   0    1.10    2.40
 -13  -9   0    6.20    1.60
  13   9   0    6.40    1.60
  12 -10   0    8.10    2.00
 -12  10   0   10.20    1.80
  11 -10   0    5.00    1.60
 -11  10   0    5.00    1.00
 -11  10   0    3.60    1.40
  10 -10   0    2.10    1.40
 -10  10   0    2.40    1.20
 -10  10   0    1.20    0.80
   9 -10   0    0.20    1.20
  -9  10   0    1.00    1.20
  -9  10   0    2.10    0.80
   8 -10   0   10.30    1.60
  -8  10   0   11.00    1.60
  -8  10   0    8.20    1.10
   7 -10   0   11.90    1.70
  -7  10   0   11.20    1.50
  -7  10   0   12.70    1.40
   6 -10   0    1.10    1.00
  -6  10   0    2.30    1.00
  -6  10   0    1.00    0.70
   5 -10   0   23.80    2.10
  -5  10   0   24.80    2.10
  -5  10   0   26.20    1.80
   4 -10   0   32.30    2.30
   4 -10   0   33.50    2.20
  -4  10   0   33.60    2.10
   3 -10   0    1.70    0.80
   3 -10   0    2.20    0.80
  -3  10   0    0.70    0.70
   2 -10   0   30.60    2.10
   2 -10   0   30.90    2.00
  -2  10   0   32.10    2.10
   1 -10   0    8.20    1.20
   1 -10   0    6.40    0.90
  -1  10   0    6.20    1.10
  -1  10   0    5.60    0.80
   0 -10   0    0.00    0.70
   0 -10   0    0.00    0.60
   0  10   0    0.80    0.80
   0  10   0    1.50    0.50
  -1 -10   0   15.70    1.60
  -1 -10   0   12.30    1.00
   1  10   0   14.20    1.50
   1  10   0   11.10    0.90
  -2 -10   0   60.79    2.70
  -2 -10   0   62.79    3.20
   2  10   0   65.19    3.30
   2  10   0   57.39    2.60
  -3 -10   0    9.30    1.30
   3  10   0   10.30    1.40
  -4 -10   0   90.19    4.30
   4  10   0   88.49    4.50
  -5 -10   0    6.40    1.20
   5  10   0    5.90    1.20
  -6 -10   0    7.90    1.30
   6  10   0    6.30    1.30
  -7 -10   0   13.90    1.60
   7  10   0   13.70    1.70
  -8 -10   0    2.40    1.10
   8  10   0    5.70    1.30
  -9 -10   0    6.20    1.40
   9  10   0    7.70    1.80
 -10 -10   0    5.00    1.30
  10  10   0    5.20    1.50
 -11 -10   0    0.20    1.20
  11  10   0    1.10    1.30
 -12 -10   0   -0.20    1.30
  12  10   0    1.60    1.30
  11 -11   0    5.20    1.80
 -11  11   0    5.40    1.70
  10 -11   0    1.90    1.50
 -10  11   0   -0.50    0.90
 -10  11   0    0.50    1.20
   9 -11   0    0.60    1.40
  -9  11   0   -1.00    1.20
  -9  11   0    1.00    0.90
   8 -11   0    3.20    1.30
  -8  11   0    3.40    1.40
  -8  11   0    3.40    1.00
   7 -11   0    9.20    1.60
  -7  11   0   11.10    1.80
  -7  11   0   10.90    1.30
   6 -11   0   11.70    1.60
  -6  11   0    8.80    1.30
  -6  11   0   11.40    1.60
   5 -11   0    0.00    0.90
  -5  11   0    1.30    0.90
  -5  11   0    2.10    1.00
   4 -11   0  219.48    9.40
   4 -11   0  206.48    9.30
  -4  11   0  217.58    9.30
   3 -11   0   34.70    2.30
   3 -11   0   40.50    2.50
  -3  11   0   32.90    2.40
   2 -11   0   18.50    1.70
   2 -11   0   18.00    1.90
  -2  11   0   22.30    1.80
   1 -11   0    0.60    0.70
   1 -11   0    1.30    0.80
  -1  11   0    1.00    0.80
  -1  11   0    1.70    0.90
   0 -11   0    3.20    0.90
   0 -11   0    3.30    0.80
   0  11   0    5.90    1.20
   0  11   0    2.10    0.90
  -1 -11   0    2.10    0.60
  -1 -11   0    3.30    1.00
   1  11   0    1.50    0.60
   1  11   0    0.60    0.80
  -2 -11   0   28.30    1.50
  -2 -11   0   26.10    1.90
   2  11   0   23.50    1.40
   2  11   0   29.20    2.10
  -3 -11   0   33.00    2.20
   3  11   0   34.20    2.40
  -4 -11   0   27.80    2.10
   4  11   0   27.20    2.20
  -5 -11   0   17.60    1.80
   5  11   0   20.70    2.00
  -6 -11   0   15.40    1.90
   6  11   0   14.80    2.80
  -7 -11   0   16.80    1.80
   7  11   0   16.30    1.90
  -8 -11   0    8.00    1.70
   8  11   0    4.20    1.50
  -9 -11   0    7.20    1.60
   9  11   0    7.30    1.50
 -10 -11   0   -0.50    1.20
  10  11   0    3.20    1.40
 -11 -11   0    7.30    1.70
  11  11   0    6.10    1.70
  10 -12   0    2.20    1.60
 -10  12   0    2.80    1.20
   9 -12   0    3.90    1.50
  -9  12   0    0.50    1.50
  -9  12   0    1.60    1.10
   8 -12   0    1.70    1.50
  -8  12   0    2.20    1.40
  -8  12   0   -0.90    1.00
   7 -12   0    0.00    1.40
  -7  12   0   -0.10    1.30
  -7  12   0    0.60    1.10
   6 -12   0    2.30    1.20
  -6  12   0    2.60    1.20
  -6  12   0    2.70    1.00
   5 -12   0   12.20    1.70
  -5  12   0   11.80    1.80
  -5  12   0   15.80    1.70
   4 -12   0   33.40    2.60
   4 -12   0   38.20    2.50
  -4  12   0   32.30    2.40
   3 -12   0   25.40    2.10
   3 -12   0   25.80    2.10
  -3  12   0   27.90    2.10
   2 -12   0    7.20    1.20
  -2  12   0    6.40    1.20
   1 -12   0   35.50    2.30
  -1  12   0   38.90    2.60
   0 -12   0    3.10    0.80
   0 -12   0    2.30    1.00
   0  12   0    2.20    0.90
  -1 -12   0   10.90    2.30
  -1 -12   0    8.00    0.80
   1  12   0    6.20    0.80
   1  12   0    6.60    1.40
   2  12   0   15.50    1.10
  -3 -12   0    1.60    0.90
   3  12   0    1.90    0.90
  -4 -12   0    8.00    1.30
   4  12   0    7.00    1.40
  -5 -12   0    4.00    1.20
   5  12   0    4.60    1.20
  -6 -12   0   18.00    2.10
   6  12   0   12.90    1.80
  -7 -12   0   -0.10    1.10
   7  12   0    1.00    1.20
  -8 -12   0    3.10    1.30
   8  12   0    1.20    1.40
  -9 -12   0    2.90    1.30
   9  12   0    1.20    1.40
 -10 -12   0    1.60    1.40
  10  12   0    0.00    1.50
   8 -13   0    0.60    1.60
  -8  13   0   -0.90    1.50
  -8  13   0   -1.40    1.20
   7 -13   0   -2.90    1.40
  -7  13   0    2.00    1.60
  -7  13   0   -1.20    1.20
   6 -13   0    1.50    1.30
  -6  13   0    1.60    1.40
  -6  13   0   -0.80    1.10
   5 -13   0    4.70    1.40
  -5  13   0    2.90    1.30
  -5  13   0    4.20    1.60
   4 -13   0    1.40    1.20
  -4  13   0    1.70    1.20
   3 -13   0    2.30    1.00
   3 -13   0    4.20    1.20
  -3  13   0    5.40    1.40
   2 -13   0    2.60    1.10
   2 -13   0    0.50    1.00
  -2  13   0    1.10    1.10
   1 -13   0    2.90    1.00
   1 -13   0    2.40    0.90
  -1  13   0    3.80    1.20
   0 -13   0   23.50    1.80
   0 -13   0   20.40    2.00
   0  13   0   23.90    2.20
  -1 -13   0    0.80    1.00
  -1 -13   0    0.40    0.70
   1  13   0    0.50    1.00
  -2 -13   0    8.10    1.60
   2  13   0    9.40    1.40
  -3 -13   0    9.10    1.40
   3  13   0    8.30    1.40
  -4 -13   0    2.60    1.10
   4  13   0    4.30    1.40
  -5 -13   0   19.70    2.10
   5  13   0   16.00    2.10
  -6 -13   0    2.50    1.20
   6  13   0    5.10    1.50
  -7 -13   0    1.70    1.30
   7  13   0    0.80    1.30
  -8 -13   0   11.40    1.90
   8  13   0    9.30    1.90
   6 -14   0    4.80    1.70
  -6  14   0    3.00    1.50
  -6  14   0    7.70    2.10
   5 -14   0    5.10    1.60
  -5  14   0    4.40    1.50
  -5  14   0    1.10    1.60
   4 -14   0    3.90    1.40
  -4  14   0    6.90    1.70
  -4  14   0    5.50    1.50
   3 -14   0   33.00    2.70
   3 -14   0   34.60    2.60
  -3  14   0   37.60    2.90
   2 -14   0    6.20    1.40
   2 -14   0    5.30    1.30
  -2  14   0    8.40    1.70
   1 -14   0    1.50    1.10
   1 -14   0    0.80    1.10
  -1  14   0    1.30    1.20
   0 -14   0    4.30    1.20
   0 -14   0    5.90    1.20
   0  14   0    7.10    1.60
  -1 -14   0    0.00    1.00
  -1 -14   0    1.80    1.00
   1  14   0   -1.60    1.30
  -2 -14   0    4.30    1.30
   2  14   0    4.60    1.50
  -3 -14   0    3.10    1.40
   3  14   0    1.80    1.10
  -4 -14   0    0.00    1.30
   4  14   0    0.20    1.40
  -5 -14   0    3.50    1.50
   5  14   0    1.00    1.30
  -6 -14   0   16.00    2.00
   6  14   0   13.60    2.20
   2 -15   0    3.40    1.70
   2 -15   0    2.70    1.60
  -2  15   0    2.70    1.70
   1 -15   0    9.40    1.50
   1 -15   0   11.40    1.90
  -1  15   0   12.50    2.00
   0 -15   0    2.70    1.30
   0  15   0    6.40    1.70
  -1 -15   0    7.30    1.70
   1  15   0    7.40    1.70
  -2 -15   0    0.40    1.40
   2  15   0   -2.80    1.40
   3  15   0    3.20    2.70
   5  14  -1    0.10    1.50
  -5 -14   1   -1.30    1.40
   4  14  -1   16.70    2.30
  -4 -14   1   16.00    2.10
   3  14  -1    0.20    1.30
  -3 -14   1    2.60    1.30
   2  14  -1    0.10    1.30
  -2 -14   1   -0.50    1.10
   1  14  -1    4.00    1.50
  -1 -14   1    6.30    1.50
   0  14  -1    1.20    1.30
   0 -14   1    1.30    1.20
   0 -14   1    0.60    1.30
  -1  14  -1   -1.60    1.30
   1 -14   1    0.60    1.20
   1 -14   1    1.80    1.20
  -2  14  -1    2.40    1.50
   2 -14   1    1.70    1.30
   2 -14   1    0.60    1.20
  -3  14  -1    0.60    1.40
   3 -14   1   -0.20    1.20
  -4  14  -1    2.40    1.70
  -4  14  -1    0.10    1.30
   4 -14   1    1.20    1.50
  -5  14  -1    4.70    1.60
  -5  14  -1    5.80    2.10
   5 -14   1    3.90    1.60
   7  13  -1   -0.70    1.40
  -7 -13   1    2.80    1.40
   6  13  -1    4.20    1.60
  -6 -13   1    4.30    1.40
   5  13  -1   -1.70    1.30
  -5 -13   1    0.90    1.00
   4  13  -1   11.50    1.80
  -4 -13   1   13.80    1.80
   3  13  -1    9.20    1.70
  -3 -13   1    6.50    1.40
   2  13  -1   16.90    2.00
  -2 -13   1   11.80    1.70
   1  13  -1   15.50    2.00
  -1 -13   1   15.30    1.50
  -1 -13   1   14.20    1.80
   0  13  -1   30.70    2.40
   0 -13   1   21.00    1.90
   0 -13   1   21.90    2.20
  -1  13  -1   10.50    1.70
   1 -13   1    9.70    1.40
   1 -13   1   10.10    1.50
  -2  13  -1    6.70    1.30
   2 -13   1    3.10    1.20
   2 -13   1    6.40    1.30
  -3  13  -1    2.70    1.20
   3 -13   1    1.10    1.20
   3 -13   1    0.00    1.00
  -4  13  -1    6.40    1.40
   4 -13   1    5.70    1.50
  -5  13  -1    0.30    1.20
  -5  13  -1    0.00    1.50
   5 -13   1    0.10    1.40
  -6  13  -1   10.50    1.90
  -6  13  -1    8.10    1.50
   6 -13   1    6.90    1.70
  -7  13  -1   -1.40    1.10
  -7  13  -1   -0.20    1.70
   7 -13   1    0.50    1.50
   9  12  -1    0.00    1.50
  -9 -12   1    1.90    1.20
   8  12  -1    4.50    1.60
  -8 -12   1    1.80    1.20
   7  12  -1    7.20    1.50
  -7 -12   1    6.90    1.40
   6  12  -1   10.50    1.70
  -6 -12   1   10.50    1.70
   5  12  -1    1.60    1.10
  -5 -12   1    2.80    1.20
   4  12  -1    2.00    1.10
  -4 -12   1    4.50    1.20
   3  12  -1   -0.60    0.80
  -3 -12   1   -1.30    0.80
   2  12  -1   13.80    1.20
   2  12  -1   17.80    1.90
  -2 -12   1   21.50    2.20
  -2 -12   1   18.60    1.20
   1  12  -1    1.30    0.90
   1  12  -1    1.80    1.00
  -1 -12   1    1.70    0.80
  -1 -12   1    2.30    1.00
   0  12  -1    4.40    1.30
   0  12  -1    3.60    0.90
   0 -12   1    5.80    1.20
   0 -12   1    4.00    0.90
   1 -12   1    2.30    1.40
   1 -12   1    3.70    1.10
  -2  12  -1    3.70    1.50
   2 -12   1    3.10    1.00
   2 -12   1    2.80    1.00
  -3  12  -1    8.60    1.50
   3 -12   1    7.80    1.30
   3 -12   1    9.60    1.40
  -4  12  -1   17.90    2.00
   4 -12   1   22.80    2.20
   4 -12   1   20.40    2.00
  -5  12  -1   18.20    1.90
  -5  12  -1   16.90    2.10
   5 -12   1   22.40    2.40
  -6  12  -1    1.20    1.30
  -6  12  -1    0.90    1.10
   6 -12   1    1.70    1.60
  -7  12  -1    3.60    1.60
  -7  12  -1    5.10    1.40
   7 -12   1    5.20    1.60
  -8  12  -1    3.30    1.60
  -8  12  -1    4.30    1.30
   8 -12   1    2.90    1.60
  -9  12  -1    7.20    1.90
  -9  12  -1    8.60    1.50
   9 -12   1    6.30    1.90
  10  11  -1   -0.70    1.40
 -10 -11   1   -1.80    1.10
   9  11  -1    4.50    1.50
  -9 -11   1    4.30    1.30
   8  11  -1    4.30    1.30
  -8 -11   1    5.00    1.10
   7  11  -1   -0.10    1.10
  -7 -11   1    1.70    1.10
   6  11  -1    6.60    1.40
  -6 -11   1    6.30    1.30
  -5 -11   1   11.30    1.60
   4  11  -1   18.60    1.90
  -4 -11   1   16.30    1.90
   3  11  -1   56.19    3.30
  -3 -11   1   53.59    3.10
   2  11  -1   21.70    1.90
   2  11  -1   20.20    1.30
  -2 -11   1   24.10    1.90
  -2 -11   1   22.80    1.30
   1  11  -1   10.90    1.10
   1  11  -1   13.00    1.60
  -1 -11   1   13.20    1.50
  -1 -11   1   12.70    1.20
   0  11  -1    2.50    0.70
   0  11  -1    1.10    1.00
   0 -11   1    1.30    0.80
   0 -11   1    0.80    0.70
  -1  11  -1   37.40    2.40
   1 -11   1   35.60    2.20
   1 -11   1   32.30    2.30
  -2  11  -1    2.80    1.00
   2 -11   1    1.60    0.90
   2 -11   1    3.60    1.10
  -3  11  -1   30.50    2.10
   3 -11   1   26.20    2.10
   3 -11   1   26.70    2.10
  -4  11  -1   25.90    2.00
   4 -11   1   20.20    2.10
   4 -11   1   20.20    2.00
  -5  11  -1    1.50    0.90
  -5  11  -1    1.00    1.40
   5 -11   1    3.00    1.20
  -6  11  -1   40.80    2.60
  -6  11  -1   39.60    2.90
   6 -11   1   41.60    3.00
  -7  11  -1    2.20    1.40
  -7  11  -1    2.20    1.00
   7 -11   1    1.30    1.60
  -8  11  -1    1.30    1.00
  -8  11  -1    1.10    1.40
   8 -11   1    2.00    1.40
  -9  11  -1    1.00    1.60
  -9  11  -1    1.40    1.10
   9 -11   1   -0.50    1.30
 -10  11  -1    9.50    1.40
 -10  11  -1   10.60    1.80
  10 -11   1    7.80    1.90
  11 -11   1    8.30    2.00
  12  10  -1    7.40    1.70
  11  10  -1    3.90    1.60
 -11 -10   1    2.20    1.30
  10  10  -1   -0.30    1.20
 -10 -10   1   -0.80    1.10
   9  10  -1    7.30    1.50
  -9 -10   1    7.60    1.30
  -8 -10   1    0.60    0.90
   7  10  -1    2.00    1.00
  -7 -10   1   -0.30    1.10
   6  10  -1    0.80    0.90
  -6 -10   1    2.50    0.90
   5  10  -1    0.70    0.90
  -5 -10   1    0.90    0.80
   4  10  -1    2.80    1.00
  -4 -10   1    4.80    1.00
   3  10  -1   36.30    2.40
   3  10  -1   38.00    2.10
  -3 -10   1   35.50    2.30
   2  10  -1    0.50    0.70
   2  10  -1    0.00    0.50
  -2 -10   1   -0.20    0.40
  -2 -10   1   -0.40    0.70
   1  10  -1   27.00    1.50
   1  10  -1   30.90    2.10
  -1 -10   1   29.60    2.00
  -1 -10   1   29.90    1.70
   0  10  -1   21.50    1.80
   0  10  -1   19.70    1.90
   0 -10   1   17.80    1.60
   0 -10   1   19.80    1.50
  -1  10  -1   15.70    1.30
  -1  10  -1   21.10    1.60
   1 -10   1   18.40    1.60
   1 -10   1   20.30    1.60
  -2  10  -1   57.09    3.00
   2 -10   1   49.30    2.90
   2 -10   1   53.19    2.90
  -3  10  -1    3.60    0.90
   3 -10   1    4.10    1.00
   3 -10   1    3.10    0.90
  -4  10  -1   11.20    1.40
   4 -10   1    9.50    1.30
   4 -10   1    9.80    1.40
  -5  10  -1   39.80    2.40
  -5  10  -1   41.80    2.70
   5 -10   1   41.00    2.70
  -6  10  -1   12.60    1.40
  -6  10  -1   12.40    1.60
   6 -10   1   11.90    1.60
  -7  10  -1    4.10    1.00
   7 -10   1    4.00    1.30
  -8  10  -1    1.60    0.90
  -8  10  -1    0.90    1.30
  -9  10  -1    2.00    0.90
  -9  10  -1    1.60    1.30
   9 -10   1    2.10    1.40
 -10  10  -1   22.40    2.30
 -10  10  -1   20.00    1.70
  10 -10   1   18.80    2.30
 -11  10  -1   15.40    2.10
  11 -10   1   14.80    2.30
 -12  10  -1    4.20    1.90
  12 -10   1    5.40    2.00
  13   9  -1   12.20    1.80
  12   9  -1    9.80    1.70
 -12  -9   1   13.60    1.90
 -11  -9   1    6.40    1.40
  10   9  -1   34.00    2.50
 -10  -9   1   34.20    2.40
   9   9  -1    4.80    1.10
  -9  -9   1    6.00    1.30
   8   9  -1   21.50    1.90
  -8  -9   1   21.50    1.90
   7   9  -1    4.40    1.00
  -7  -9   1    7.10    1.10
   6   9  -1   17.10    1.70
  -6  -9   1   19.50    1.60
   5   9  -1    7.90    1.30
  -5  -9   1    4.40    0.90
   4   9  -1    4.50    1.10
  -4  -9   1    6.70    1.10
   3   9  -1   38.40    2.40
  -3  -9   1   35.80    1.70
  -3  -9   1   39.90    2.30
   2   9  -1    9.10    0.80
   2   9  -1   12.00    1.40
  -2  -9   1    9.00    0.80
  -2  -9   1   11.80    1.20
   1   9  -1    5.00    0.60
   1   9  -1    4.60    0.90
  -1  -9   1    5.40    1.00
  -1  -9   1    6.30    0.80
   0   9  -1    1.00    0.50
   0   9  -1    1.50    0.70
   0  -9   1    1.90    0.60
   0  -9   1    2.80    0.80
  -1   9  -1    1.40    0.50
  -1   9  -1    0.80    0.70
   1  -9   1    1.00    0.60
   1  -9   1    1.20    0.50
  -2   9  -1    1.60    0.70
   2  -9   1    1.40    0.60
   2  -9   1    2.80    0.70
  -3   9  -1    5.90    1.00
   3  -9   1    4.00    1.00
  -4   9  -1   -0.50    0.60
   4  -9   1    1.00    0.80
   4  -9   1    0.50    0.70
  -5   9  -1   27.90    1.90
  -5   9  -1   29.30    2.10
   5  -9   1   30.10    2.20
  -6   9  -1   16.80    1.40
  -6   9  -1   17.90    1.80
   6  -9   1   16.10    1.90
  -7   9  -1    5.20    1.00
  -7   9  -1    3.20    1.10
   7  -9   1    5.20    1.20
  -8   9  -1   13.20    1.80
  -8   9  -1   15.40    1.40
   8  -9   1   15.50    2.00
  -9   9  -1   18.00    2.00
  -9   9  -1   18.10    1.50
   9  -9   1   13.90    3.00
 -10   9  -1    1.80    1.40
 -10   9  -1    2.10    1.10
  10  -9   1    2.30    1.30
 -11   9  -1   11.50    1.30
 -11   9  -1   13.00    1.80
  11  -9   1    9.80    1.90
 -12   9  -1    2.00    1.40
  12  -9   1    0.60    1.60
 -13   9  -1   -0.60    1.80
  13  -9   1    2.70    2.30
  13   8  -1    2.20    1.30
 -13  -8   1   -0.60    1.30
  12   8  -1   11.20    1.60
 -12  -8   1    6.60    1.50
  11   8  -1   -0.60    1.10
 -11  -8   1    1.00    0.90
  10   8  -1   13.50    1.60
 -10  -8   1   12.20    1.70
   9   8  -1    1.30    0.90
  -9  -8   1    1.80    0.90
   8   8  -1    0.80    0.90
  -8  -8   1    1.40    0.80
   7   8  -1    3.90    0.90
  -7  -8   1    5.00    1.00
   6   8  -1    6.40    1.10
  -6  -8   1    4.00    0.90
   5   8  -1   51.79    2.80
  -5  -8   1   48.80    2.70
   4   8  -1   42.20    2.40
  -4  -8   1   40.00    2.30
   3   8  -1   72.09    3.40
  -3  -8   1   66.49    3.30
  -3  -8   1   64.99    2.80
   2   8  -1   57.99    3.00
   2   8  -1   56.59    2.50
  -2  -8   1   58.29    2.50
  -2  -8   1   55.39    2.90
   1   8  -1  142.19    6.20
   1   8  -1  136.59    5.70
  -1  -8   1  144.89    5.80
  -1  -8   1  139.99    6.10
   0   8  -1   43.90    2.10
   0   8  -1   42.10    2.40
   0  -8   1   45.50    2.20
   0  -8   1   45.20    2.40
  -1   8  -1    7.50    1.10
  -1   8  -1    8.50    0.80
   1  -8   1    9.10    1.10
   1  -8   1    9.40    1.00
  -2   8  -1   29.50    1.70
  -2   8  -1   31.10    1.90
   2  -8   1   33.60    1.90
   2  -8   1   33.00    1.90
  -3   8  -1   46.50    2.50
   3  -8   1   44.70    2.40
   3  -8   1   45.70    2.50
  -4   8  -1   14.30    1.40
   4  -8   1   13.80    1.40
   4  -8   1   13.40    1.30
  -5   8  -1   57.29    3.10
   5  -8   1   60.89    3.20
  -6   8  -1   42.80    2.50
  -6   8  -1   39.20    2.40
   6  -8   1   38.50    2.50
  -7   8  -1   37.60    2.40
  -7   8  -1   36.20    2.10
   7  -8   1   39.10    2.60
  -8   8  -1   37.10    2.00
  -8   8  -1   35.40    2.40
   8  -8   1   36.70    2.70
  -9   8  -1   21.20    2.00
  -9   8  -1   18.10    1.40
   9  -8   1   18.40    2.10
 -10   8  -1   13.00    1.70
 -10   8  -1   12.90    1.20
  10  -8   1   13.00    1.90
 -11   8  -1   15.70    1.90
 -11   8  -1   17.50    1.30
  11  -8   1   16.10    2.20
 -12   8  -1    0.80    1.10
  12  -8   1   -0.10    1.20
 -13   8  -1    0.00    1.30
  13  -8   1    1.50    1.40
  14   7  -1    2.10    1.30
 -14  -7   1    1.80    1.50
  13   7  -1    6.90    1.30
 -13  -7   1    4.10    1.30
  12   7  -1   11.10    1.50
 -12  -7   1    9.60    1.60
 -12  -7   1    8.30    0.80
  11   7  -1    0.20    1.00
 -11  -7   1   -0.40    0.90
 -11  -7   1    0.50    0.60
 -11  -7   1   -0.10    0.50
  10   7  -1   11.20    1.40
 -10  -7   1    9.70    1.40
   9   7  -1    9.50    1.30
  -9  -7   1    6.00    1.20
   8   7  -1    0.20    0.70
  -8  -7   1    1.80    0.80
   7   7  -1   33.20    2.10
  -7  -7   1   36.70    2.20
   6   7  -1   51.19    2.80
  -6  -7   1   54.69    2.80
   5   7  -1  215.18    9.00
  -5  -7   1  210.98    9.00
   4   7  -1  102.09    4.70
  -4  -7   1  101.19    4.60
   3   7  -1   24.40    1.30
   3   7  -1   29.50    1.70
  -3  -7   1   27.10    1.60
  -3  -7   1   25.60    1.20
   2   7  -1   27.40    2.30
   2   7  -1   27.40    1.30
  -2  -7   1   29.60    1.80
  -2  -7   1   26.70    1.30
   1   7  -1    8.20    0.70
   1   7  -1    9.40    1.10
  -1  -7   1    9.00    0.90
  -1  -7   1   10.40    0.80
   0   7  -1   22.80    1.50
   0   7  -1   24.10    1.20
   0  -7   1   23.70    1.50
   0  -7   1   24.90    1.40
  -1   7  -1    2.30    0.60
  -1   7  -1    2.30    0.40
   1  -7   1    1.80    0.60
   1  -7   1    2.00    0.60
  -2   7  -1    5.10    0.70
   2  -7   1    6.80    0.90
   2  -7   1    6.20    0.90
  -3   7  -1   12.80    1.00
  -3   7  -1   11.30    1.00
   3  -7   1   13.70    1.40
   3  -7   1   11.20    1.20
   3  -7   1   12.60    1.10
  -4   7  -1   31.30    1.70
   4  -7   1   29.70    1.80
   4  -7   1   28.20    1.70
   4  -7   1   24.70    1.70
  -5   7  -1    1.90    0.60
  -5   7  -1    2.30    0.70
   5  -7   1    0.40    0.60
   5  -7   1    1.80    0.80
  -6   7  -1   41.30    2.10
  -6   7  -1   40.20    2.40
   6  -7   1   42.10    2.50
   6  -7   1   36.40    2.10
  -7   7  -1   17.20    1.50
  -7   7  -1   16.40    1.20
   7  -7   1   15.80    1.60
   7  -7   1   14.90    1.30
  -8   7  -1    4.00    1.00
  -8   7  -1    4.30    0.70
   8  -7   1    3.80    1.10
   8  -7   1    3.30    0.80
  -9   7  -1   50.49    2.90
  -9   7  -1   54.19    2.40
   9  -7   1   47.00    3.10
   9  -7   1   40.10    2.60
 -10   7  -1   14.30    1.70
 -10   7  -1   11.60    1.00
  10  -7   1   15.70    2.00
 -11   7  -1   23.50    2.10
 -11   7  -1   19.00    1.40
 -11   7  -1   21.10    1.30
  11  -7   1   26.30    2.30
 -12   7  -1   43.30    2.90
  12  -7   1   43.30    3.30
 -13   7  -1    5.70    1.40
  13  -7   1    6.00    1.60
 -14   7  -1    3.90    1.60
  14  -7   1    2.00    1.50
  14   6  -1   -0.80    1.20
 -14  -6   1    0.60    1.30
 -14  -6   1   -1.70    1.20
  13   6  -1    0.20    1.00
 -13  -6   1   -0.80    1.00
 -13  -6   1    0.30    1.00
  12   6  -1    0.50    0.80
 -12  -6   1    0.80    1.10
 -12  -6   1   -0.40    0.80
  11   6  -1    0.50    0.80
 -11  -6   1    0.90    0.60
 -11  -6   1    0.00    0.90
 -11  -6   1    0.60    0.70
  10   6  -1    0.70    0.80
 -10  -6   1   -0.80    0.70
 -10  -6   1    0.20    0.50
 -10  -6   1    0.30    0.60
   9   6  -1   67.39    3.30
  -9  -6   1   60.99    2.90
  -9  -6   1   65.79    2.90
  -9  -6   1   71.89    3.40
   8   6  -1   70.59    3.30
  -8  -6   1   62.69    2.80
  -8  -6   1   68.59    3.40
  -8  -6   1   64.49    2.80
   7   6  -1   67.39    3.40
  -7  -6   1   62.09    2.70
  -7  -6   1   68.99    3.30
   6   6  -1  100.89    4.50
  -6  -6   1   91.59    3.90
  -6  -6   1   98.49    4.40
  -6  -6   1   94.49    3.80
   5   6  -1   11.30    1.10
  -5  -6   1   11.70    1.00
   4   6  -1   33.50    1.90
  -4  -6   1   33.60    1.80
  -4  -6   1   33.10    1.40
  -4  -6   1   33.50    1.40
   3   6  -1   23.10    1.50
   3   6  -1   24.60    1.10
  -3  -6   1   24.20    1.50
  -3  -6   1   23.70    1.60
  -3  -6   1   25.40    1.10
   2   6  -1  102.29    4.50
   2   6  -1  106.69    4.30
   2   6  -1  105.19    4.60
  -2  -6   1   97.09    4.60
  -2  -6   1  107.69    4.50
  -2  -6   1  105.99    4.30
   1   6  -1    9.20    0.90
   1   6  -1   10.20    0.60
   1   6  -1    8.70    0.80
  -1  -6   1    9.70    0.80
  -1  -6   1   10.50    0.90
  -1  -6   1   11.40    0.70
   0   6  -1   73.49    3.00
   0   6  -1   67.09    3.10
   0   6  -1   68.59    3.20
   0  -6   1   73.09    3.10
   0  -6   1   65.89    3.20
   0  -6   1   70.39    3.20
  -1   6  -1   17.10    1.00
  -1   6  -1   15.50    1.00
  -1   6  -1   15.50    1.10
   1  -6   1   15.20    1.10
   1  -6   1   16.80    1.10
   1  -6   1   14.20    1.10
  -2   6  -1  112.99    4.90
  -2   6  -1  110.89    4.80
  -2   6  -1  116.79    5.00
   2  -6   1  110.19    5.00
   2  -6   1  120.69    5.00
   2  -6   1  122.69    5.00
  -3   6  -1  378.46   14.80
  -3   6  -1  355.46   14.90
  -3   6  -1  361.56   14.70
   3  -6   1  373.06   14.80
   3  -6   1  351.16   14.80
   3  -6   1  378.16   14.80
  -4   6  -1  133.39    5.50
  -4   6  -1  120.49    5.40
  -4   6  -1  133.49    5.60
   4  -6   1  123.49    5.70
   4  -6   1  131.59    5.60
  -5   6  -1    4.90    0.70
  -5   6  -1    7.10    1.50
   5  -6   1    4.50    0.90
  -6   6  -1    8.70    1.10
  -6   6  -1    9.70    0.90
   6  -6   1    9.00    1.00
   6  -6   1    9.30    1.20
  -7   6  -1    4.80    0.70
  -7   6  -1    2.40    0.80
   7  -6   1    4.10    0.70
   7  -6   1    4.90    1.00
  -8   6  -1    0.30    0.70
  -8   6  -1   -0.10    0.40
   8  -6   1   -0.40    0.50
   8  -6   1    0.50    0.80
  -9   6  -1   13.30    1.50
  -9   6  -1   14.30    1.10
   9  -6   1   17.00    1.80
   9  -6   1   14.00    1.10
 -10   6  -1    0.40    0.80
 -10   6  -1    0.40    0.40
  10  -6   1   -0.70    0.90
 -11   6  -1   -0.40    1.00
 -11   6  -1   -0.30    0.40
  11  -6   1   -0.40    0.90
 -12   6  -1   -0.20    1.00
  12  -6   1   -0.60    1.00
 -13   6  -1    4.80    1.40
  13  -6   1    6.50    1.50
 -14   6  -1   -1.90    1.30
  14  -6   1    1.70    1.50
 -15   6  -1    2.00    1.80
  15  -6   1   -1.10    2.00
 -15  -5   1    8.70    1.70
 -15  -5   1    8.00    1.70
  14   5  -1    8.20    1.20
 -14  -5   1    8.30    1.60
 -14  -5   1   11.20    1.50
  13   5  -1   11.60    1.30
 -13  -5   1   14.80    1.80
  12   5  -1   20.80    1.60
 -12  -5   1   17.90    1.60
 -12  -5   1   19.50    1.80
  11   5  -1   19.90    1.80
 -11  -5   1   20.50    1.50
 -11  -5   1   24.10    1.90
 -11  -5   1   16.90    1.60
  10   5  -1   19.40    1.70
 -10  -5   1   17.10    1.30
 -10  -5   1   18.40    1.60
 -10  -5   1   17.00    1.30
   9   5  -1   37.20    2.10
  -9  -5   1   36.20    1.80
  -9  -5   1   34.70    2.10
  -9  -5   1   30.60    1.80
   8   5  -1    0.90    0.50
  -8  -5   1    1.90    0.70
  -8  -5   1    1.30    0.40
  -8  -5   1    1.20    0.50
   7   5  -1    5.10    0.80
   7   5  -1    4.80    0.90
  -7  -5   1    4.60    0.60
  -7  -5   1    4.00    0.80
  -7  -5   1    5.10    0.50
   6   5  -1   37.00    2.00
   6   5  -1   35.40    2.00
  -6  -5   1   36.50    1.70
  -6  -5   1   39.50    2.30
   5   5  -1   11.50    1.00
  -5  -5   1   12.40    0.70
  -5  -5   1   13.70    1.00
  -5  -5   1   13.20    0.70
  -5  -5   1   12.10    1.00
   4   5  -1   49.90    2.60
   4   5  -1   58.29    2.70
  -4  -5   1   53.39    2.70
  -4  -5   1   56.49    2.60
  -4  -5   1   55.29    2.30
  -4  -5   1   59.09    2.30
   3   5  -1   18.90    1.10
   3   5  -1   19.30    1.20
  -3  -5   1   20.10    1.20
  -3  -5   1   18.80    1.20
  -3  -5   1   19.60    0.90
   2   5  -1   93.29    4.00
   2   5  -1   99.89    4.30
  -2  -5   1  103.59    4.00
  -2  -5   1   90.69    4.60
  -2  -5   1  100.99    4.20
   1   5  -1  304.87   12.30
   1   5  -1  296.47   12.20
   1   5  -1  318.97   12.00
  -1  -5   1  303.67   12.20
  -1  -5   1  288.37   12.30
   0   5  -1  369.36   14.70
   0   5  -1  353.76   14.60
   0   5  -1  365.56   14.40
   0  -5   1  360.76   14.60
   0  -5   1  380.56   14.50
   0  -5   1  357.36   14.70
  -1   5  -1  158.18    6.70
  -1   5  -1  164.88    6.60
  -1   5  -1  164.38    6.80
   1  -5   1  161.48    6.70
   1  -5   1  160.38    6.80
   1  -5   1  170.28    6.70
  -2   5  -1   27.00    1.50
  -2   5  -1   26.10    1.40
  -2   5  -1   27.70    1.50
   2  -5   1   28.50    1.50
   2  -5   1   29.70    1.50
   2  -5   1   28.60    1.50
  -3   5  -1   28.50    1.50
  -3   5  -1   31.60    1.60
  -3   5  -1   31.40    1.60
   3  -5   1   29.60    1.60
   3  -5   1   30.00    1.70
   3  -5   1   29.70    1.60
  -4   5  -1  151.58    6.40
  -4   5  -1  151.28    6.30
  -4   5  -1  152.88    6.30
  -4   5  -1  144.49    6.30
   4  -5   1  158.58    6.50
   4  -5   1  147.59    6.30
  -5   5  -1   37.60    2.00
  -5   5  -1   38.10    1.80
  -5   5  -1   34.10    1.90
   5  -5   1   37.70    1.90
   5  -5   1   39.20    2.10
  -6   5  -1   20.00    1.60
  -6   5  -1   22.00    1.20
   6  -5   1   22.40    1.60
   6  -5   1   20.50    1.20
  -7   5  -1  104.39    4.30
  -7   5  -1  104.79    4.70
   7  -5   1  102.09    4.80
   7  -5   1   99.79    4.40
  -8   5  -1    2.00    0.50
  -8   5  -1    1.60    0.70
   8  -5   1    3.70    0.50
   8  -5   1    3.40    1.00
  -9   5  -1   19.20    1.60
  -9   5  -1   18.30    1.10
   9  -5   1   17.80    1.10
   9  -5   1   18.50    1.80
 -10   5  -1    0.40    0.40
 -10   5  -1    0.50    0.80
  10  -5   1   -0.50    0.70
 -11   5  -1    2.70    1.00
  11  -5   1    0.70    0.90
  12  -5   1   11.20    2.00
 -13   5  -1    3.10    1.20
  13  -5   1    1.80    1.20
 -14   5  -1    0.40    1.00
  14  -5   1    0.30    1.40
 -15   5  -1    5.90    1.60
  15  -5   1    2.10    1.60
 -15  -4   1   -1.60    1.40
 -15  -4   1   -0.10    1.30
  14   4  -1    7.10    1.10
 -14  -4   1    4.60    1.30
 -14  -4   1    7.80    1.40
  13   4  -1    7.60    1.10
 -13  -4   1    6.40    1.30
  12   4  -1   12.80    1.30
  12   4  -1   11.30    1.50
 -12  -4   1   13.40    1.70
  11   4  -1   21.90    1.50
  11   4  -1   17.60    1.60
 -11  -4   1   21.10    1.70
  10   4  -1    7.60    1.00
  10   4  -1    7.20    0.90
 -10  -4   1    9.20    1.30
 -10  -4   1    6.20    0.90
   9   4  -1   81.79    3.70
   9   4  -1   75.29    3.70
  -9  -4   1   81.29    3.60
  -9  -4   1   87.39    4.00
   8   4  -1   15.80    1.20
   8   4  -1   16.70    1.20
  -8  -4   1   17.70    1.40
  -8  -4   1   17.10    1.10
  -8  -4   1   17.90    1.20
   7   4  -1   24.30    1.50
   7   4  -1   24.50    1.50
  -7  -4   1   22.40    1.30
  -7  -4   1   25.00    1.50
  -7  -4   1   23.50    1.30
   6   4  -1   72.19    3.30
   6   4  -1   68.39    3.30
  -6  -4   1   71.89    3.10
  -6  -4   1   75.59    3.30
  -6  -4   1   71.59    3.10
   5   4  -1  205.08    8.40
   5   4  -1  188.58    8.30
  -5  -4   1  203.08    8.10
  -5  -4   1  209.98    8.40
  -5  -4   1  205.38    8.40
  -5  -4   1  205.78    8.10
   4   4  -1  100.59    4.30
  -4  -4   1   97.99    4.00
  -4  -4   1   94.99    4.30
  -4  -4   1   99.59    4.00
  -4  -4   1  102.89    4.30
   3   4  -1  336.17   13.50
   3   4  -1  321.67   13.40
  -3  -4   1  356.26   13.20
  -3  -4   1  336.37   13.40
  -3  -4   1  324.07   13.50
   2   4  -1  261.77   10.40
   2   4  -1  240.08   10.30
   2   4  -1  256.27   10.10
  -2  -4   1  270.67   10.10
  -2  -4   1  256.17   10.40
  -2  -4   1  246.28   10.30
   1   4  -1   46.60    1.90
   1   4  -1   40.40    2.00
   1   4  -1   41.20    2.00
  -1  -4   1   45.70    1.90
  -1  -4   1   43.80    2.00
  -1  -4   1   42.20    2.10
   0   4  -1   45.30    2.10
   0   4  -1   50.19    2.20
   0   4  -1   46.40    2.00
   0  -4   1   44.60    2.10
   0  -4   1   50.19    2.10
   0  -4   1   46.70    2.20
  -1   4  -1    0.50    0.20
  -1   4  -1    0.80    0.30
  -1   4  -1    0.40    0.30
   1  -4   1    0.10    0.20
   1  -4   1    0.30    0.30
   1  -4   1    0.10    0.20
  -2   4  -1    3.30    0.50
  -2   4  -1    3.80    0.50
  -2   4  -1    3.50    0.50
   2  -4   1    3.40    0.50
   2  -4   1    4.00    0.60
   2  -4   1    4.50    0.60
  -3   4  -1  184.58    7.70
  -3   4  -1  191.68    7.70
  -3   4  -1  193.28    7.70
   3  -4   1  189.18    7.70
   3  -4   1  189.98    7.80
   3  -4   1  186.98    7.70
  -4   4  -1   18.20    1.10
  -4   4  -1   16.00    0.90
  -4   4  -1   13.80    1.00
  -4   4  -1   14.00    1.00
   4  -4   1   16.00    0.90
   4  -4   1   14.70    1.10
  -5   4  -1   10.00    0.90
  -5   4  -1    8.80    0.90
  -5   4  -1   10.00    0.70
  -5   4  -1   10.00    0.90
   5  -4   1   10.30    0.80
   5  -4   1    9.80    0.90
  -6   4  -1   -0.50    0.40
  -6   4  -1    0.00    0.40
  -6   4  -1    0.40    0.30
   6  -4   1    0.40    0.30
   6  -4   1    0.50    0.50
  -7   4  -1    1.90    0.40
   7  -4   1    1.50    0.40
   7  -4   1    0.90    0.90
  -8   4  -1    9.30    0.70
  -8   4  -1   10.90    1.20
   8  -4   1   10.30    0.80
   8  -4   1   12.50    1.30
  -9   4  -1   16.40    1.40
  -9   4  -1   16.40    0.90
   9  -4   1   19.00    1.70
   9  -4   1   15.20    1.00
 -10   4  -1   25.90    1.30
 -10   4  -1   26.30    1.90
  10  -4   1   32.00    2.20
 -11   4  -1   18.60    1.70
  11  -4   1   17.10    1.90
 -12   4  -1   21.90    2.00
  12  -4   1   23.40    2.30
 -13   4  -1   31.80    2.50
  13  -4   1   33.00    2.60
 -14   4  -1   17.40    2.00
  14  -4   1   14.90    2.10
 -15   4  -1    3.90    1.50
  15  -4   1    1.20    1.40
  15   3  -1    3.60    1.40
 -15  -3   1    6.00    1.40
  14   3  -1    2.10    1.20
  14   3  -1    1.90    0.70
 -14  -3   1    2.10    1.20
  13   3  -1    8.40    1.10
  13   3  -1   10.20    1.40
  13   3  -1    7.30    0.90
 -13  -3   1   10.40    1.50
  12   3  -1   19.90    1.50
  12   3  -1   24.10    1.80
  12   3  -1   18.80    1.40
 -12  -3   1   21.70    1.90
  11   3  -1   17.40    1.20
  11   3  -1   16.20    1.30
  11   3  -1   18.20    1.80
 -11  -3   1   18.80    1.60
  10   3  -1   76.49    3.50
  10   3  -1   81.19    3.70
  10   3  -1   73.09    3.40
 -10  -3   1   73.49    3.60
 -10  -3   1   81.29    3.80
   9   3  -1   17.20    1.10
   9   3  -1   15.40    1.30
   9   3  -1   16.70    1.20
  -9  -3   1   18.00    1.40
  -9  -3   1   15.30    1.40
   8   3  -1   19.00    1.20
   8   3  -1   19.60    1.30
   8   3  -1   16.40    1.20
  -8  -3   1   19.60    1.20
  -8  -3   1   18.40    1.30
   7   3  -1   20.00    1.20
   7   3  -1   20.80    1.20
   7   3  -1   23.00    1.30
  -7  -3   1   20.50    1.20
  -7  -3   1   22.20    1.40
   6   3  -1    3.20    0.50
   6   3  -1    3.30    0.50
   6   3  -1    3.10    0.60
   6   3  -1    3.00    0.50
  -6  -3   1    2.30    0.40
  -6  -3   1    2.80    0.50
   5   3  -1   14.10    0.90
  -5  -3   1   15.70    0.90
  -5  -3   1   14.00    0.90
  -5  -3   1   16.50    1.00
  -5  -3   1   14.10    0.90
   4   3  -1  392.16   15.10
   4   3  -1  362.06   15.10
  -4  -3   1  377.96   15.10
  -4  -3   1  382.16   15.10
  -4  -3   1  377.86   15.00
   3   3  -1   19.60    1.00
   3   3  -1   18.50    1.00
  -3  -3   1   17.00    0.80
  -3  -3   1   16.20    0.80
  -3  -3   1   17.00    1.00
  -3  -3   1   17.70    1.00
   2   3  -1  260.47   11.00
   2   3  -1  279.47   11.10
   2   3  -1  279.87   10.90
  -2  -3   1  294.37   10.90
  -2  -3   1  273.57   11.10
  -2  -3   1  266.57   11.00
   1   3  -1  299.77   12.30
   1   3  -1  309.67   12.20
   1   3  -1  306.17   12.30
  -1  -3   1  305.97   12.30
  -1  -3   1  305.47   12.30
  -1  -3   1  324.97   12.20
   0   3  -1  301.87   11.80
   0   3  -1  292.47   11.70
   0  -3   1  291.77   11.70
   0  -3   1  302.47   11.70
   0  -3   1  285.57   11.80
  -1   3  -1   29.60    1.30
  -1   3  -1   28.40    1.30
  -1   3  -1   29.80    1.40
   1  -3   1   28.60    1.40
   1  -3   1   29.10    1.30
   1  -3   1   27.40    1.40
  -2   3  -1   39.30    1.80
  -2   3  -1   37.10    1.70
  -2   3  -1   40.10    1.80
   2  -3   1   38.90    1.80
   2  -3   1   38.30    1.70
   2  -3   1   36.60    1.80
  -3   3  -1    1.70    0.30
  -3   3  -1    2.00    0.40
  -3   3  -1    2.40    0.30
  -3   3  -1    1.70    0.30
   3  -3   1    2.70    0.40
   3  -3   1    2.90    0.50
  -4   3  -1   84.09    3.60
  -4   3  -1   82.09    3.40
  -4   3  -1   78.89    3.50
  -4   3  -1   81.79    3.50
   4  -3   1   80.39    3.40
   4  -3   1   82.49    3.60
  -5   3  -1   65.19    3.30
  -5   3  -1   71.89    3.20
  -5   3  -1   67.39    2.90
  -5   3  -1   72.09    3.10
   5  -3   1   68.89    3.20
   5  -3   1   71.49    3.00
  -6   3  -1   21.70    1.00
  -6   3  -1   20.70    1.30
  -6   3  -1   17.30    1.30
   6  -3   1   20.50    1.00
   6  -3   1   19.60    1.30
   6  -3   1   18.60    1.30
  -7   3  -1   80.59    3.40
  -7   3  -1   80.59    3.70
   7  -3   1   82.69    3.40
   7  -3   1   81.39    3.80
  -8   3  -1   77.09    3.70
   8  -3   1   81.99    3.80
   8  -3   1   76.69    3.30
  -9   3  -1    0.70    0.30
  -9   3  -1    0.50    0.60
   9  -3   1    0.20    0.50
   9  -3   1    0.10    0.70
 -10   3  -1   35.00    2.20
  10  -3   1   34.70    2.30
 -11   3  -1    5.10    1.10
  11  -3   1    7.00    1.30
 -12   3  -1    5.00    1.10
  12  -3   1    5.10    1.20
 -13   3  -1    1.40    1.00
 -14   3  -1    0.00    1.00
  14  -3   1    0.70    1.10
 -15   3  -1    1.60    1.30
  15  -3   1    0.40    1.40
 -16   3  -1    1.80    1.50
  16  -3   1    4.50    1.80
  16   2  -1    8.10    1.90
 -16  -2   1    9.80    1.90
  15   2  -1    6.90    1.60
 -15  -2   1    3.20    1.20
  14   2  -1   40.30    2.80
 -14  -2   1   39.90    2.80
  13   2  -1    5.80    1.30
 -13  -2   1    6.50    1.20
  12   2  -1    7.30    0.80
  12   2  -1    7.80    1.20
  12   2  -1    7.50    0.80
 -12  -2   1    6.70    1.20
  11   2  -1   51.39    2.30
  11   2  -1   49.20    2.30
  11   2  -1   53.29    2.80
 -11  -2   1   50.59    2.80
  10   2  -1    1.80    0.80
  10   2  -1    1.60    0.50
  10   2  -1    1.50    0.60
 -10  -2   1    2.30    0.70
   9   2  -1   13.70    1.20
   9   2  -1   17.00    1.00
   9   2  -1   15.80    1.00
  -9  -2   1   15.90    1.30
  -9  -2   1   16.70    1.30
   8   2  -1   31.60    1.60
   8   2  -1   30.00    1.60
   8   2  -1   31.10    1.80
  -8  -2   1   31.20    1.70
  -8  -2   1   33.30    1.90
   7   2  -1   10.60    0.90
   7   2  -1   13.50    0.90
   7   2  -1   12.60    0.90
  -7  -2   1   14.20    1.00
  -7  -2   1   11.50    0.90
   6   2  -1    2.90    0.50
   6   2  -1    3.30    0.50
   6   2  -1    2.50    0.40
   6   2  -1    2.10    0.50
  -6  -2   1    3.90    0.60
  -6  -2   1    4.70    0.60
   5   2  -1   51.99    2.40
   5   2  -1   54.19    2.30
   5   2  -1   51.69    2.30
  -5  -2   1   50.89    2.30
  -5  -2   1   51.09    2.40
   4   2  -1  108.39    4.70
   4   2  -1  115.89    4.60
  -4  -2   1  108.29    4.60
  -4  -2   1  112.19    4.60
  -4  -2   1  114.09    4.70
   3   2  -1    4.10    0.50
   3   2  -1    3.40    0.40
  -3  -2   1    4.50    0.40
  -3  -2   1    4.40    0.40
  -3  -2   1    5.10    0.40
  -3  -2   1    4.90    0.40
   2   2  -1  160.78    6.70
   2   2  -1  168.68    6.70
  -2  -2   1  168.88    6.60
  -2  -2   1  169.58    6.70
  -2  -2   1  163.58    6.70
   1   2  -1  276.57   10.70
   1   2  -1  269.17   10.60
   1   2  -1  254.97   10.70
  -1  -2   1  283.07   10.60
  -1  -2   1  262.77   10.70
   0   2  -1  236.98    9.50
   0   2  -1  247.18    9.40
   0  -2   1  246.98    9.40
   0  -2   1  234.48    9.50
   0  -2   1  230.28    9.50
  -1   2  -1 1110.99   43.20
  -1   2  -1 1098.79   43.20
   1  -2   1 1095.39   43.20
  -2   2  -1  251.77   10.10
  -2   2  -1  255.57   10.20
   2  -2   1  262.07   10.20
   2  -2   1  255.07   10.20
   2  -2   1  252.17   10.10
  -3   2  -1   17.30    0.80
  -3   2  -1   17.40    0.90
  -3   2  -1   16.10    0.90
  -3   2  -1   16.90    0.90
   3  -2   1   14.00    0.80
   3  -2   1   14.90    0.90
  -4   2  -1    5.60    0.60
  -4   2  -1    6.50    0.60
  -4   2  -1    5.70    0.40
   4  -2   1    7.20    0.50
   4  -2   1    6.70    0.70
   4  -2   1    8.10    0.60
  -5   2  -1   14.00    1.00
  -5   2  -1   14.60    0.80
  -5   2  -1   14.60    1.00
   5  -2   1   16.70    0.90
   5  -2   1   15.90    1.00
   5  -2   1   15.90    1.00
  -6   2  -1   19.40    0.90
  -6   2  -1   19.20    1.20
  -6   2  -1   18.20    1.20
   6  -2   1   19.70    1.30
   6  -2   1   19.20    1.30
  -7   2  -1   10.70    0.60
  -7   2  -1   13.00    1.00
  -7   2  -1   11.40    1.00
   7  -2   1    9.80    1.00
   7  -2   1   11.70    1.10
  -8   2  -1  103.79    4.30
  -8   2  -1  108.29    4.80
   8  -2   1  107.79    4.30
   8  -2   1  104.49    4.80
  -9   2  -1  126.09    5.50
  -9   2  -1  124.09    5.00
   9  -2   1  121.79    5.00
   9  -2   1  125.69    5.70
 -10   2  -1   12.10    1.30
  10  -2   1   13.10    1.50
 -11   2  -1    5.80    1.00
  11  -2   1    4.40    1.10
 -12   2  -1   13.00    1.60
  12  -2   1   11.30    1.60
 -13   2  -1   31.90    3.00
  13  -2   1   38.20    2.70
 -14   2  -1   22.70    2.20
  14  -2   1   23.00    2.40
 -15   2  -1    3.00    1.30
  15  -2   1    3.10    1.50
 -16   2  -1    1.30    1.40
  16  -2   1   -0.40    1.40
  16   1  -1   -2.30    1.50
 -16  -1   1   -1.10    1.30
  15   1  -1    2.70    2.20
 -15  -1   1    0.30    1.00
  14   1  -1    1.60    1.20
 -14  -1   1    0.60    1.00
  13   1  -1   32.00    2.40
  12   1  -1    4.60    1.10
 -12  -1   1    2.20    0.90
  11   1  -1    8.70    0.60
  11   1  -1    8.60    1.20
 -11  -1   1    8.10    1.10
  10   1  -1    3.00    0.40
 -10  -1   1    3.20    0.80
   9   1  -1   32.80    1.50
   9   1  -1   32.30    1.90
   9   1  -1   30.20    1.50
  -9  -1   1   33.10    1.90
  -9  -1   1   29.70    1.80
   8   1  -1   19.00    1.00
   8   1  -1   18.70    1.00
   8   1  -1   20.00    1.40
  -8  -1   1   18.50    1.40
  -8  -1   1   18.40    1.30
   7   1  -1   97.19    4.20
   7   1  -1   88.79    4.20
   7   1  -1   99.49    4.00
   7   1  -1   93.89    4.00
  -7  -1   1   95.79    4.20
  -7  -1   1  100.59    4.30
   6   1  -1   16.70    1.10
   6   1  -1   17.20    0.90
  -6  -1   1   17.80    1.10
  -6  -1   1   17.90    1.10
   5   1  -1   81.49    3.70
   5   1  -1   84.79    3.50
   5   1  -1   84.69    3.70
   5   1  -1   87.89    3.50
  -5  -1   1   84.59    3.60
  -5  -1   1   87.79    3.70
   4   1  -1  260.67   10.70
   4   1  -1  271.87   10.60
   4   1  -1  265.27   10.70
  -4  -1   1  273.67   10.70
  -4  -1   1  261.47   10.70
   3   1  -1  266.17   10.90
   3   1  -1  277.97   10.90
   3   1  -1  274.67   10.90
  -3  -1   1  276.87   10.90
  -3  -1   1  274.57   10.90
   2   1  -1    5.70    0.40
   2   1  -1    5.70    0.40
  -2  -1   1    5.60    0.40
  -2  -1   1    4.50    0.30
  -2  -1   1    4.50    0.30
  -2  -1   1    5.60    0.40
   1   1  -1 1082.39   41.60
   1   1  -1 1059.59   41.60
  -1  -1   1 1038.80   41.60
  -1  -1   1 1070.59   41.60
   0   1  -1  266.37   10.30
   0   1  -1  254.67   10.30
   0   1  -1  256.77   10.30
   0  -1   1  267.37   10.30
   0  -1   1  266.87   10.30
   0  -1   1  256.17   10.30
  -1   1  -1  625.54   24.50
  -1   1  -1  632.24   24.50
  -1   1  -1  606.44   24.50
   1  -1   1  634.54   24.50
   1  -1   1  615.44   24.50
   1  -1   1  638.24   24.50
  -2   1  -1   46.20    1.90
  -2   1  -1   46.20    2.00
  -2   1  -1   47.90    2.00
   2  -1   1   44.70    1.90
   2  -1   1   47.20    2.00
  -3   1  -1   34.70    1.60
  -3   1  -1   34.50    1.40
  -3   1  -1   32.10    1.50
   3  -1   1   34.80    1.60
   3  -1   1   32.60    1.50
   3  -1   1   34.10    1.40
  -4   1  -1  133.09    5.60
  -4   1  -1  134.09    5.60
  -4   1  -1  135.29    5.40
   4  -1   1  138.19    5.60
   4  -1   1  139.49    5.60
   4  -1   1  134.19    5.40
  -5   1  -1  516.55   20.20
  -5   1  -1  506.05   20.00
  -5   1  -1  502.95   20.20
   5  -1   1  506.25   20.20
   5  -1   1  505.85   20.20
   5  -1   1  514.35   20.00
  -6   1  -1   44.60    1.90
  -6   1  -1   47.40    2.20
  -6   1  -1   43.30    2.10
   6  -1   1   44.70    2.20
   6  -1   1   44.10    1.90
   6  -1   1   42.80    2.10
  -7   1  -1   12.90    0.70
  -7   1  -1   11.20    1.00
  -7   1  -1   11.20    0.90
   7  -1   1   13.90    1.10
   7  -1   1   12.40    1.00
   7  -1   1   12.40    0.70
  -8   1  -1   24.80    1.60
  -8   1  -1   25.60    1.20
   8  -1   1   25.30    1.70
   8  -1   1   25.30    1.20
  -9   1  -1   18.60    1.40
   9  -1   1   17.30    1.60
   9  -1   1   18.10    0.90
 -10   1  -1    5.90    1.00
  10  -1   1    4.90    1.00
 -11   1  -1    1.10    0.80
  11  -1   1   -0.20    0.80
 -12   1  -1    0.40    0.80
  12  -1   1    1.00    1.00
 -13   1  -1    0.20    1.00
  13  -1   1    2.60    1.10
 -14   1  -1    3.50    1.30
  14  -1   1    4.40    1.70
 -15   1  -1    4.60    1.40
  15  -1   1    6.90    1.60
 -16   1  -1    4.70    1.50
  16  -1   1    3.10    1.70
  16   0  -1    4.80    1.70
 -16   0   1    3.60    1.50
  15   0  -1    5.60    1.50
 -15   0   1    3.40    1.30
  14   0  -1    5.00    1.30
 -14   0   1    4.10    1.20
  13   0  -1   23.00    2.20
  12   0  -1    2.70    1.00
 -12   0   1    2.10    0.80
  11   0  -1   15.50    1.60
 -11   0   1   17.60    1.50
  10   0  -1   49.90    2.70
 -10   0   1   51.19    2.70
   9   0  -1   52.09    2.70
  -9   0   1   50.49    2.60
   8   0  -1    0.80    0.20
   8   0  -1    1.00    0.20
   8   0  -1    0.10    0.50
  -8   0   1    1.70    0.60
  -8   0   1    1.90    0.50
   7   0  -1   30.10    1.70
   7   0  -1   28.10    1.70
   7   0  -1   31.00    1.30
   7   0  -1   30.00    1.30
  -7   0   1   30.10    1.80
  -7   0   1   33.00    1.70
   6   0  -1   68.29    2.80
   6   0  -1   69.19    2.80
   6   0  -1   69.99    3.10
   6   0  -1   66.49    3.20
  -6   0   1   69.89    3.10
  -6   0   1   68.49    3.10
   5   0  -1  250.27   10.30
   5   0  -1  251.47   10.00
   5   0  -1  258.47   10.00
   5   0  -1  251.57   10.20
  -5   0   1  254.87   10.30
  -5   0   1  255.67   10.20
   4   0  -1   19.80    1.10
   4   0  -1   19.40    1.00
   4   0  -1   19.60    0.90
   4   0  -1   19.10    0.90
  -4   0   1   19.30    1.00
  -4   0   1   18.40    1.00
   3   0  -1   60.19    2.50
   3   0  -1   58.89    2.40
  -3   0   1   59.19    2.40
  -3   0   1   61.79    2.60
  -3   0   1   60.19    2.60
   2   0  -1    5.60    0.30
   2   0  -1    5.70    0.40
   2   0  -1    5.70    0.40
  -2   0   1    4.60    0.40
  -2   0   1    4.50    0.30
  -2   0   1    5.10    0.30
   1   0  -1   33.80    1.40
   1   0  -1   34.00    1.40
   1   0  -1   33.20    1.40
  -1   0   1   33.20    1.40
  -1   0   1   34.50    1.40
   0   0  -1   41.20    1.70
   0   0   1   41.30    1.70
  -1   0  -1  430.26   16.90
   1   0   1  433.66   16.90
  -2   0  -1   28.40    1.30
  -2   0  -1   29.40    1.20
  -2   0  -1   29.00    1.30
   2   0   1   28.90    1.30
   2   0   1   30.30    1.30
   2   0   1   29.00    1.20
  -3   0  -1  851.21   33.80
  -3   0  -1  856.01   33.90
  -3   0  -1  933.21   34.00
   3   0   1  827.92   33.90
   3   0   1  848.42   33.80
  -4   0  -1   77.99    3.10
  -4   0  -1   78.09    3.20
  -4   0  -1   77.39    3.20
   4   0   1   73.09    3.10
   4   0   1   75.19    3.20
   4   0   1   72.59    3.20
  -5   0  -1  174.88    6.90
  -5   0  -1  171.48    7.00
  -5   0  -1  171.88    6.80
   5   0   1  167.18    6.80
   5   0   1  171.78    7.00
   5   0   1  162.08    6.90
  -6   0  -1  459.05   18.00
  -6   0  -1  456.35   18.20
  -6   0  -1  464.55   18.20
   6   0   1  464.45   18.00
   6   0   1  459.25   18.20
   6   0   1  434.96   18.20
  -7   0  -1   71.99    2.90
  -7   0  -1   68.49    3.20
  -7   0  -1   73.29    3.20
   7   0   1   71.89    3.10
   7   0   1   70.69    3.20
   7   0   1   60.69    3.10
  -8   0  -1  226.48    9.70
  -8   0  -1  235.98    9.80
   8   0   1  242.58    9.90
   8   0   1  241.78    9.40
  -9   0  -1  191.48    8.10
   9   0   1  190.48    7.70
   9   0   1  188.58    8.20
   9   0   1  193.78    7.70
 -10   0  -1   38.10    2.20
  10   0   1   36.00    1.60
  10   0   1   36.70    2.30
 -11   0  -1   -0.40    0.70
  11   0   1   -0.60    0.70
 -12   0  -1   24.70    2.00
  12   0   1   28.60    2.20
 -13   0  -1   18.00    1.90
  13   0   1   18.80    2.00
 -14   0  -1    9.40    1.50
  14   0   1    7.60    1.50
 -15   0  -1    1.90    1.30
  15   0   1    3.60    1.40
 -16   0  -1    1.10    1.30
  16   0   1   -0.20    1.50
  16  -1  -1   -0.60    1.70
 -16   1   1   -1.70    1.30
  15  -1  -1    1.00    1.30
 -15   1   1    2.10    1.20
  14  -1  -1    0.70    2.00
 -14   1   1    1.00    1.10
  13  -1  -1   -0.30    1.00
  12  -1  -1   38.80    2.70
 -12   1   1   41.50    2.60
  11  -1  -1   -0.20    0.70
 -11   1   1    1.00    0.70
  10  -1  -1   33.30    2.20
 -10   1   1   32.90    2.10
   9  -1  -1   60.99    3.80
  -9   1   1   57.39    2.90
   8  -1  -1   36.70    2.10
  -8   1   1   37.10    2.30
  -8   1   1   40.30    2.10
   7  -1  -1  386.46   15.40
   7  -1  -1  362.36   15.30
  -7   1   1  388.66   15.30
  -7   1   1  378.16   15.30
   6  -1  -1   33.50    1.80
  -6   1   1   32.10    1.70
  -6   1   1   31.80    1.70
   5  -1  -1  224.58    9.10
   5  -1  -1  236.48    9.20
  -5   1   1  215.98    9.20
  -5   1   1  225.98    9.20
   4  -1  -1  398.76   15.60
   4  -1  -1  379.66   15.50
  -4   1   1  395.76   15.50
  -4   1   1  384.06   15.50
   3  -1  -1  356.46   14.10
   3  -1  -1  354.26   14.10
  -3   1   1  358.56   14.10
  -3   1   1  352.56   14.10
   2  -1  -1 1088.39   40.20
   2  -1  -1  990.70   40.20
  -2   1   1  997.60   40.20
   1  -1  -1   64.29    2.60
   1  -1  -1   68.29    2.60
   1  -1  -1   66.99    2.70
  -1   1   1   62.39    2.70
  -1   1   1   65.89    2.60
  -1   1   1   64.19    2.60
   0  -1  -1   12.70    0.60
   0  -1  -1   13.10    0.50
  -1  -1  -1    4.10    0.20
  -1  -1  -1    4.00    0.30
  -1  -1  -1    3.90    0.20
  -2  -1  -1  205.68    8.00
  -2  -1  -1  201.98    8.00
  -2  -1  -1  202.28    8.00
   2   1   1  197.68    8.00
   2   1   1  208.18    8.00
   2   1   1  199.28    8.00
  -3  -1  -1   19.20    0.90
  -3  -1  -1   22.10    1.00
  -3  -1  -1   18.00    0.90
   3   1   1   20.40    1.00
   3   1   1   19.50    0.90
   3   1   1   18.90    0.90
  -4  -1  -1    0.40    0.20
  -4  -1  -1    0.40    0.20
  -4  -1  -1    0.50    0.20
   4   1   1    0.20    0.20
   4   1   1    0.00    0.20
   4   1   1    0.30    0.20
  -5  -1  -1   20.20    1.10
  -5  -1  -1   21.30    1.10
  -5  -1  -1   20.80    1.10
   5   1   1   20.60    1.00
   5   1   1   19.90    1.10
   5   1   1   20.30    1.10
  -6  -1  -1   12.10    0.90
  -6  -1  -1   13.30    0.90
  -6  -1  -1   14.80    0.80
   6   1   1   12.50    0.70
   6   1   1   12.50    0.90
   6   1   1   12.60    0.90
  -7  -1  -1    0.40    0.40
  -7  -1  -1    0.00    0.40
   7   1   1    0.60    0.40
   7   1   1    0.30    0.30
   7   1   1    0.20    0.40
  -8  -1  -1   10.70    1.00
  -8  -1  -1   11.00    1.00
   8   1   1   12.10    1.10
   8   1   1   10.70    0.70
   8   1   1   10.70    0.80
  -9  -1  -1   24.40    1.60
  -9  -1  -1   24.40    1.50
   9   1   1   23.80    1.20
   9   1   1   23.80    1.60
   9   1   1   24.60    1.20
 -10  -1  -1   15.50    1.40
  10   1   1   16.80    1.00
  10   1   1   15.80    1.60
  10   1   1   14.90    1.00
 -11  -1  -1    8.80    1.20
  11   1   1    7.50    0.80
  11   1   1    7.90    1.20
  11   1   1    8.60    0.70
 -12  -1  -1    5.10    1.10
  12   1   1    3.30    0.50
  12   1   1    3.50    1.00
 -13  -1  -1   16.30    1.80
  13   1   1   17.20    1.90
 -14  -1  -1    2.50    1.10
  14   1   1    0.30    1.20
 -15  -1  -1    6.40    1.50
 -16  -1  -1    4.80    1.50
  16   1   1    3.40    1.70
  16  -2  -1   28.30    3.00
 -16   2   1   27.50    2.70
  15  -2  -1    8.30    1.80
 -15   2   1   10.10    1.70
  14  -2  -1    5.70    1.50
 -14   2   1    4.60    1.30
  13  -2  -1    4.90    1.30
 -13   2   1    5.00    1.40
  12  -2  -1    7.70    1.40
 -12   2   1    6.80    1.20
  11  -2  -1    0.70    0.80
 -11   2   1    2.60    0.80
  10  -2  -1   42.60    2.60
 -10   2   1   48.10    2.60
   9  -2  -1    1.60    0.70
  -9   2   1    1.40    0.50
   8  -2  -1   33.80    2.10
   7  -2  -1    8.50    0.90
   7  -2  -1   10.10    1.10
  -7   2   1    9.70    1.10
  -7   2   1    7.40    0.80
   6  -2  -1   13.20    1.10
   6  -2  -1   13.90    1.00
  -6   2   1   12.80    0.90
   5  -2  -1   15.20    1.10
   5  -2  -1   15.00    1.00
  -5   2   1   15.00    1.00
  -5   2   1   15.30    0.90
   4  -2  -1   34.70    1.70
   4  -2  -1   35.90    1.70
  -4   2   1   33.90    1.70
  -4   2   1   35.90    1.70
   3  -2  -1  158.98    6.50
   3  -2  -1  157.38    6.50
  -3   2   1  169.78    6.30
  -3   2   1  155.38    6.30
  -3   2   1  162.48    6.50
  -3   2   1  153.28    6.50
   2  -2  -1   76.39    3.30
   2  -2  -1   79.39    3.40
  -2   2   1   80.09    3.30
  -2   2   1   85.19    3.30
  -2   2   1   78.89    3.40
  -2   2   1   84.59    3.40
  -1   2   1   15.30    0.80
  -1   2   1   15.80    0.70
  -1   2   1   14.90    0.70
  -1   2   1   15.00    0.70
   0  -2  -1   46.50    1.80
   0  -2  -1   45.50    1.80
   0  -2  -1   47.40    1.80
   0   2   1   39.70    1.80
   0   2   1   39.70    1.80
   0   2   1   40.60    1.80
  -1  -2  -1 2855.41  114.39
   1   2   1 3034.20  118.59
   1   2   1 2876.31  114.39
  -2  -2  -1  332.17   13.30
  -2  -2  -1  338.47   13.40
  -2  -2  -1  342.47   13.40
   2   2   1  333.27   13.40
   2   2   1  353.86   13.30
   2   2   1  335.57   13.50
  -3  -2  -1   20.80    1.00
  -3  -2  -1   23.80    1.10
   3   2   1   23.20    1.10
   3   2   1   23.00    1.10
   3   2   1   22.10    1.00
  -4  -2  -1   18.10    0.90
  -4  -2  -1   15.70    0.90
   4   2   1   13.60    0.80
   4   2   1   14.30    0.80
   4   2   1   14.50    0.80
  -5  -2  -1  105.29    4.30
  -5  -2  -1  105.39    4.20
   5   2   1   97.49    4.30
   5   2   1  100.69    4.30
   5   2   1  103.59    4.30
  -6  -2  -1  159.18    6.60
  -6  -2  -1  162.18    6.50
   6   2   1  157.28    6.50
   6   2   1  154.48    6.60
   6   2   1  157.58    6.50
   6   2   1  158.88    6.50
  -7  -2  -1  118.59    4.90
  -7  -2  -1  111.29    4.70
   7   2   1  110.29    4.70
   7   2   1  117.59    4.80
   7   2   1  113.59    4.70
   7   2   1  106.49    4.80
  -8  -2  -1    8.30    0.80
  -8  -2  -1    8.10    0.90
   8   2   1    9.10    0.90
   8   2   1    9.30    0.70
   8   2   1    8.60    0.70
  -9  -2  -1   17.10    1.30
  -9  -2  -1   17.20    1.30
   9   2   1   19.00    1.10
   9   2   1   18.90    1.40
   9   2   1   18.50    1.10
 -10  -2  -1    8.30    1.10
  10   2   1    7.80    0.80
  10   2   1    7.10    1.00
  10   2   1    8.20    0.80
 -11  -2  -1   -0.50    0.60
  11   2   1   -0.50    0.50
  11   2   1   -0.20    0.70
  11   2   1    0.00    0.40
 -12  -2  -1    2.40    0.90
  12   2   1    2.80    0.90
  12   2   1    2.60    0.60
  12   2   1    1.90    0.60
 -13  -2  -1   -0.10    0.90
  13   2   1    0.80    0.90
  13   2   1    0.50    0.50
  13   2   1   -0.20    0.60
 -14  -2  -1    2.60    1.10
  14   2   1    0.20    1.20
 -15  -2  -1   -1.10    1.20
  15   2   1   -0.20    1.40
 -16  -2  -1   -0.10    1.30
  16   2   1    1.20    1.60
  16  -3  -1   -2.10    1.70
 -16   3   1    1.50    1.60
  15  -3  -1    2.00    1.40
 -15   3   1    1.90    1.20
  14  -3  -1   22.70    2.40
 -14   3   1   23.70    2.20
  13  -3  -1   35.20    2.90
 -13   3   1   37.50    2.60
  12  -3  -1   32.50    2.50
 -12   3   1   31.70    2.20
  11  -3  -1   33.10    2.30
 -11   3   1   36.90    2.30
  10  -3  -1   -0.40    0.70
 -10   3   1    0.60    0.70
   9  -3  -1  113.69    5.30
  -9   3   1  114.79    5.20
   8  -3  -1   75.39    3.80
  -8   3   1   77.29    3.60
   7  -3  -1  115.89    5.20
  -7   3   1  113.69    5.00
   6  -3  -1   32.30    1.80
   6  -3  -1   32.40    1.70
  -6   3   1   30.00    1.70
  -6   3   1   32.20    1.70
   5  -3  -1   82.49    3.70
   5  -3  -1   85.49    3.80
  -5   3   1   84.49    3.70
  -5   3   1   86.29    3.40
  -5   3   1   82.49    3.70
   4  -3  -1  134.69    5.50
   4  -3  -1  124.19    5.30
  -4   3   1  127.79    5.40
  -4   3   1  129.09    5.10
  -4   3   1  126.69    5.40
   3  -3  -1   14.40    0.90
  -3   3   1   14.50    0.70
  -3   3   1   14.90    0.90
  -3   3   1   14.20    0.90
  -3   3   1   15.20    0.90
   2  -3  -1    2.30    0.30
   2  -3  -1    1.80    0.40
  -2   3   1    2.00    0.30
  -2   3   1    2.00    0.30
  -2   3   1    2.80    0.40
  -2   3   1    2.60    0.40
   1  -3  -1   41.90    1.90
   1  -3  -1   43.20    1.90
   1  -3  -1   42.30    1.80
  -1   3   1   42.50    1.90
  -1   3   1   43.10    1.80
  -1   3   1   40.90    1.80
   0  -3  -1   34.50    1.50
   0  -3  -1   34.70    1.50
   0   3   1   33.40    1.50
   0   3   1   32.50    1.60
   0   3   1   34.50    1.60
   0   3   1   34.80    1.50
  -1  -3  -1    7.00    0.50
  -1  -3  -1    6.50    0.40
   1   3   1    7.60    0.50
   1   3   1    6.90    0.50
   1   3   1    7.20    0.40
   1   3   1    7.20    0.50
  -2  -3  -1  452.35   17.40
   2   3   1  427.06   17.40
   2   3   1  434.56   17.40
   2   3   1  446.46   17.50
  -3  -3  -1  278.97   10.90
  -3  -3  -1  284.37   11.10
   3   3   1  273.47   11.10
   3   3   1  277.47   11.10
   3   3   1  271.97   11.10
   3   3   1  277.27   10.90
  -4  -3  -1   12.80    0.80
  -4  -3  -1   11.80    0.60
   4   3   1   11.90    0.80
   4   3   1   13.00    0.80
   4   3   1   12.90    0.60
   4   3   1   13.00    0.80
  -5  -3  -1   11.00    0.80
  -5  -3  -1   10.20    0.60
   5   3   1    9.70    0.60
   5   3   1   11.50    0.80
   5   3   1    9.90    0.70
   5   3   1   10.00    0.70
  -6  -3  -1   17.50    1.00
  -6  -3  -1   18.60    1.10
   6   3   1   16.80    1.00
   6   3   1   15.60    1.00
   6   3   1   17.60    1.00
   6   3   1   15.40    1.00
  -7  -3  -1    7.10    0.80
  -7  -3  -1    6.30    0.70
   7   3   1    6.30    0.70
   7   3   1    7.50    0.90
   7   3   1    6.50    0.70
   7   3   1    5.90    0.70
  -8  -3  -1   65.89    3.00
  -8  -3  -1   69.29    3.60
   8   3   1   67.29    3.10
   8   3   1   69.69    3.10
   8   3   1   66.89    3.00
  -9  -3  -1   32.90    2.00
  -9  -3  -1   36.00    2.00
   9   3   1   34.10    1.80
   9   3   1   36.20    1.80
   9   3   1   34.90    1.90
 -10  -3  -1   41.50    2.30
 -10  -3  -1   48.90    2.60
  10   3   1   47.30    2.30
  10   3   1   49.70    2.50
  10   3   1   48.20    2.30
 -11  -3  -1   37.90    2.30
  11   3   1   39.20    2.30
  11   3   1   35.80    2.00
  11   3   1   36.90    2.00
 -12  -3  -1    5.60    1.10
  12   3   1    4.90    0.80
  12   3   1    4.70    0.80
  12   3   1    5.60    1.10
  13   3   1   48.50    2.80
  13   3   1   40.50    2.30
  13   3   1   43.90    2.20
 -14  -3  -1   36.10    2.50
  14   3   1   27.70    1.70
  14   3   1   33.70    2.60
 -15  -3  -1   13.50    1.90
  15   3   1   18.20    2.10
 -16  -3  -1    4.70    1.70
  15  -4  -1    1.30    1.50
 -15   4   1   -0.80    1.20
  14  -4  -1    0.60    1.30
 -14   4   1    0.00    1.00
  13  -4  -1    1.20    1.10
 -13   4   1   -0.20    0.90
  12  -4  -1    0.10    0.80
 -12   4   1   -0.10    0.80
  11  -4  -1   -0.80    0.90
 -11   4   1   -0.40    0.70
  10  -4  -1    0.00    0.80
 -10   4   1   -0.40    0.60
   9  -4  -1   66.89    3.60
  -9   4   1   73.49    3.50
   8  -4  -1    4.70    1.00
  -8   4   1    5.80    0.90
   7  -4  -1    9.90    1.20
  -7   4   1    9.80    1.00
  -7   4   1    9.50    0.50
  -7   4   1    9.80    0.60
   6  -4  -1   19.70    1.40
   6  -4  -1   17.30    1.20
  -6   4   1   18.60    1.30
  -6   4   1   20.10    0.90
  -6   4   1   21.90    1.30
   5  -4  -1  185.78    7.70
  -5   4   1  189.28    7.60
  -5   4   1  175.98    7.60
  -5   4   1  180.38    7.30
  -5   4   1  179.38    7.50
   4  -4  -1  211.08    8.60
   4  -4  -1  219.38    8.90
  -4   4   1  216.08    8.60
  -4   4   1  206.98    8.80
  -4   4   1  216.18    8.80
  -4   4   1  223.58    8.80
   3  -4  -1  260.47   10.60
   3  -4  -1  267.37   10.80
  -3   4   1  266.57   10.60
  -3   4   1  270.37   10.70
  -3   4   1  261.47   10.70
  -3   4   1  267.87   10.70
   2  -4  -1   92.89    4.00
   2  -4  -1   88.29    3.90
   2  -4  -1   91.19    3.90
  -2   4   1   93.59    3.90
  -2   4   1   96.19    3.90
  -2   4   1   95.59    3.90
   1  -4  -1   37.80    1.70
   1  -4  -1   35.60    1.70
   1  -4  -1   37.70    1.70
  -1   4   1   35.20    1.70
  -1   4   1   36.40    1.70
  -1   4   1   37.60    1.70
   0  -4  -1  435.06   17.50
   0  -4  -1  452.25   17.40
   0  -4  -1  446.26   17.50
   0   4   1  441.86   17.40
   0   4   1  431.96   17.40
   0   4   1  437.96   17.50
  -1  -4  -1  183.08    7.40
  -1  -4  -1  192.18    7.60
   1   4   1  191.18    7.40
   1   4   1  182.58    7.60
   1   4   1  186.88    7.50
   1   4   1  187.38    7.60
  -2  -4  -1  175.88    7.10
   2   4   1  175.88    7.20
   2   4   1  172.38    7.10
   2   4   1  172.98    7.20
   3   4   1    2.60    0.50
   3   4   1    2.70    0.50
   3   4   1    3.00    0.40
  -4  -4  -1   39.30    1.80
   4   4   1   39.50    1.90
   4   4   1   35.40    1.80
   4   4   1   37.30    1.90
  -5  -4  -1   96.99    4.10
  -5  -4  -1   98.69    3.80
   5   4   1   95.79    4.10
   5   4   1   91.19    3.80
   5   4   1   88.99    4.10
  -6  -4  -1   37.20    1.70
  -6  -4  -1   41.60    2.00
   6   4   1   36.20    1.90
   6   4   1   39.70    2.00
   6   4   1   35.20    1.90
  -7  -4  -1   49.30    2.40
  -7  -4  -1   44.00    2.10
   7   4   1   47.80    2.30
   7   4   1   46.90    2.10
   7   4   1   45.70    2.30
  -8  -4  -1   46.50    2.20
  -8  -4  -1   47.10    2.50
   8   4   1   49.10    2.30
   8   4   1   51.59    2.40
  -9  -4  -1   11.50    1.00
  -9  -4  -1   13.60    1.20
   9   4   1   12.30    1.10
   9   4   1   12.30    1.00
   9   4   1    9.30    1.00
 -10  -4  -1    1.40    0.70
 -10  -4  -1    3.70    0.90
  10   4   1    2.50    0.70
  10   4   1    3.10    0.70
  10   4   1    3.00    0.80
 -11  -4  -1    0.50    0.70
 -11  -4  -1   -0.10    0.70
  11   4   1    0.40    0.70
  11   4   1    0.80    0.70
  11   4   1    0.10    0.70
 -12  -4  -1    0.70    0.80
  12   4   1    1.00    1.00
  12   4   1    1.50    0.70
 -13  -4  -1   13.40    1.80
  13   4   1   16.60    1.80
  13   4   1   17.70    1.80
  13   4   1   13.10    1.30
 -14  -4  -1    2.50    1.10
  14   4   1    1.60    1.20
  14   4   1    0.30    0.80
 -15  -4  -1    5.10    1.50
  15   4   1    4.10    1.50
  15   4   1    2.30    1.10
 -16  -4  -1    1.20    1.50
  16   4   1   -2.20    1.50
  15  -5  -1    7.00    1.80
 -15   5   1    7.90    1.70
  14  -5  -1    1.20    1.40
 -14   5   1   -1.80    1.00
  13  -5  -1    8.80    1.70
 -13   5   1   11.80    1.70
  11  -5  -1    8.90    1.40
 -11   5   1   10.80    1.30
  10  -5  -1    3.90    1.10
 -10   5   1    5.70    1.10
   9  -5  -1    5.20    1.10
  -9   5   1    3.00    0.80
   8  -5  -1   71.99    3.60
  -8   5   1   66.99    2.80
  -8   5   1   68.29    2.90
  -8   5   1   68.99    3.40
   7  -5  -1    7.10    1.00
  -7   5   1    6.50    0.90
  -7   5   1    6.70    0.60
  -7   5   1    5.80    0.60
   6  -5  -1   26.90    1.70
  -6   5   1   22.40    1.50
  -6   5   1   25.50    1.20
   5  -5  -1   15.80    1.30
  -5   5   1   16.70    1.20
  -5   5   1   15.90    0.90
  -5   5   1   14.60    1.10
  -5   5   1   15.10    1.10
   4  -5  -1    0.80    0.30
   4  -5  -1    1.10    0.50
  -4   5   1    1.00    0.30
  -4   5   1    1.20    0.50
  -4   5   1    0.40    0.40
   3  -5  -1   21.20    1.10
   3  -5  -1   19.20    1.20
  -3   5   1   20.40    1.10
  -3   5   1   20.20    1.10
  -3   5   1   19.30    1.10
   2  -5  -1  161.28    6.70
   2  -5  -1  166.18    6.70
   2  -5  -1  157.88    6.60
  -2   5   1  163.68    6.60
  -2   5   1  160.38    6.60
  -2   5   1  158.08    6.60
   1  -5  -1   10.30    0.70
   1  -5  -1   10.10    0.70
   1  -5  -1    9.10    0.70
  -1   5   1   10.40    0.80
  -1   5   1   10.00    0.70
  -1   5   1   10.10    0.70
   0  -5  -1   10.10    0.70
   0  -5  -1    9.40    0.70
   0   5   1    8.60    0.60
   0   5   1    9.20    0.60
   0   5   1    7.90    0.70
  -1  -5  -1    4.10    0.40
  -1  -5  -1    5.00    0.60
  -1  -5  -1    4.60    0.60
   1   5   1    4.60    0.40
   1   5   1    5.00    0.60
   1   5   1    4.80    0.50
  -2  -5  -1   20.50    1.10
   2   5   1   19.90    1.20
   2   5   1   19.70    1.10
   2   5   1   19.40    1.20
  -3  -5  -1    1.80    0.40
   3   5   1    1.70    0.50
   3   5   1    1.50    0.50
   3   5   1    1.70    0.30
  -4  -5  -1  107.09    4.40
   4   5   1   99.69    4.50
   4   5   1   99.29    4.40
  -5  -5  -1  253.97   10.30
   5   5   1  263.17   10.40
   5   5   1  237.48   10.20
  -6  -5  -1  163.08    6.70
  -6  -5  -1  155.08    6.30
   6   5   1  166.78    6.80
   6   5   1  154.68    6.70
  -7  -5  -1  102.19    4.80
  -7  -5  -1  100.99    4.10
   7   5   1   95.89    4.40
   7   5   1  102.89    4.50
  -8  -5  -1  109.29    4.60
  -8  -5  -1  115.09    5.00
   8   5   1  113.09    4.90
   8   5   1  105.09    4.90
   8   5   1  112.79    4.60
  -9  -5  -1   60.49    2.90
  -9  -5  -1   65.19    3.30
   9   5   1   67.69    3.20
   9   5   1   68.59    3.00
 -10  -5  -1   36.70    1.90
 -10  -5  -1   42.20    2.40
  10   5   1   37.30    2.00
  10   5   1   38.50    2.10
 -11  -5  -1   38.50    2.50
 -11  -5  -1   33.40    2.00
  11   5   1   42.40    2.20
  11   5   1   43.00    2.30
 -12  -5  -1   19.40    1.90
 -12  -5  -1   15.80    1.60
  12   5   1   20.20    1.60
 -13  -5  -1    7.10    1.40
  13   5   1    8.40    1.30
  13   5   1    7.20    1.60
 -14  -5  -1   12.20    1.80
  14   5   1   15.60    1.60
  14   5   1   14.50    1.60
 -15  -5  -1    5.90    1.70
  15   5   1    5.50    1.50
  15  -6  -1    2.00    1.50
 -15   6   1    0.90    1.30
  14  -6  -1    1.60    1.50
 -14   6   1   -0.20    1.20
  13  -6  -1   29.90    2.70
 -13   6   1   29.70    2.40
  12  -6  -1   22.10    2.20
 -12   6   1   28.30    2.20
  11  -6  -1   22.20    2.20
 -11   6   1   25.50    2.00
  10  -6  -1   23.50    2.10
 -10   6   1   23.50    1.90
   9  -6  -1    6.50    1.20
  -9   6   1    7.40    1.10
  -9   6   1    6.80    0.60
   8  -6  -1    6.00    1.20
  -8   6   1    4.10    0.60
  -8   6   1    4.70    0.50
  -8   6   1    5.50    1.00
   7  -6  -1  178.78    7.80
  -7   6   1  170.78    7.30
  -7   6   1  180.68    7.60
  -7   6   1  180.78    7.20
   6  -6  -1   25.40    1.80
  -6   6   1   26.00    1.60
  -6   6   1   23.40    1.30
   5  -6  -1   50.59    2.60
  -5   6   1   45.80    2.40
  -5   6   1   46.10    2.20
   4  -6  -1  150.78    6.50
   4  -6  -1  160.48    6.70
  -4   6   1  158.88    6.40
  -4   6   1  151.88    6.50
  -4   6   1  153.88    6.60
  -4   6   1  156.08    6.60
   3  -6  -1   49.60    2.50
   3  -6  -1   56.19    2.60
   3  -6  -1   53.99    2.50
  -3   6   1   55.49    2.50
  -3   6   1   49.00    2.50
  -3   6   1   53.39    2.50
   2  -6  -1   46.70    2.30
   2  -6  -1   47.60    2.30
   2  -6  -1   47.40    2.30
  -2   6   1   47.00    2.20
  -2   6   1   47.10    2.30
  -2   6   1   44.10    2.20
   1  -6  -1  193.28    8.00
   1  -6  -1  201.48    8.00
   1  -6  -1  191.38    8.10
  -1   6   1  193.88    8.10
  -1   6   1  195.08    7.90
   0  -6  -1  598.74   23.30
   0  -6  -1  551.94   23.50
   0  -6  -1  599.84   23.40
   0   6   1  596.44   23.50
   0   6   1  597.14   23.50
   0   6   1  594.84   23.20
  -1  -6  -1  316.07   12.10
  -1  -6  -1  278.87   12.50
  -1  -6  -1  315.47   11.90
   1   6   1  284.87   12.30
   1   6   1  301.87   12.20
  -2  -6  -1   68.29    2.70
  -2  -6  -1   67.09    3.10
   2   6   1   70.89    2.70
   2   6   1   66.29    3.20
   2   6   1   65.19    3.10
  -3  -6  -1   18.80    1.20
   3   6   1   18.50    1.10
   3   6   1   20.70    1.30
   3   6   1   17.50    1.30
  -4  -6  -1   27.90    1.50
   4   6   1   25.70    1.60
   4   6   1   25.80    1.60
   4   6   1   24.00    1.40
  -5  -6  -1   73.29    3.30
   5   6   1   71.09    3.30
   5   6   1   66.89    3.30
   6   6   1   53.49    2.70
  -7  -6  -1   40.00    2.10
   7   6   1   36.70    2.10
  -8  -6  -1    6.80    1.00
  -8  -6  -1    4.50    0.50
  -8  -6  -1    6.30    0.70
   8   6   1    5.60    1.00
  -9  -6  -1    3.20    0.90
  -9  -6  -1    3.70    0.50
  -9  -6  -1    3.30    0.50
   9   6   1    2.30    0.80
 -10  -6  -1    0.30    0.70
 -10  -6  -1    0.60    0.50
 -10  -6  -1    0.50    0.50
  10   6   1   -0.60    0.70
 -11  -6  -1    0.10    0.60
 -11  -6  -1    0.30    0.80
 -11  -6  -1    0.80    0.60
  11   6   1    0.30    0.80
 -12  -6  -1    1.30    1.10
 -12  -6  -1    1.50    0.70
  12   6   1    1.60    0.80
 -13  -6  -1    0.60    1.00
 -13  -6  -1    2.80    1.20
  13   6   1    1.90    1.00
 -14  -6  -1    6.20    1.20
 -14  -6  -1    7.40    1.50
  14   6   1    8.60    1.40
 -15  -6  -1    9.00    1.60
 -15  -6  -1    9.60    1.80
  15   6   1    7.80    1.50
  14  -7  -1    0.60    1.40
 -14   7   1    1.10    1.30
  13  -7  -1   11.20    1.70
 -13   7   1    9.00    1.60
  12  -7  -1    3.00    1.30
 -12   7   1    2.70    1.20
  11  -7  -1   -1.60    0.90
 -11   7   1   -0.30    0.90
  10  -7  -1    0.70    1.00
 -10   7   1    0.90    0.80
   9  -7  -1    2.50    1.10
  -9   7   1    3.40    0.90
  -9   7   1    3.10    0.50
  -9   7   1    3.10    0.60
   8  -7  -1   20.80    1.90
  -8   7   1   18.70    1.60
  -8   7   1   17.30    1.20
  -8   7   1   19.70    1.10
   7  -7  -1   21.60    1.80
  -7   7   1   19.70    1.60
  -7   7   1   19.70    1.30
  -7   7   1   20.50    1.20
   6  -7  -1    1.90    0.80
  -6   7   1    3.30    0.80
  -6   7   1    2.40    0.50
   5  -7  -1    4.20    1.00
  -5   7   1    4.70    0.70
  -5   7   1    3.60    0.80
   4  -7  -1   19.20    1.50
  -4   7   1   22.20    1.30
  -4   7   1   19.50    1.40
   3  -7  -1   46.90    2.40
   3  -7  -1   51.09    2.40
   3  -7  -1   46.50    2.40
  -3   7   1   40.80    2.30
  -3   7   1   49.90    2.30
   2  -7  -1  108.59    4.40
   2  -7  -1   94.79    4.40
   2  -7  -1   99.29    4.40
  -2   7   1   99.29    4.40
  -2   7   1   96.29    4.30
   1  -7  -1   16.20    1.10
   1  -7  -1   15.60    1.20
   1  -7  -1   17.10    1.20
  -1   7   1   17.40    1.20
  -1   7   1   15.80    1.00
  -1   7   1   15.90    1.10
   0  -7  -1   19.40    1.10
   0  -7  -1   20.60    1.30
   0  -7  -1   19.70    1.30
   0   7   1   17.90    1.00
   0   7   1   22.20    1.40
   0   7   1   18.90    1.20
  -1  -7  -1  189.48    7.60
  -1  -7  -1  176.48    7.80
  -1  -7  -1  188.08    7.70
   1   7   1  179.38    7.70
   1   7   1  193.28    7.80
   1   7   1  184.78    7.40
  -2  -7  -1  218.58    9.10
  -2  -7  -1  215.38    8.80
   2   7   1  231.58    8.70
   2   7   1  221.18    9.30
   2   7   1  222.18    9.20
   2   7   1  215.68    9.10
  -3  -7  -1  154.78    6.60
   3   7   1  156.08    6.70
  -4  -7  -1   39.60    2.10
   4   7   1   40.20    2.20
  -5  -7  -1   54.09    2.70
   5   7   1   55.69    3.30
  -6  -7  -1  203.38    8.40
   6   7   1  194.28    8.50
  -7  -7  -1   87.49    4.20
   7   7   1   92.79    4.30
  -8  -7  -1  107.39    5.00
   8   7   1  112.79    5.10
  -9  -7  -1   67.89    3.40
   9   7   1   63.49    3.40
 -10  -7  -1   10.10    1.40
  10   7   1    7.40    1.30
 -11  -7  -1    0.10    0.50
 -11  -7  -1    1.40    0.90
  11   7   1    0.20    0.90
 -12  -7  -1    1.30    0.70
 -12  -7  -1    1.50    0.60
 -12  -7  -1    0.90    1.00
  12   7   1    2.30    1.10
 -13  -7  -1   -0.40    1.10
 -13  -7  -1   -1.10    0.70
  13   7   1   -1.50    1.00
 -14  -7  -1    0.20    1.40
  14   7   1    0.90    1.30
 -15  -7  -1    2.20    1.80
  15   7   1   -1.30    1.50
  14  -8  -1    7.30    2.20
 -14   8   1    7.30    2.00
  13  -8  -1    0.20    1.50
 -13   8   1   -0.10    1.40
  12  -8  -1   11.70    1.80
 -12   8   1   11.80    1.70
  11  -8  -1   20.20    2.20
 -11   8   1   22.30    2.00
  10  -8  -1   10.70    2.10
 -10   8   1    8.60    0.80
 -10   8   1    8.80    0.90
   9  -8  -1   17.40    1.90
  -9   8   1   16.20    1.10
  -9   8   1   15.40    1.60
  -9   8   1   13.70    1.20
   8  -8  -1   57.89    3.30
  -8   8   1   57.39    3.20
  -8   8   1   59.79    2.70
  -8   8   1   51.89    2.80
   7  -8  -1  126.59    5.70
  -7   8   1  106.59    5.20
  -7   8   1  124.79    5.20
  -7   8   1  121.29    5.50
   6  -8  -1  181.38    7.80
  -6   8   1  183.48    7.40
  -6   8   1  177.38    7.70
  -6   8   1  164.48    7.40
   5  -8  -1   38.10    2.30
  -5   8   1   36.00    2.30
  -5   8   1   41.00    2.10
   4  -8  -1   56.59    3.00
  -4   8   1   58.39    2.80
  -4   8   1   56.89    2.90
   3  -8  -1   68.89    3.60
   3  -8  -1   71.59    3.50
   3  -8  -1   77.69    3.50
  -3   8   1   71.79    3.40
  -3   8   1   75.89    3.40
   2  -8  -1   10.40    1.00
   2  -8  -1   10.40    1.00
  -2   8   1    8.80    1.00
   1  -8  -1    1.40    0.50
  -1   8   1    1.60    0.40
  -1   8   1    1.20    0.50
   0  -8  -1    5.90    0.70
   0   8   1    6.80    0.60
   0   8   1    6.20    0.90
  -1  -8  -1   15.20    0.90
   1   8   1   16.10    1.60
   1   8   1   14.80    0.90
  -2  -8  -1    6.50    0.50
  -2  -8  -1    9.00    1.10
   2   8   1    6.50    0.50
   2   8   1    6.30    0.90
  -3  -8  -1    5.20    0.80
   3   8   1    5.70    0.90
  -4  -8  -1    7.30    1.00
   4   8   1    6.50    1.00
  -5  -8  -1    6.30    1.00
   5   8   1    5.90    1.00
  -6  -8  -1    6.90    1.10
   6   8   1    7.30    1.10
  -7  -8  -1   12.00    1.30
   7   8   1   11.10    1.40
  -8  -8  -1    4.30    1.00
   8   8   1    1.80    0.80
  -9  -8  -1    5.10    1.10
   9   8   1    3.50    1.10
 -10  -8  -1   24.50    2.10
  10   8   1   27.60    2.00
 -11  -8  -1    7.80    1.40
  11   8   1    9.40    1.40
 -12  -8  -1    9.40    1.60
  12   8   1   11.60    1.50
 -13  -8  -1    2.60    1.20
  13   8   1   -0.40    1.20
 -14  -8  -1    1.90    1.40
  14   8   1    1.50    1.40
  13  -9  -1   -0.40    1.40
 -13   9   1    2.40    1.50
  12  -9  -1    5.40    1.70
 -12   9   1    6.00    1.50
  11  -9  -1    3.10    1.40
 -11   9   1    5.70    0.60
 -11   9   1    5.10    1.30
  10  -9  -1   10.80    1.80
 -10   9   1    9.20    1.00
 -10   9   1   10.70    1.60
   9  -9  -1    9.90    1.70
  -9   9   1   10.30    1.20
  -9   9   1   10.00    1.00
   8  -9  -1    1.00    1.00
  -8   9   1   -0.90    0.90
  -8   9   1    1.80    0.70
  -8   9   1   -0.10    0.80
   7  -9  -1    0.50    0.80
  -7   9   1   -0.70    0.80
  -7   9   1    1.40    0.70
   6  -9  -1    0.80    0.80
  -6   9   1    0.80    0.70
  -6   9   1    0.80    0.80
   5  -9  -1   28.80    2.10
  -5   9   1   29.50    2.00
  -5   9   1   29.90    2.10
   4  -9  -1    4.90    1.00
  -4   9   1    4.70    0.90
   3  -9  -1  321.67   13.50
   3  -9  -1  332.97   13.50
  -3   9   1  330.77   13.50
   2  -9  -1   10.80    1.10
   2  -9  -1    9.80    1.20
  -2   9   1    8.70    1.00
  -2   9   1    8.60    1.10
   1  -9  -1   12.00    1.30
   1  -9  -1   10.20    1.00
  -1   9   1    8.00    1.10
  -1   9   1    9.30    0.90
   0  -9  -1    9.50    1.10
   0  -9  -1    7.00    0.80
   0   9   1    7.70    0.80
   0   9   1    8.60    1.10
  -1  -9  -1    3.80    0.80
  -1  -9  -1    5.10    0.60
   1   9   1    5.60    0.60
   1   9   1    5.90    1.00
  -2  -9  -1   32.20    1.50
  -2  -9  -1   34.40    2.00
   2   9   1   30.10    2.00
  -3  -9  -1   24.00    1.60
   3   9   1   21.70    1.70
  -4  -9  -1   11.90    1.30
   4   9   1   10.90    1.20
  -5  -9  -1   27.50    1.80
   5   9   1   25.40    1.90
  -6  -9  -1   47.60    2.60
   6   9   1   45.60    2.70
  -7  -9  -1   10.20    1.30
   7   9   1   11.30    1.50
  -8  -9  -1    4.50    1.10
   8   9   1    3.80    1.10
  -9  -9  -1   14.50    1.70
   9   9   1   11.90    1.60
 -10  -9  -1    3.10    1.10
  10   9   1    3.80    1.10
 -11  -9  -1    0.50    1.10
  11   9   1   -0.10    1.10
 -12  -9  -1    0.50    1.20
  12   9   1   -1.30    1.10
 -13  -9  -1    0.70    1.30
  13   9   1   -0.30    1.40
  12 -10  -1    3.30    1.60
 -12  10   1    3.20    1.50
  11 -10  -1   16.00    2.30
 -11  10   1   13.70    1.80
 -11  10   1   16.50    2.00
  10 -10  -1    6.40    1.50
 -10  10   1    6.20    1.40
 -10  10   1    4.40    0.80
   9 -10  -1   14.60    2.00
  -9  10   1   13.60    1.70
  -9  10   1   14.70    1.80
   8 -10  -1   48.90    3.20
  -8  10   1   45.10    2.50
  -8  10   1   44.40    3.00
   7 -10  -1   22.80    2.20
  -7  10   1   18.40    2.00
  -7  10   1   22.30    1.60
   6 -10  -1    4.40    1.20
  -6  10   1    5.60    1.00
  -6  10   1    7.50    1.30
   5 -10  -1    1.90    0.90
  -5  10   1    0.70    0.70
  -5  10   1    1.00    0.80
   4 -10  -1   86.79    4.20
   4 -10  -1   88.19    4.30
  -4  10   1   88.69    4.20
   3 -10  -1   24.10    2.10
   3 -10  -1   25.10    1.80
  -3  10   1   26.80    1.80
   2 -10  -1    4.50    0.90
   2 -10  -1    4.30    0.90
  -2  10   1    4.70    0.90
   1 -10  -1    2.10    0.70
   1 -10  -1    2.70    0.80
  -1  10   1    3.70    0.60
  -1  10   1    2.70    0.80
   0 -10  -1    0.70    0.70
   0 -10  -1    0.60    0.50
   0  10   1    0.60    0.50
   0  10   1    0.30    0.60
  -1 -10  -1    9.30    0.90
  -1 -10  -1   11.80    1.30
   1  10   1    9.70    0.80
   1  10   1   10.50    1.30
  -2 -10  -1    4.20    0.90
   2  10   1    3.40    0.90
   2  10   1    4.00    0.50
  -3 -10  -1   13.00    1.30
   3  10   1   11.00    1.50
  -4 -10  -1   14.00    1.50
   4  10   1   12.30    1.40
  -5 -10  -1   81.29    4.00
   5  10   1   79.89    4.20
  -6 -10  -1    0.00    0.70
   6  10   1    0.90    0.90
  -7 -10  -1   19.50    1.80
   7  10   1   20.30    2.00
  -8 -10  -1   31.90    2.50
   8  10   1   29.40    2.30
  -9 -10  -1    0.30    0.90
   9  10   1    0.30    1.00
 -10 -10  -1   15.30    1.80
 -11 -10  -1   10.30    1.70
  11  10   1   11.40    1.70
 -12 -10  -1    2.60    1.30
  12  10   1    4.50    1.50
  13  10   1    3.90    1.70
  11 -11  -1    4.90    1.80
 -11  11   1    3.80    1.50
  10 -11  -1    1.90    1.40
 -10  11   1    3.80    1.00
 -10  11   1    3.70    1.40
   9 -11  -1    1.70    1.30
  -9  11   1   -0.70    1.20
  -9  11   1    0.00    0.90
   8 -11  -1    1.60    1.20
  -8  11   1    1.10    1.20
  -8  11   1   -0.20    0.90
   7 -11  -1    0.00    1.10
  -7  11   1   -0.20    1.10
  -7  11   1   -0.30    0.80
   6 -11  -1    4.30    1.20
  -6  11   1    4.00    1.00
   5 -11  -1   30.80    2.40
  -5  11   1   29.20    2.40
  -5  11   1   32.40    2.10
   4 -11  -1    0.70    0.90
   4 -11  -1    3.10    1.00
  -4  11   1    3.50    0.90
   3 -11  -1   84.19    4.30
   3 -11  -1   87.59    4.30
  -3  11   1   89.99    4.30
   2 -11  -1   59.89    3.40
   2 -11  -1   72.49    3.60
  -2  11   1   70.19    3.60
   1 -11  -1   37.00    2.30
   1 -11  -1   34.00    2.10
  -1  11   1   33.40    1.90
  -1  11   1   37.50    2.40
   0 -11  -1   33.90    1.80
   0 -11  -1   32.20    2.10
   0  11   1   27.50    1.70
   0  11   1   31.70    2.20
  -1 -11  -1    5.00    1.10
  -1 -11  -1    7.50    0.80
   1  11   1    3.80    0.60
   1  11   1    6.00    1.10
  -2 -11  -1   25.60    1.90
   2  11   1   22.90    1.30
   2  11   1   26.90    2.00
  -3 -11  -1    1.30    0.80
   3  11   1    1.60    0.90
  -4 -11  -1    2.70    1.00
   4  11   1    1.40    1.00
  -5 -11  -1    7.60    1.30
   5  11   1    7.10    1.40
  -6 -11  -1    7.20    1.40
   6  11   1    6.30    1.30
  -7 -11  -1    8.10    1.30
   7  11   1    6.20    1.70
  -8 -11  -1    0.60    1.00
   8  11   1    1.30    1.10
  -9 -11  -1    4.10    1.30
   9  11   1    1.70    1.20
 -10 -11  -1   -0.40    1.10
  10  11   1   -1.60    1.10
 -11 -11  -1    1.80    1.30
  11  11   1    0.80    1.50
  12  11   1    4.00    1.60
  10 -12  -1    1.00    1.50
 -10  12   1   -0.70    1.10
 -10  12   1   -1.20    1.40
   9 -12  -1   -0.80    1.30
  -9  12   1   -0.10    1.50
  -9  12   1    2.40    1.00
   8 -12  -1   -0.30    1.20
  -8  12   1    1.60    1.30
  -8  12   1    1.00    1.00
   7 -12  -1    2.30    1.50
  -7  12   1    2.70    1.10
  -7  12   1    0.80    1.30
   6 -12  -1    1.60    1.20
  -6  12   1    1.80    1.00
  -6  12   1    4.30    1.30
   5 -12  -1    0.30    1.10
  -5  12   1    2.40    1.10
  -5  12   1    1.60    1.20
   4 -12  -1   12.00    1.60
  -4  12   1   12.40    1.50
   3 -12  -1    8.90    1.30
   3 -12  -1    9.60    1.80
  -3  12   1    9.40    1.40
   2 -12  -1   -0.70    0.90
   2 -12  -1    0.00    0.80
  -2  12   1    0.20    0.80
   1 -12  -1   13.30    1.60
   1 -12  -1   12.90    1.40
  -1  12   1   11.20    1.50
   0 -12  -1    7.20    1.00
   0 -12  -1    7.60    1.40
   0  12   1    5.20    1.20
   0  12   1    6.20    0.90
  -1 -12  -1   12.50    1.60
  -1 -12  -1    9.00    1.00
   1  12   1    8.10    0.90
   1  12   1    9.70    1.40
  -2 -12  -1   13.90    1.60
   2  12   1   12.50    1.60
  -3 -12  -1   50.09    2.90
   3  12   1   49.20    3.10
  -5 -12  -1   46.00    2.90
   5  12   1   46.00    3.00
  -6 -12  -1    6.40    1.40
   6  12   1    9.60    1.60
  -7 -12  -1    3.80    1.20
   7  12   1    3.70    1.40
  -8 -12  -1    2.30    1.20
   8  12   1    2.00    1.30
  -9 -12  -1   12.50    1.80
   9  12   1   10.70    1.80
 -10 -12  -1    1.00    1.40
  10  12   1    3.10    1.50
   9 -13  -1    6.90    1.90
  -9  13   1    3.30    1.30
   8 -13  -1   -0.30    1.50
  -8  13   1    5.10    1.70
  -8  13   1    2.70    1.30
   7 -13  -1   11.10    1.80
  -7  13   1    9.70    1.90
  -7  13   1   11.30    1.60
   6 -13  -1    3.50    2.00
  -6  13   1    6.60    1.70
  -6  13   1    5.20    1.30
   5 -13  -1    4.90    1.30
  -5  13   1    6.60    1.60
  -5  13   1    9.30    1.60
   4 -13  -1   -0.20    1.00
  -4  13   1    1.30    1.10
  -4  13   1    0.60    1.10
   3 -13  -1    6.30    1.40
   3 -13  -1    6.40    1.30
   2 -13  -1    2.40    1.00
   2 -13  -1    2.20    1.10
  -2  13   1    2.60    2.00
   1 -13  -1   15.00    2.20
   1 -13  -1   14.60    1.80
  -1  13   1   14.60    1.90
   0 -13  -1    5.70    1.30
   0 -13  -1    3.50    0.90
   0  13   1    5.50    1.20
  -1 -13  -1    8.60    1.50
  -1 -13  -1    6.80    0.80
   1  13   1    6.60    1.20
   1  13   1    6.40    1.30
  -2 -13  -1    7.60    1.40
   2  13   1    5.90    1.30
  -3 -13  -1    2.20    1.00
   3  13   1    3.80    1.10
  -4 -13  -1   -0.60    0.90
   4  13   1    1.50    1.20
  -5 -13  -1    0.90    1.10
   5  13   1   -0.60    1.10
  -6 -13  -1   10.50    1.70
   6  13   1   10.70    1.90
  -7 -13  -1   -0.80    1.00
   7  13   1    1.20    1.30
  -8 -13  -1   12.10    1.90
   8  13   1   11.60    2.00
  -9 -13  -1   32.30    2.80
   9  13   1   28.60    2.90
   7 -14  -1    4.20    1.70
  -7  14   1    0.70    1.30
   6 -14  -1    5.60    1.70
  -6  14   1    4.20    1.80
  -6  14   1    3.30    1.30
  -5  14   1    8.30    1.90
  -5  14   1    9.80    1.60
   4 -14  -1    7.80    1.60
  -4  14   1    8.90    1.80
  -4  14   1   13.40    1.80
   3 -14  -1   10.50    1.70
   3 -14  -1   10.20    1.50
  -3  14   1   11.90    1.70
   2 -14  -1   35.00    2.80
   2 -14  -1   41.80    2.70
  -2  14   1   41.70    3.00
   1 -14  -1    6.50    1.40
   1 -14  -1    6.00    1.20
  -1  14   1    8.00    1.60
   0 -14  -1   12.00    1.30
   0 -14  -1   12.20    1.80
   0  14   1   14.20    1.90
  -1 -14  -1    0.40    1.00
   1  14   1    1.60    1.10
  -2 -14  -1   11.10    1.80
   2  14   1   12.40    1.80
  -3 -14  -1   10.70    1.60
   3  14   1   13.50    1.90
  -4 -14  -1   12.00    1.70
   4  14   1   16.80    2.10
  -5 -14  -1    8.80    1.60
   5  14   1    8.00    1.70
  -6 -14  -1    4.70    1.40
   6  14   1    6.40    1.60
  -7 -14  -1   30.10    2.70
   7  14   1   37.40    3.20
   4 -15  -1    6.40    2.00
  -4  15   1    9.30    1.80
  -4  15   1    2.80    2.10
   3 -15  -1    1.60    1.40
   3 -15  -1    3.90    1.50
  -3  15   1    1.00    1.50
   2 -15  -1    0.80    1.30
   2 -15  -1    1.90    1.20
  -2  15   1    2.20    1.50
   1 -15  -1    4.40    1.40
   1 -15  -1    4.40    1.40
  -1  15   1    4.60    1.50
   0 -15  -1    5.00    1.30
   0  15   1    2.70    1.40
  -1 -15  -1   10.10    1.70
   1  15   1    6.70    1.80
  -2 -15  -1    2.60    1.40
   2  15   1    0.50    1.40
  -3 -15  -1    4.50    1.40
   3  15   1    2.60    1.40
  -4 -15  -1    3.10    1.40
   4  15   1    1.10    1.50
   3  14  -2   32.60    3.30
  -3 -14   2   31.50    2.80
   2  14  -2    0.70    1.40
  -2 -14   2    2.30    1.50
   1  14  -2   13.60    2.20
  -1 -14   2   11.10    1.90
   0  14  -2   12.40    2.00
   0 -14   2    6.70    1.60
  -1  14  -2    5.10    1.60
   1 -14   2    2.90    1.50
   1 -14   2    5.60    1.60
  -2  14  -2    5.80    1.60
   2 -14   2    7.50    1.70
   2 -14   2    4.00    1.60
  -3  14  -2    4.20    1.60
   3 -14   2    7.60    1.90
   3 -14   2    4.80    1.60
   6  13  -2    2.60    1.60
  -6 -13   2    1.50    1.30
   5  13  -2    5.20    1.50
  -5 -13   2    3.10    1.40
   4  13  -2    8.80    1.80
  -4 -13   2    4.50    1.40
   3  13  -2    0.30    1.20
  -3 -13   2    1.80    1.30
   2  13  -2    1.20    1.30
  -2 -13   2    2.00    1.20
   1  13  -2    1.10    1.20
  -1 -13   2   -1.20    1.00
  -1 -13   2    2.40    1.30
   0  13  -2    1.90    1.20
   0 -13   2    1.80    1.30
   0 -13   2    1.70    1.60
  -1  13  -2   -0.60    1.10
   1 -13   2    0.70    1.10
   1 -13   2    2.00    1.30
  -2  13  -2    0.50    1.20
   2 -13   2    2.40    1.30
   2 -13   2    2.10    1.20
  -3  13  -2    2.30    1.20
   3 -13   2    5.10    1.40
   3 -13   2    1.60    1.30
  -4  13  -2    2.80    1.30
   4 -13   2    3.80    1.40
  -5  13  -2    3.20    1.80
  -5  13  -2    2.60    1.40
   5 -13   2    3.90    1.50
  -6  13  -2    5.10    1.70
  -6  13  -2    3.30    1.40
   6 -13   2    3.70    1.60
  -7  13  -2    3.90    1.40
  -7  13  -2    3.00    2.30
   7 -13   2    6.20    1.90
   8  12  -2    1.30    1.50
  -8 -12   2    1.90    1.40
   7  12  -2    4.40    1.50
  -7 -12   2    4.90    1.60
   6  12  -2   16.90    2.20
  -6 -12   2   18.00    2.10
   5  12  -2   23.80    2.40
  -5 -12   2   22.10    2.20
   4  12  -2   14.80    2.00
  -4 -12   2   11.20    1.70
   3  12  -2   28.40    2.40
  -3 -12   2   23.60    2.20
   2  12  -2    4.20    1.00
  -2 -12   2    4.30    0.80
  -2 -12   2    6.20    1.40
   1  12  -2   14.30    1.80
  -1 -12   2   13.10    1.60
  -1 -12   2   14.10    1.50
   0  12  -2    2.80    1.30
   0 -12   2    2.90    1.00
   0 -12   2    4.60    1.20
  -1  12  -2    5.90    1.30
   1 -12   2    5.00    1.20
   1 -12   2    4.70    1.20
  -2  12  -2    5.70    1.40
   2 -12   2    2.60    1.10
   2 -12   2    2.70    1.10
  -3  12  -2    0.80    1.20
   3 -12   2    0.10    1.10
   3 -12   2   -0.10    1.20
  -4  12  -2    0.20    1.00
   4 -12   2    1.50    1.20
   4 -12   2    0.50    1.10
  -5  12  -2    0.90    1.00
  -5  12  -2    0.00    1.30
   5 -12   2   -0.30    1.30
  -6  12  -2    1.30    1.50
  -6  12  -2    1.80    1.20
   6 -12   2    1.80    1.40
  -7  12  -2    4.00    1.80
  -7  12  -2    3.10    1.30
   7 -12   2    4.00    1.60
  -8  12  -2    0.50    1.50
  -8  12  -2    0.20    1.30
   8 -12   2    4.70    1.70
  -9  12  -2    4.60    1.50
  -9  12  -2    0.70    2.10
   9 -12   2    9.50    2.00
  10  11  -2    1.30    1.30
 -10 -11   2    1.80    1.40
   9  11  -2    0.00    1.20
  -9 -11   2    0.20    1.20
   8  11  -2   -0.90    1.20
  -8 -11   2    2.00    1.20
   7  11  -2   -0.20    1.20
  -7 -11   2    0.20    1.20
   6  11  -2    0.10    1.10
  -6 -11   2    0.50    1.20
   5  11  -2    5.20    1.40
  -5 -11   2    3.10    1.10
   4  11  -2    0.70    1.10
  -4 -11   2   -0.60    0.90
   3  11  -2    2.20    1.80
   2  11  -2    6.70    1.50
   2  11  -2    5.30    0.80
  -2 -11   2    8.80    0.90
  -2 -11   2    7.60    1.40
   1  11  -2   -0.40    0.90
   1  11  -2   -0.60    0.80
  -1 -11   2   -0.10    0.90
  -1 -11   2    0.80    0.70
   0  11  -2    1.30    1.20
   0  11  -2    4.80    1.20
   0 -11   2    4.30    1.00
   0 -11   2    3.60    0.90
  -1  11  -2   -0.70    0.80
   1 -11   2    0.80    0.90
   1 -11   2   -0.90    1.50
  -2  11  -2    5.60    1.20
   2 -11   2    3.20    1.10
   2 -11   2    4.90    1.10
  -3  11  -2   11.80    1.50
   3 -11   2   12.30    1.60
  -4  11  -2   21.40    1.90
   4 -11   2   18.90    2.10
   4 -11   2   19.60    2.10
  -5  11  -2   17.30    2.10
  -5  11  -2   16.20    1.80
   5 -11   2   15.50    1.90
  -6  11  -2   32.70    2.80
  -6  11  -2   36.20    2.50
   6 -11   2   34.50    2.80
  -7  11  -2  108.79    5.40
  -7  11  -2  114.39    5.80
   7 -11   2  119.09    5.90
  -8  11  -2    0.50    1.00
  -8  11  -2    1.10    1.50
   8 -11   2    1.50    1.30
  -9  11  -2   12.60    2.10
  -9  11  -2   14.20    1.60
   9 -11   2   11.30    1.90
 -10  11  -2    1.70    1.30
  10 -11   2    1.10    1.70
  11  10  -2   15.50    1.90
 -11 -10   2   16.60    2.10
  10  10  -2   -0.20    1.20
 -10 -10   2    1.50    1.30
   9  10  -2   13.40    1.90
  -9 -10   2   12.00    1.60
   8  10  -2   12.20    1.70
  -8 -10   2   11.50    1.60
   7  10  -2    2.70    1.70
  -7 -10   2    1.80    1.10
   6  10  -2   23.40    2.20
  -6 -10   2   29.90    3.50
   5  10  -2    6.20    1.30
  -5 -10   2    7.00    1.30
   4  10  -2    3.00    1.10
  -4 -10   2    2.70    1.00
   3  10  -2    2.50    0.60
   3  10  -2    1.90    1.00
  -3 -10   2    3.60    1.00
  -3 -10   2    2.00    0.50
   2  10  -2    8.10    0.80
   2  10  -2    8.70    1.40
  -2 -10   2    9.00    1.00
  -2 -10   2    9.60    1.40
   1  10  -2   31.20    2.10
   1  10  -2   25.40    1.60
  -1 -10   2   25.70    1.70
  -1 -10   2   28.70    2.10
   0  10  -2    2.70    0.70
   0  10  -2    5.50    1.10
   0 -10   2    2.70    0.70
   0 -10   2    3.50    1.00
  -1  10  -2    6.60    1.20
   1 -10   2    4.50    0.90
   1 -10   2    6.50    1.20
  -2  10  -2    3.60    0.90
   2 -10   2    2.00    0.80
   2 -10   2    1.00    0.80
  -3  10  -2    3.20    0.90
   3 -10   2    1.90    1.00
   3 -10   2    3.30    1.10
  -4  10  -2   14.50    1.60
   4 -10   2   12.40    1.60
   4 -10   2   16.30    1.80
  -5  10  -2    9.70    1.40
  -5  10  -2   11.80    1.70
   5 -10   2   10.90    1.60
  -6  10  -2   28.10    2.10
  -6  10  -2   29.50    2.50
   6 -10   2   29.80    2.40
  -7  10  -2    5.10    1.50
  -7  10  -2    3.90    1.00
   7 -10   2    3.00    1.40
  -8  10  -2    4.50    1.10
  -8  10  -2    7.20    1.50
   8 -10   2    4.10    1.40
  -9  10  -2    3.80    1.60
  -9  10  -2    5.30    1.10
   9 -10   2    5.70    1.60
 -10  10  -2    3.50    1.60
 -10  10  -2    2.70    1.10
  10 -10   2    1.60    1.50
 -11  10  -2    1.20    1.10
 -11  10  -2   -0.20    1.50
  11 -10   2    1.60    1.60
  12   9  -2    0.40    1.40
 -12  -9   2    1.70    1.40
  11   9  -2    2.00    1.20
 -11  -9   2   -0.50    1.20
  10   9  -2    0.80    2.10
 -10  -9   2    2.10    1.20
   9   9  -2    3.30    1.10
  -9  -9   2    2.70    1.00
   8   9  -2    7.90    1.50
  -8  -9   2    5.70    1.30
   7   9  -2    1.80    0.90
  -7  -9   2    1.80    0.90
   6   9  -2    5.80    1.30
  -6  -9   2    6.10    1.20
   5   9  -2   93.79    4.70
  -5  -9   2   97.39    4.60
   4   9  -2   81.29    4.20
  -4  -9   2   84.49    4.10
   3   9  -2   27.10    1.40
   3   9  -2   28.60    2.00
  -3  -9   2   26.60    1.90
  -3  -9   2   25.60    1.40
   2   9  -2  107.49    4.60
   2   9  -2  108.29    5.20
  -2  -9   2  106.59    4.60
  -2  -9   2  114.29    5.00
   1   9  -2   50.69    2.80
   1   9  -2   45.10    2.30
  -1  -9   2   50.09    2.50
  -1  -9   2   53.39    2.80
   0   9  -2   31.10    2.00
   0   9  -2   27.30    1.70
   0  -9   2   28.60    2.00
   0  -9   2   28.70    1.80
  -1   9  -2    5.90    0.70
  -1   9  -2    5.30    1.00
   1  -9   2    6.30    1.00
   1  -9   2    4.60    1.00
  -2   9  -2   36.90    2.30
   2  -9   2   37.80    2.30
   2  -9   2   39.70    2.30
  -3   9  -2   17.20    1.50
   3  -9   2   15.40    1.60
   3  -9   2   16.80    1.60
  -4   9  -2    5.80    1.00
   4  -9   2    5.20    1.10
   4  -9   2    3.80    0.90
  -5   9  -2    3.10    1.10
  -5   9  -2    3.90    0.90
   5  -9   2    2.00    1.00
  -6   9  -2    0.60    0.90
  -6   9  -2    0.50    0.80
   6  -9   2    1.80    0.90
  -7   9  -2   27.30    1.90
  -7   9  -2   27.70    2.20
   7  -9   2   27.80    2.40
  -8   9  -2    3.50    1.00
   8  -9   2    3.60    1.20
  -9   9  -2    1.80    0.90
  -9   9  -2    3.20    1.30
   9  -9   2    0.70    1.00
 -10   9  -2    1.70    0.90
 -10   9  -2    2.40    1.30
  10  -9   2    0.40    1.40
 -11   9  -2    1.30    0.90
 -11   9  -2    0.60    1.40
  11  -9   2   -0.10    1.40
 -12   9  -2    0.10    1.50
  12  -9   2    3.00    1.60
  13   8  -2    0.30    1.70
 -13  -8   2    2.40    1.60
  12   8  -2   -0.10    1.20
 -12  -8   2    0.70    1.20
  11   8  -2   26.20    2.10
 -11  -8   2   26.00    2.30
  10   8  -2   10.00    1.60
 -10  -8   2   12.60    1.70
   9   8  -2   10.10    1.40
  -9  -8   2    8.20    1.60
   8   8  -2   51.89    3.00
  -8  -8   2   54.19    3.10
   7   8  -2    1.60    0.90
  -7  -8   2    2.30    0.90
   6   8  -2   27.00    2.00
  -6  -8   2   28.00    1.90
   5   8  -2   52.89    2.90
  -5  -8   2   50.09    2.80
   4   8  -2    0.70    0.70
  -4  -8   2    0.90    0.40
  -4  -8   2    1.60    0.70
   3   8  -2   15.80    1.00
   3   8  -2   15.20    1.40
  -3  -8   2   15.40    1.00
  -3  -8   2   16.00    1.40
   2   8  -2   18.00    1.50
   2   8  -2   21.50    1.20
  -2  -8   2   20.00    1.20
  -2  -8   2   21.00    1.50
   1   8  -2    8.00    1.10
   1   8  -2    6.70    0.80
  -1  -8   2    6.90    1.00
  -1  -8   2    7.70    0.90
   0   8  -2    1.00    0.60
   0   8  -2   -0.20    0.40
   0  -8   2    0.60    0.60
   0  -8   2    0.00    0.50
  -1   8  -2    3.70    0.60
  -1   8  -2    4.40    0.90
   1  -8   2    4.10    0.80
   1  -8   2    3.40    0.80
  -2   8  -2   15.10    1.30
  -2   8  -2   11.10    1.10
   2  -8   2   11.20    1.20
   2  -8   2   13.00    1.30
  -3   8  -2    8.10    1.10
   3  -8   2    7.60    1.10
   3  -8   2    8.30    1.10
  -4   8  -2   10.60    1.20
   4  -8   2   10.00    1.20
   4  -8   2   12.70    1.40
  -5   8  -2   30.30    2.10
  -5   8  -2   32.90    2.00
   5  -8   2   34.60    2.30
  -6   8  -2   20.60    1.50
  -6   8  -2   17.80    1.70
   6  -8   2   19.70    1.80
  -7   8  -2   12.90    1.70
  -7   8  -2   13.20    1.30
   7  -8   2   15.00    1.70
  -8   8  -2    6.00    1.00
  -8   8  -2    5.00    1.30
   8  -8   2    5.50    1.30
  -9   8  -2    2.60    1.00
  -9   8  -2    1.50    0.80
   9  -8   2    1.00    1.10
 -10   8  -2    4.30    1.20
  10  -8   2    4.30    1.50
 -11   8  -2   34.60    2.00
 -11   8  -2   33.10    2.70
  11  -8   2   34.30    3.00
 -12   8  -2   15.40    2.10
 -12   8  -2   13.20    1.30
  12  -8   2   17.20    2.20
 -13   8  -2    8.70    1.90
  13  -8   2   10.80    1.90
  13   7  -2    6.20    1.40
 -13  -7   2    9.20    1.60
  12   7  -2   14.80    1.70
 -12  -7   2   18.40    1.90
 -12  -7   2   13.10    1.20
  11   7  -2   15.20    1.60
 -11  -7   2   12.90    1.60
 -11  -7   2   12.90    1.00
  10   7  -2    1.20    1.00
 -10  -7   2    0.40    1.00
 -10  -7   2    1.20    0.60
 -10  -7   2    0.60    0.50
   9   7  -2   12.60    1.50
  -9  -7   2   10.60    1.10
  -9  -7   2   10.10    1.50
   8   7  -2    1.30    0.70
  -8  -7   2    0.00    0.70
  -8  -7   2    0.90    0.30
   7   7  -2   22.30    1.70
  -7  -7   2   18.90    1.60
   6   7  -2    1.60    0.70
  -6  -7   2    2.40    0.40
  -6  -7   2    2.30    0.30
  -6  -7   2    3.70    0.80
   5   7  -2    1.80    0.80
  -5  -7   2    3.10    0.40
  -5  -7   2    1.60    0.70
   4   7  -2   29.80    1.90
  -4  -7   2   29.10    1.40
  -4  -7   2   27.60    1.80
   3   7  -2   83.49    3.60
   3   7  -2   85.89    4.00
  -3  -7   2   85.39    3.90
  -3  -7   2   85.29    3.60
   2   7  -2  111.19    4.70
   2   7  -2  113.79    5.10
  -2  -7   2  119.49    5.10
  -2  -7   2  112.49    4.70
   1   7  -2   78.59    3.80
   1   7  -2   75.29    3.40
  -1  -7   2   81.79    3.80
  -1  -7   2   82.89    3.50
   0   7  -2    7.60    1.00
   0   7  -2    6.70    0.70
   0  -7   2    8.00    0.90
  -1   7  -2  118.09    5.10
   1  -7   2  126.19    5.30
  -2   7  -2   47.30    2.80
  -2   7  -2   45.50    2.30
   2  -7   2   49.99    2.50
   2  -7   2   50.19    2.50
  -3   7  -2   91.59    4.30
  -3   7  -2   83.99    4.20
   3  -7   2   97.79    4.30
   3  -7   2   96.29    4.20
  -4   7  -2   56.69    2.70
   4  -7   2   52.09    2.70
   4  -7   2   49.40    3.00
  -5   7  -2    7.90    1.10
  -5   7  -2    8.10    1.00
   5  -7   2    9.20    1.20
  -6   7  -2   22.30    1.50
  -6   7  -2   20.30    1.70
   6  -7   2   21.70    1.80
  -7   7  -2    3.20    1.00
  -7   7  -2    3.40    0.70
   7  -7   2    3.70    1.00
  -8   7  -2    1.90    1.00
  -8   7  -2    0.00    0.60
   8  -7   2   -0.20    0.90
  -9   7  -2    4.60    0.90
  -9   7  -2    3.20    1.10
   9  -7   2    4.50    1.60
   9  -7   2    3.80    1.20
 -10   7  -2   13.40    1.60
 -10   7  -2   11.90    1.10
  10  -7   2    8.80    1.20
  10  -7   2   13.50    1.90
 -11   7  -2    0.40    0.90
 -11   7  -2    0.80    0.60
  11  -7   2    0.10    1.10
  11  -7   2   -0.20    1.30
 -12   7  -2    9.70    1.10
 -12   7  -2    9.60    1.80
  12  -7   2    8.50    1.80
 -13   7  -2    2.80    1.40
  13  -7   2    3.00    1.40
 -14   7  -2    4.10    1.60
  14  -7   2    5.10    1.70
  14   6  -2    4.40    1.40
 -14  -6   2    7.10    1.60
  13   6  -2    6.90    1.30
 -13  -6   2    7.40    1.20
 -13  -6   2    7.10    1.60
  12   6  -2    1.00    1.10
 -12  -6   2    4.30    1.20
 -12  -6   2    3.50    1.00
  11   6  -2    6.20    1.10
 -11  -6   2    7.90    1.40
 -11  -6   2    6.90    1.20
 -11  -6   2    8.60    1.00
  10   6  -2    2.40    1.00
 -10  -6   2    3.30    0.70
 -10  -6   2    2.50    0.60
 -10  -6   2    3.50    1.00
   9   6  -2    6.90    1.10
  -9  -6   2    6.90    0.80
  -9  -6   2    6.70    0.80
  -9  -6   2    7.10    1.20
   8   6  -2    2.80    0.90
  -8  -6   2    1.40    0.50
  -8  -6   2    2.20    0.80
  -8  -6   2    2.20    0.60
   7   6  -2   44.70    2.40
  -7  -6   2   43.50    2.40
  -7  -6   2   39.80    1.90
  -7  -6   2   40.80    2.00
   6   6  -2   15.90    1.30
  -6  -6   2   13.50    1.10
  -6  -6   2   17.00    1.00
  -6  -6   2   17.70    1.40
   5   6  -2    0.70    0.70
  -5  -6   2    0.70    0.60
  -5  -6   2    1.10    0.40
   4   6  -2   62.89    3.10
  -4  -6   2   60.59    2.70
  -4  -6   2   65.59    3.30
   3   6  -2   70.09    3.50
   3   6  -2   72.09    3.10
  -3  -6   2   74.69    3.40
  -3  -6   2   78.19    3.10
   2   6  -2    4.30    0.70
   2   6  -2    3.80    0.50
  -2  -6   2    5.90    0.80
  -2  -6   2    6.30    0.60
   1   6  -2   -0.10    0.40
   1   6  -2    0.30    0.40
   1   6  -2    0.40    0.30
  -1  -6   2    0.30    0.40
  -1  -6   2    0.00    0.30
   0   6  -2    7.30    0.80
   0   6  -2    8.00    0.80
   0   6  -2    6.90    0.60
   0  -6   2    6.70    0.70
   0  -6   2    7.60    0.90
   0  -6   2    6.30    0.90
  -1   6  -2   16.80    1.20
  -1   6  -2   18.70    1.30
  -1   6  -2   17.10    1.00
   1  -6   2   17.90    1.20
   1  -6   2   17.50    1.10
   1  -6   2   15.00    1.20
  -2   6  -2    2.70    0.60
  -2   6  -2    3.70    0.70
  -2   6  -2    2.30    0.50
   2  -6   2    5.70    0.80
   2  -6   2    3.80    0.70
   2  -6   2    3.10    0.70
  -3   6  -2   13.60    1.00
  -3   6  -2   15.00    1.10
   3  -6   2   17.20    1.20
   3  -6   2   15.20    1.20
   3  -6   2   14.00    1.10
  -4   6  -2  103.49    4.40
   4  -6   2  104.69    4.60
   4  -6   2   91.79    4.40
  -5   6  -2  150.18    6.30
  -5   6  -2  145.59    6.10
   5  -6   2  134.19    6.10
  -6   6  -2   97.09    4.20
  -6   6  -2  100.59    4.50
   6  -6   2   97.49    4.60
   6  -6   2   87.79    4.30
  -7   6  -2   32.70    1.80
  -7   6  -2   34.30    2.10
   7  -6   2   28.60    2.10
   7  -6   2   30.60    1.80
  -8   6  -2   27.00    1.60
  -8   6  -2   27.00    2.00
   8  -6   2   28.00    2.10
   8  -6   2   25.80    1.70
  -9   6  -2    1.80    0.90
  -9   6  -2    1.20    0.60
   9  -6   2    0.90    0.80
   9  -6   2    1.40    0.90
 -10   6  -2    1.10    0.60
 -10   6  -2    0.20    0.80
  10  -6   2    0.70    1.00
  10  -6   2   -0.40    0.80
 -11   6  -2    5.60    1.20
 -11   6  -2    5.70    0.70
  11  -6   2    4.90    0.90
 -12   6  -2   11.80    1.70
 -12   6  -2   13.80    1.00
  12  -6   2   11.90    1.90
 -13   6  -2    0.40    1.20
  13  -6   2    1.00    1.30
 -14   6  -2    1.10    1.40
  14  -6   2    0.00    1.40
 -15  -5   2    0.70    1.50
  14   5  -2   -1.10    1.10
 -14  -5   2    2.60    1.20
 -14  -5   2   -0.50    1.20
  13   5  -2    3.40    1.00
 -13  -5   2    5.70    1.10
 -13  -5   2    4.90    1.30
  12   5  -2    8.40    1.20
 -12  -5   2    9.50    1.20
 -12  -5   2    8.20    1.40
  11   5  -2   15.70    1.40
 -11  -5   2   13.70    1.50
 -11  -5   2   14.60    1.70
 -11  -5   2   14.10    1.30
  10   5  -2   40.00    2.30
 -10  -5   2   39.00    2.10
 -10  -5   2   42.00    2.50
  -9  -5   2   33.70    2.10
  -9  -5   2   29.40    1.80
  -9  -5   2   32.00    1.70
   8   5  -2    3.20    0.80
  -8  -5   2    5.10    0.90
  -8  -5   2    4.00    0.70
  -8  -5   2    3.90    0.60
   7   5  -2  105.89    4.60
  -7  -5   2  100.19    4.30
  -7  -5   2  102.59    4.60
  -7  -5   2   96.59    4.20
   6   5  -2  138.19    6.00
  -6  -5   2  139.69    5.70
  -6  -5   2  137.49    5.60
  -6  -5   2  140.09    6.00
   5   5  -2   37.40    2.10
  -5  -5   2   38.10    2.10
  -5  -5   2   38.90    2.10
  -5  -5   2   41.30    1.70
  -5  -5   2   37.90    1.80
   4   5  -2  217.18    8.90
  -4  -5   2  212.58    8.90
  -4  -5   2  219.78    8.80
  -4  -5   2  203.18    8.50
  -4  -5   2  212.38    8.50
   3   5  -2   45.80    2.00
   3   5  -2   44.20    2.20
   3   5  -2   48.60    2.40
  -3  -5   2   48.20    2.30
  -3  -5   2   46.60    2.00
  -3  -5   2   45.10    2.30
   2   5  -2    2.70    0.40
   2   5  -2    3.10    0.50
   2   5  -2    3.20    0.60
  -2  -5   2    4.60    0.40
  -2  -5   2    5.40    0.70
  -2  -5   2    5.30    0.60
   1   5  -2   61.59    3.00
   1   5  -2   62.79    2.90
   1   5  -2   60.99    2.60
  -1  -5   2   58.29    2.80
  -1  -5   2   67.29    2.70
  -1  -5   2   57.19    2.90
   0   5  -2    4.50    0.50
   0   5  -2    3.60    0.60
   0  -5   2    5.00    0.60
   0  -5   2    4.40    0.60
   0  -5   2    5.30    0.60
  -1   5  -2   18.30    1.20
  -1   5  -2   19.00    1.00
   1  -5   2   19.30    1.10
   1  -5   2   19.50    1.20
   1  -5   2   20.40    1.40
  -2   5  -2   48.00    2.30
  -2   5  -2   44.20    2.10
  -2   5  -2   48.40    2.30
   2  -5   2   49.99    2.30
   2  -5   2   46.00    2.30
  -3   5  -2   11.30    0.90
  -3   5  -2   10.70    0.90
   3  -5   2   10.40    0.90
   3  -5   2   10.50    1.00
   3  -5   2   10.60    0.90
  -4   5  -2    2.60    0.50
  -4   5  -2    2.00    0.50
  -4   5  -2    1.80    0.60
  -4   5  -2    3.40    0.70
   4  -5   2    3.00    0.70
   4  -5   2    2.60    0.50
  -5   5  -2   12.20    1.10
  -5   5  -2   11.80    0.90
   5  -5   2   12.30    1.00
   5  -5   2   14.00    1.20
  -6   5  -2   17.20    1.10
   6  -5   2   16.00    1.10
   6  -5   2   16.90    1.50
  -7   5  -2   30.20    2.00
  -7   5  -2   35.10    1.70
   7  -5   2   30.50    1.70
   7  -5   2   32.30    2.10
  -8   5  -2   22.20    1.60
  -8   5  -2   22.10    1.30
   8  -5   2   22.00    1.40
   8  -5   2   25.30    1.90
  -9   5  -2    1.60    0.80
  -9   5  -2    1.70    0.50
   9  -5   2    1.30    0.60
   9  -5   2    2.30    0.90
 -10   5  -2   27.80    2.00
 -10   5  -2   26.70    1.40
  10  -5   2   25.60    1.50
  10  -5   2   26.00    2.20
 -11   5  -2   13.20    0.90
 -11   5  -2   12.10    1.60
  11  -5   2   12.10    1.70
  11  -5   2    9.70    1.10
 -12   5  -2   10.30    2.40
  12  -5   2    7.20    1.50
 -13   5  -2   12.90    1.80
  13  -5   2   15.30    2.10
 -14   5  -2    1.10    1.30
  14  -5   2    0.60    1.30
 -15   5  -2    4.20    1.60
  15  -5   2    1.60    1.70
 -15  -4   2    0.00    1.30
 -15  -4   2   -0.20    1.40
  14   4  -2    0.20    1.00
 -14  -4   2    1.70    1.20
 -14  -4   2   -0.90    1.10
  13   4  -2    1.00    0.90
 -13  -4   2    1.20    1.10
 -13  -4   2    4.20    1.20
  12   4  -2   14.20    1.40
 -12  -4   2   12.10    1.70
 -12  -4   2   13.90    1.50
  11   4  -2    0.30    0.70
 -11  -4   2   -0.70    0.70
 -11  -4   2    0.80    0.80
  10   4  -2    0.70    0.60
  10   4  -2    0.80    1.00
 -10  -4   2    0.30    0.70
 -10  -4   2    0.20    0.80
 -10  -4   2    1.50    0.80
   9   4  -2   83.09    4.00
   9   4  -2   92.09    4.00
  -9  -4   2   91.69    4.20
  -9  -4   2   86.89    4.60
  -9  -4   2   89.39    4.00
   8   4  -2   62.79    3.20
   8   4  -2   68.69    3.20
  -8  -4   2   71.89    3.10
  -8  -4   2   67.69    3.30
  -8  -4   2   65.19    3.10
   7   4  -2    2.50    0.60
  -7  -4   2    2.40    0.60
  -7  -4   2    2.20    0.50
  -7  -4   2    2.60    0.50
   6   4  -2    0.40    0.40
  -6  -4   2    1.10    0.50
  -6  -4   2    1.10    0.40
  -6  -4   2    0.80    0.50
  -6  -4   2    1.40    0.40
   5   4  -2   51.99    2.60
   5   4  -2   57.09    2.70
  -5  -4   2   56.39    2.50
  -5  -4   2   55.19    2.40
  -5  -4   2   55.59    2.80
  -5  -4   2   56.79    2.70
   4   4  -2   33.00    1.70
   4   4  -2   32.70    1.80
  -4  -4   2   35.80    1.60
  -4  -4   2   35.90    1.50
  -4  -4   2   33.80    1.80
  -4  -4   2   32.30    1.80
   3   4  -2  221.58    9.00
   3   4  -2  218.18    8.80
   3   4  -2  221.08    9.00
  -3  -4   2  224.58    9.00
  -3  -4   2  214.28    9.00
   2   4  -2   12.80    0.80
   2   4  -2   12.50    0.70
   2   4  -2   13.20    0.90
  -2  -4   2   12.40    0.80
  -2  -4   2   12.90    0.90
  -2  -4   2   13.80    0.90
   1   4  -2   88.79    3.80
   1   4  -2   90.49    3.70
   1   4  -2   92.39    3.90
  -1  -4   2   82.79    3.90
  -1  -4   2   87.69    3.80
  -1  -4   2   95.99    3.70
   0   4  -2   20.00    1.20
   0   4  -2   20.30    1.00
   0   4  -2   18.20    1.10
   0  -4   2   21.40    1.10
   0  -4   2   21.40    1.10
   0  -4   2   19.40    1.20
  -1   4  -2  163.48    6.70
  -1   4  -2  172.78    6.90
  -1   4  -2  158.28    6.80
   1  -4   2  163.28    6.80
   1  -4   2  175.98    6.80
   1  -4   2  160.18    6.80
  -2   4  -2    1.30    0.40
  -2   4  -2    1.10    0.40
  -2   4  -2    1.50    0.40
   2  -4   2    3.20    0.50
   2  -4   2    3.10    0.50
   2  -4   2    2.80    0.50
  -3   4  -2  154.48    6.60
  -3   4  -2  167.98    6.70
  -3   4  -2  162.78    6.70
   3  -4   2  161.48    6.70
   3  -4   2  167.68    6.70
   3  -4   2  153.78    6.70
  -4   4  -2  201.28    8.20
  -4   4  -2  197.58    8.00
  -4   4  -2  196.28    8.10
   4  -4   2  200.38    8.20
   4  -4   2  188.98    8.00
  -5   4  -2   85.49    3.70
  -5   4  -2   79.89    3.50
  -5   4  -2   74.99    3.60
  -5   4  -2   77.39    3.60
   5  -4   2   81.19    3.50
   5  -4   2   84.29    3.70
  -6   4  -2   36.90    1.80
  -6   4  -2   38.00    2.00
   6  -4   2   38.10    2.20
   6  -4   2   37.80    1.90
  -7   4  -2   16.80    1.00
   7  -4   2   16.20    1.40
   7  -4   2   15.40    1.00
  -8   4  -2    9.70    0.80
  -8   4  -2    9.70    1.20
   8  -4   2    9.20    0.90
   8  -4   2   11.60    1.40
  -9   4  -2    2.50    0.50
  -9   4  -2    3.60    0.80
   9  -4   2    2.10    0.90
   9  -4   2    2.50    0.50
 -10   4  -2    7.30    1.20
 -10   4  -2    8.50    0.80
  10  -4   2    8.40    0.80
  10  -4   2    7.70    1.30
 -11   4  -2   16.10    1.70
 -11   4  -2   17.60    1.00
  11  -4   2   16.20    1.10
  11  -4   2   16.80    1.90
 -12   4  -2    2.90    1.00
  12  -4   2    2.40    1.20
 -13   4  -2    1.00    1.00
  13  -4   2    0.00    1.20
 -14   4  -2   10.90    1.80
  14  -4   2   12.00    1.90
 -15   4  -2   -0.80    1.40
  15  -4   2    2.70    1.60
 -15  -3   2    4.00    1.30
 -15  -3   2    2.20    1.40
  14   3  -2    5.50    0.80
 -14  -3   2    4.50    1.20
 -14  -3   2    7.60    1.40
  13   3  -2    2.20    1.30
  13   3  -2    1.80    0.70
 -13  -3   2    2.70    1.00
  12   3  -2    8.40    1.70
  12   3  -2    6.30    0.90
 -12  -3   2    5.70    1.20
  11   3  -2   39.40    2.10
 -11  -3   2   42.90    2.50
  10   3  -2   35.20    1.90
 -10  -3   2   35.10    2.20
   9   3  -2   37.00    2.00
   9   3  -2   36.40    1.90
  -9  -3   2   38.00    2.20
   8   3  -2   22.50    1.30
   8   3  -2   20.20    1.30
  -8  -3   2   19.90    1.40
  -8  -3   2   20.80    1.50
  -8  -3   2   22.10    1.40
   7   3  -2   42.30    2.00
  -7  -3   2   39.00    2.00
  -7  -3   2   40.10    2.00
   6   3  -2   16.50    1.00
   6   3  -2   15.90    1.30
  -6  -3   2   16.60    1.10
  -6  -3   2   14.20    1.00
  -6  -3   2   14.00    1.00
  -6  -3   2   15.10    1.10
   5   3  -2    2.50    0.50
   5   3  -2    2.50    0.50
  -5  -3   2    1.50    0.30
  -5  -3   2    1.50    0.40
  -5  -3   2    2.00    0.40
  -5  -3   2    1.50    0.40
   4   3  -2    8.00    0.70
   4   3  -2    7.90    0.70
  -4  -3   2    7.80    0.70
  -4  -3   2    8.00    0.60
  -4  -3   2    8.90    0.60
  -4  -3   2    8.60    0.70
   3   3  -2   27.30    1.40
   3   3  -2   26.90    1.40
  -3  -3   2   28.80    1.40
  -3  -3   2   29.00    1.50
   2   3  -2   23.30    1.10
   2   3  -2   21.40    1.10
   2   3  -2   20.90    1.20
  -2  -3   2   21.40    1.10
  -2  -3   2   19.10    1.20
  -2  -3   2   22.20    1.00
   1   3  -2    7.20    0.60
   1   3  -2    7.10    0.60
   1   3  -2    7.50    0.50
  -1  -3   2    7.40    0.60
  -1  -3   2    7.30    0.60
   0   3  -2   77.39    3.10
   0   3  -2   71.19    3.20
   0   3  -2   70.39    3.10
   0  -3   2   79.19    3.10
   0  -3   2   71.69    3.20
   0  -3   2   71.09    3.10
  -1   3  -2   72.39    3.10
  -1   3  -2   73.89    3.20
  -1   3  -2   74.59    3.10
   1  -3   2   71.89    3.20
   1  -3   2   76.89    3.10
   1  -3   2   73.19    3.10
  -2   3  -2    2.60    0.40
  -2   3  -2    2.80    0.40
  -2   3  -2    2.30    0.40
   2  -3   2    2.30    0.40
   2  -3   2    3.10    0.40
   2  -3   2    2.30    0.40
  -3   3  -2   41.00    1.90
  -3   3  -2   39.60    1.90
  -3   3  -2   41.70    1.90
  -3   3  -2   42.00    1.90
   3  -3   2   40.10    1.90
   3  -3   2   41.00    2.00
  -4   3  -2   75.09    3.40
  -4   3  -2   80.69    3.50
  -4   3  -2   79.79    3.40
  -4   3  -2   83.39    3.50
   4  -3   2   81.89    3.50
   4  -3   2   74.89    3.40
  -5   3  -2   35.00    1.90
  -5   3  -2   34.60    1.80
  -5   3  -2   35.60    1.80
  -5   3  -2   36.90    1.70
   5  -3   2   34.30    1.70
   5  -3   2   34.40    1.90
  -6   3  -2  233.28   10.10
  -6   3  -2  246.08   10.10
  -6   3  -2  251.27    9.90
  -6   3  -2  249.38   10.20
   6  -3   2  253.57   10.30
   6  -3   2  250.27   10.00
  -7   3  -2  103.39    4.60
  -7   3  -2  102.69    4.30
   7  -3   2  101.19    4.70
   7  -3   2  102.79    4.30
  -8   3  -2   53.29    2.40
  -8   3  -2   52.99    2.70
   8  -3   2   56.89    2.90
   8  -3   2   52.99    2.40
  -9   3  -2   59.59    2.60
  -9   3  -2   60.09    3.10
   9  -3   2   59.59    2.70
   9  -3   2   63.19    3.30
 -10   3  -2   14.00    1.40
 -10   3  -2   12.90    0.80
  10  -3   2   13.10    0.90
  10  -3   2   14.00    1.70
 -11   3  -2    9.70    1.40
  11  -3   2    9.20    1.50
  11  -3   2   11.40    1.20
 -12   3  -2    1.40    0.90
  12  -3   2   -0.10    0.90
 -13   3  -2   30.60    2.50
  13  -3   2   22.60    3.50
 -14   3  -2    6.10    1.50
  14  -3   2    5.80    1.60
 -15   3  -2    0.00    1.30
  15  -3   2    1.30    1.50
 -16   3  -2    4.40    1.60
  16  -3   2    3.90    1.80
  15   2  -2   -1.60    1.30
 -15  -2   2    0.80    1.20
  14   2  -2    3.00    1.30
 -14  -2   2    3.50    1.20
  13   2  -2    1.80    1.00
 -13  -2   2    4.30    1.10
  12   2  -2    9.50    0.80
  12   2  -2   10.10    1.00
 -12  -2   2   10.60    1.50
  11   2  -2    5.50    0.70
  11   2  -2    6.10    1.00
  11   2  -2    4.80    0.70
 -11  -2   2    5.30    1.00
  10   2  -2    7.50    0.80
  10   2  -2    8.30    0.90
  10   2  -2    8.70    1.10
 -10  -2   2    8.00    1.10
   9   2  -2    7.50    0.80
   9   2  -2    8.90    1.10
   9   2  -2    6.70    0.70
  -9  -2   2    7.10    1.00
  -9  -2   2    7.60    1.00
   8   2  -2  119.99    5.30
   8   2  -2  116.19    5.10
   8   2  -2  128.99    5.20
  -8  -2   2  125.59    5.40
  -8  -2   2  126.29    5.50
   7   2  -2   71.69    3.10
   7   2  -2   69.69    3.20
   7   2  -2   66.29    3.10
  -7  -2   2   68.39    3.20
  -7  -2   2   73.09    3.30
   6   2  -2  312.77   12.10
   6   2  -2  311.07   12.20
   6   2  -2  285.37   12.20
  -6  -2   2  292.27   12.10
  -6  -2   2  302.87   12.20
  -6  -2   2  299.37   12.10
   5   2  -2  450.85   17.60
   5   2  -2  431.36   17.70
  -5  -2   2  436.46   17.60
  -5  -2   2  442.96   17.60
  -5  -2   2  450.55   17.60
  -5  -2   2  448.46   17.70
   4   2  -2  326.17   12.70
   4   2  -2  308.97   12.70
  -4  -2   2  314.87   12.70
  -4  -2   2  319.97   12.70
  -4  -2   2  320.67   12.70
  -4  -2   2  315.57   12.70
   3   2  -2   14.70    0.80
   3   2  -2   13.60    0.80
  -3  -2   2   14.50    0.80
  -3  -2   2   14.90    0.80
  -3  -2   2   14.90    0.80
  -3  -2   2   13.60    0.80
   2   2  -2  221.08    8.60
   2   2  -2  204.48    8.50
   2   2  -2  215.48    8.60
  -2  -2   2  208.18    8.50
  -2  -2   2  209.78    8.60
  -2  -2   2  218.58    8.50
   1   2  -2   24.90    1.20
   1   2  -2   26.20    1.30
  -1  -2   2   27.50    1.30
  -1  -2   2   25.70    1.20
  -1  -2   2   26.40    1.20
   0   2  -2    5.70    0.40
   0   2  -2    5.50    0.40
   0   2  -2    5.10    0.40
   0  -2   2    3.80    0.40
   0  -2   2    3.80    0.30
   0  -2   2    4.10    0.40
  -1   2  -2    3.40    0.30
  -1   2  -2    3.00    0.30
  -1   2  -2    3.30    0.30
  -2   2  -2   32.80    1.60
  -2   2  -2   32.20    1.60
   2  -2   2   39.60    1.60
   2  -2   2   35.20    1.60
   2  -2   2   36.40    1.60
  -3   2  -2  312.47   12.20
  -3   2  -2  305.87   12.20
  -3   2  -2  319.77   12.20
  -3   2  -2  291.07   12.20
   3  -2   2  299.97   12.20
   3  -2   2  305.77   12.20
  -4   2  -2   64.89    2.80
  -4   2  -2   61.59    2.70
  -4   2  -2   60.99    2.80
  -4   2  -2   61.39    2.80
   4  -2   2   65.19    2.90
   4  -2   2   62.69    2.70
  -5   2  -2    3.20    0.50
  -5   2  -2    3.30    0.40
  -5   2  -2    2.90    0.50
   5  -2   2    5.00    0.60
   5  -2   2    6.00    0.70
  -6   2  -2   18.00    1.00
  -6   2  -2   17.70    1.20
  -6   2  -2   18.20    1.20
   6  -2   2   20.30    1.00
   6  -2   2   19.50    1.30
   6  -2   2   17.90    1.30
  -7   2  -2    3.90    0.70
  -7   2  -2    4.20    0.50
  -7   2  -2    3.60    0.70
   7  -2   2    3.10    0.60
   7  -2   2    4.30    0.80
   7  -2   2    4.30    0.50
  -8   2  -2    2.20    0.40
  -8   2  -2    1.80    0.60
   8  -2   2    2.40    0.40
  -9   2  -2    1.30    0.40
  -9   2  -2    1.20    0.70
   9  -2   2    1.30    0.70
   9  -2   2    1.20    0.40
 -10   2  -2    0.30    0.60
 -10   2  -2    0.90    0.40
  10  -2   2    1.40    0.80
  10  -2   2    0.30    0.40
 -11   2  -2   16.30    1.50
  11  -2   2   15.10    1.80
 -12   2  -2    2.00    0.90
  12  -2   2    0.40    1.00
 -13   2  -2    7.80    1.50
  13  -2   2    5.40    1.40
 -14   2  -2    7.80    1.50
  14  -2   2    6.40    1.50
 -15   2  -2    7.60    1.60
  15  -2   2    7.00    1.60
 -16   2  -2    0.70    1.40
  16  -2   2    3.40    1.70
  16   1  -2    6.20    1.70
 -16  -1   2    6.30    2.10
  15   1  -2    0.60    1.30
 -15  -1   2   -0.60    1.00
  14   1  -2   19.20    2.10
 -14  -1   2   12.20    1.70
  13   1  -2    0.50    1.10
 -13  -1   2    1.00    0.90
  12   1  -2    2.20    0.90
 -12  -1   2    2.60    0.90
  11   1  -2   13.50    0.80
  11   1  -2   13.40    1.50
 -11  -1   2   14.20    1.40
  10   1  -2    6.10    1.00
  10   1  -2    6.50    0.70
  10   1  -2    6.90    0.70
 -10  -1   2    6.10    0.90
   9   1  -2   15.50    0.90
   9   1  -2   15.50    1.30
   9   1  -2   15.00    0.90
  -9  -1   2   15.40    1.30
   8   1  -2    1.50    0.60
   8   1  -2    0.70    0.30
   8   1  -2    0.20    0.40
  -8  -1   2    0.20    0.50
  -8  -1   2    1.00    0.60
   7   1  -2   11.10    0.70
   7   1  -2    9.30    0.90
   7   1  -2    9.00    0.70
  -7  -1   2    8.70    0.90
  -7  -1   2   10.80    0.90
   6   1  -2   18.30    0.90
   6   1  -2   17.30    1.10
   6   1  -2   18.50    1.10
  -6  -1   2   18.00    1.10
  -6  -1   2   16.80    1.10
   5   1  -2  353.86   13.80
   5   1  -2  342.77   14.00
   5   1  -2  343.67   14.00
  -5  -1   2  348.47   14.00
  -5  -1   2  354.36   14.00
  -5  -1   2  346.97   13.80
   4   1  -2    0.20    0.30
   4   1  -2    0.50    0.20
   4   1  -2    0.70    0.30
  -4  -1   2    0.60    0.30
  -4  -1   2    1.10    0.30
  -4  -1   2    0.70    0.30
   3   1  -2   13.90    0.80
   3   1  -2   15.50    0.80
  -3  -1   2   14.20    0.80
  -3  -1   2   14.60    0.80
  -3  -1   2   15.20    0.80
  -3  -1   2   14.70    0.80
   2   1  -2    3.20    0.30
   2   1  -2    3.40    0.40
  -2  -1   2    3.40    0.30
  -2  -1   2    2.80    0.30
  -2  -1   2    3.30    0.30
   1   1  -2 1568.24   61.19
   1   1  -2 1555.24   61.29
  -1  -1   2 1587.74   61.19
  -1  -1   2 1542.45   61.19
   0   1  -2  160.28    6.30
   0   1  -2  166.68    6.40
   0   1  -2  157.18    6.40
   0  -1   2  156.28    6.30
   0  -1   2  159.88    6.30
   0  -1   2  156.48    6.40
  -1   1  -2  377.86   15.20
  -1   1  -2  383.26   15.30
  -1   1  -2  400.06   15.30
   1  -1   2  402.06   15.30
   1  -1   2  374.66   15.30
   1  -1   2  386.76   15.20
  -2   1  -2 3655.23  136.09
  -2   1  -2 3306.77  135.99
  -3   1  -2    4.50    0.50
   3  -1   2    5.20    0.50
   3  -1   2    6.90    0.60
   3  -1   2    6.80    0.40
  -4   1  -2    5.80    0.40
  -4   1  -2    5.50    0.50
  -4   1  -2    5.70    0.50
   4  -1   2    3.90    0.40
   4  -1   2    4.20    0.50
  -5   1  -2  161.38    6.60
  -5   1  -2  157.78    6.60
  -5   1  -2  163.18    6.50
   5  -1   2  164.88    6.50
   5  -1   2  169.48    6.70
   5  -1   2  153.08    6.60
  -6   1  -2    8.30    0.60
  -6   1  -2    8.40    0.80
  -6   1  -2    7.90    0.80
   6  -1   2    9.80    0.90
   6  -1   2    9.60    0.60
   6  -1   2   10.50    0.80
  -7   1  -2   24.40    1.50
  -7   1  -2   26.40    1.30
  -7   1  -2   27.40    1.60
   7  -1   2   27.40    1.60
   7  -1   2   28.00    1.30
   7  -1   2   26.30    1.50
  -8   1  -2   66.89    3.10
  -8   1  -2   66.69    2.80
   8  -1   2   68.09    3.30
   8  -1   2   63.59    2.80
  -9   1  -2   91.29    4.20
  -9   1  -2   92.09    3.80
   9  -1   2   92.69    4.30
   9  -1   2   89.49    3.80
 -10   1  -2   23.70    1.20
 -10   1  -2   23.90    1.70
  10  -1   2   24.00    1.20
  10  -1   2   24.30    1.90
 -11   1  -2   87.19    4.10
  11  -1   2   86.99    4.30
  11  -1   2   79.49    3.60
 -12   1  -2   16.90    1.70
  12  -1   2   16.00    1.90
 -13   1  -2   16.70    1.80
  13  -1   2   21.20    2.10
 -14   1  -2    8.60    1.50
 -15   1  -2    0.10    1.30
  15  -1   2    1.40    1.40
 -16   1  -2    3.00    1.60
  16  -1   2    4.40    1.60
  16   0  -2    6.00    1.80
 -16   0   2    6.00    1.60
  15   0  -2    4.10    1.50
 -15   0   2    3.60    1.20
  14   0  -2    1.20    1.30
 -14   0   2    0.60    1.00
  13   0  -2   44.80    2.90
 -13   0   2   38.90    2.70
  12   0  -2    4.80    1.10
 -12   0   2    5.60    1.10
  11   0  -2   12.20    1.50
 -11   0   2   10.90    1.40
  10   0  -2    8.00    1.10
 -10   0   2    7.20    1.00
   9   0  -2   66.89    3.30
  -9   0   2   67.49    3.30
   8   0  -2  100.19    4.00
   8   0  -2  100.59    4.00
   8   0  -2  100.99    4.50
  -8   0   2   90.99    4.40
   7   0  -2   66.09    2.60
   7   0  -2   59.89    2.90
   7   0  -2   64.99    3.00
   7   0  -2   62.29    2.60
  -7   0   2   62.69    3.10
  -7   0   2   64.49    3.00
   6   0  -2  168.28    7.20
   6   0  -2  165.28    6.80
   6   0  -2  173.18    7.10
   6   0  -2  173.88    6.80
  -6   0   2  167.78    7.10
  -6   0   2  176.58    7.10
   5   0  -2   59.19    2.80
   5   0  -2   62.59    2.80
   5   0  -2   62.99    2.60
  -5   0   2   63.79    2.60
  -5   0   2   62.99    2.80
  -5   0   2   62.19    2.80
   4   0  -2  277.77   10.70
   4   0  -2  274.27   11.00
   4   0  -2  262.67   10.90
  -4   0   2  272.97   10.90
  -4   0   2  272.47   10.90
  -4   0   2  271.67   10.80
   3   0  -2   72.99    2.90
   3   0  -2   70.79    3.00
   3   0  -2   69.49    3.10
  -3   0   2   70.59    3.00
  -3   0   2   74.89    2.90
  -3   0   2   72.99    3.10
   2   0  -2    2.00    0.20
  -2   0   2    0.80    0.20
  -2   0   2    1.30    0.20
  -2   0   2    1.00    0.20
  -2   0   2    0.90    0.20
   1   0  -2  197.98    7.80
   1   0  -2  195.48    7.80
   1   0  -2  200.88    7.80
  -1   0   2  197.18    7.80
  -1   0   2  193.58    7.80
  -1   0   2  192.28    7.80
   0   0  -2   61.29    2.60
   0   0  -2   60.19    2.50
   0   0  -2   62.89    2.60
   0   0   2   62.49    2.60
   0   0   2   62.69    2.50
   0   0   2   66.29    2.60
  -1   0  -2  139.99    5.40
  -1   0  -2  139.59    5.50
   1   0   2  131.39    5.50
   1   0   2  139.29    5.50
  -2   0  -2  116.49    4.80
   2   0   2  130.39    4.80
   2   0   2  113.29    4.80
   2   0   2  115.19    4.80
  -3   0  -2 9536.35  379.36
  -3   0  -2 9448.15  387.16
   3   0   2 9999.00  388.86
   3   0   2 9804.32  379.36
  -4   0  -2  533.65   21.00
  -4   0  -2  526.65   21.00
  -4   0  -2  547.35   21.00
   4   0   2  513.75   21.00
   4   0   2  544.45   21.00
   4   0   2  523.65   20.90
  -5   0  -2    3.70    0.40
  -5   0  -2    3.10    0.50
  -5   0  -2    2.40    0.40
   5   0   2    3.10    0.40
   5   0   2    2.70    0.50
   5   0   2    3.40    0.50
  -6   0  -2   32.10    1.60
  -6   0  -2   30.00    1.40
  -6   0  -2   27.40    1.50
   6   0   2   31.00    1.60
   6   0   2   31.50    1.60
   6   0   2   30.30    1.40
  -7   0  -2  103.89    4.60
  -7   0  -2  107.09    4.50
  -7   0  -2  106.09    4.30
   7   0   2  103.19    4.50
   7   0   2  101.99    4.50
   7   0   2   97.99    4.20
  -8   0  -2   88.29    4.20
  -8   0  -2   99.89    4.30
  -8   0  -2   96.09    4.00
   8   0   2   99.29    4.40
   8   0   2   97.89    4.00
  -9   0  -2  116.29    4.80
  -9   0  -2  120.09    5.20
   9   0   2  111.69    4.80
   9   0   2  118.69    5.30
 -10   0  -2   91.79    3.80
 -10   0  -2   92.79    4.20
  10   0   2   92.19    4.30
  10   0   2   84.19    3.80
 -11   0  -2   11.50    1.30
  11   0   2    8.10    0.80
  11   0   2   11.10    1.40
 -12   0  -2    0.70    0.90
  12   0   2    0.30    0.90
  12   0   2    0.30    0.50
 -13   0  -2    8.90    1.40
  13   0   2   10.30    1.60
 -14   0  -2   14.30    1.90
  14   0   2   16.00    2.00
 -15   0  -2    6.90    1.60
  15   0   2    8.10    1.60
 -16   0  -2    3.80    1.40
  16   0   2    4.70    1.70
  16  -1  -2    3.60    1.80
 -16   1   2    2.50    1.40
  15  -1  -2    5.80    1.50
 -15   1   2    4.00    1.20
 -14   1   2   -0.60    1.00
  13  -1  -2    7.40    1.40
 -13   1   2    9.90    1.50
  12  -1  -2    0.30    0.90
 -12   1   2    0.20    0.70
  11  -1  -2   30.80    2.20
 -11   1   2   31.70    2.10
  10  -1  -2   19.10    1.60
 -10   1   2   20.10    1.50
   9  -1  -2    1.00    0.60
  -9   1   2    1.30    0.60
   8  -1  -2    8.60    1.10
   7  -1  -2   60.89    3.00
   7  -1  -2   66.29    3.10
  -7   1   2   66.19    3.00
  -7   1   2   63.19    3.00
   6  -1  -2  423.46   17.00
   6  -1  -2  420.86   16.90
  -6   1   2  413.66   16.90
  -6   1   2  422.16   16.80
   5  -1  -2   11.80    0.80
   5  -1  -2   12.80    0.90
  -5   1   2   15.70    0.90
  -5   1   2   13.20    0.90
   4  -1  -2   64.99    2.90
   4  -1  -2   65.09    2.60
   4  -1  -2   63.59    2.80
  -4   1   2   64.49    2.90
  -4   1   2   66.69    2.80
  -4   1   2   64.99    2.60
   3  -1  -2   40.20    1.60
   3  -1  -2   41.80    1.80
   3  -1  -2   40.50    1.80
  -3   1   2   36.30    1.80
  -3   1   2   37.10    1.60
  -3   1   2   37.80    1.70
   2  -1  -2   90.99    3.60
   2  -1  -2   97.19    3.90
  -2   1   2   87.99    3.80
  -2   1   2   90.49    3.60
  -2   1   2   90.99    3.70
  -1   1   2    9.60    0.50
  -1   1   2    8.60    0.50
  -1   1   2    8.40    0.40
  -1   1   2    9.50    0.40
   0  -1  -2 1001.40   39.60
   0   1   2 1029.10   39.50
   0   1   2  999.80   39.60
  -1  -1  -2  175.08    6.80
  -1  -1  -2  174.78    6.80
  -1  -1  -2  173.78    6.90
   1   1   2  169.48    6.80
   1   1   2  167.38    6.90
   1   1   2  176.28    6.80
  -2  -1  -2  380.36   14.90
  -2  -1  -2  387.66   14.80
  -2  -1  -2  371.96   14.80
   2   1   2  373.36   14.80
   2   1   2  379.16   14.80
   2   1   2  371.06   14.90
  -3  -1  -2  119.79    4.90
  -3  -1  -2  129.59    5.00
  -3  -1  -2  120.79    4.90
   3   1   2  115.89    4.90
   3   1   2  116.39    4.90
   3   1   2  123.39    4.90
  -4  -1  -2  300.57   12.00
  -4  -1  -2  293.67   11.90
  -4  -1  -2  326.47   12.00
   4   1   2  288.17   12.00
   4   1   2  306.57   12.00
   4   1   2  287.87   11.90
  -5  -1  -2  274.87   11.00
  -5  -1  -2  270.97   10.90
  -5  -1  -2  272.47   10.90
   5   1   2  277.57   11.00
   5   1   2  277.87   10.90
   5   1   2  270.17   11.00
  -6  -1  -2  129.69    5.10
  -6  -1  -2  118.29    5.10
  -6  -1  -2  126.79    5.20
   6   1   2  126.29    5.20
   6   1   2  122.39    5.10
   6   1   2  121.19    5.20
  -7  -1  -2   10.40    0.80
  -7  -1  -2   10.60    0.70
  -7  -1  -2   10.70    0.90
   7   1   2   10.90    0.90
   7   1   2   10.80    0.90
   7   1   2   10.60    0.70
  -8  -1  -2   17.20    1.30
  -8  -1  -2   16.90    1.20
  -8  -1  -2   19.10    1.10
   8   1   2   18.70    1.30
   8   1   2   19.30    1.00
  -9  -1  -2   21.20    1.50
  -9  -1  -2   21.90    1.20
  -9  -1  -2   21.80    1.60
   9   1   2   22.40    1.20
   9   1   2   23.20    1.50
 -10  -1  -2    8.90    1.10
  10   1   2    7.50    0.70
 -11  -1  -2   22.50    1.70
  11   1   2   20.60    1.20
  11   1   2   23.10    1.30
  11   1   2   25.70    1.90
 -12  -1  -2    3.90    1.10
  12   1   2    5.00    0.60
  12   1   2    4.20    0.70
  12   1   2    5.20    1.30
 -13  -1  -2    2.80    1.00
  13   1   2    1.80    1.10
  13   1   2    2.00    0.60
  13   1   2    3.60    0.60
 -14  -1  -2   11.60    1.70
  14   1   2   13.30    1.70
 -15  -1  -2    2.20    1.30
 -16  -1  -2    2.00    1.30
  16   1   2    0.70    1.50
  16  -2  -2    7.80    1.90
 -16   2   2    9.60    1.80
  15  -2  -2   10.50    1.80
 -15   2   2    9.80    1.70
  14  -2  -2    9.40    1.70
 -14   2   2    8.20    1.50
  13  -2  -2   44.30    3.00
 -13   2   2   42.30    2.70
  12  -2  -2   45.40    2.90
 -12   2   2   44.70    2.70
  11  -2  -2    0.40    0.80
 -11   2   2    0.90    0.70
  10  -2  -2   36.80    2.30
 -10   2   2   35.90    2.20
   9  -2  -2   95.09    4.50
  -9   2   2   96.89    4.40
   8  -2  -2  168.38    7.40
  -8   2   2  176.08    7.60
   7  -2  -2   28.90    1.80
   7  -2  -2   29.50    1.80
  -7   2   2   31.90    1.70
  -7   2   2   25.20    1.70
   6  -2  -2   84.59    3.70
   6  -2  -2   79.99    3.60
  -6   2   2   83.39    3.60
  -6   2   2   77.69    3.70
   5  -2  -2   92.99    4.10
   5  -2  -2   92.99    4.20
  -5   2   2   97.19    4.10
  -5   2   2   96.79    4.20
   4  -2  -2  354.66   14.50
   4  -2  -2  369.66   14.70
  -4   2   2  360.66   14.60
  -4   2   2  375.56   14.60
   3  -2  -2   19.70    1.00
   3  -2  -2   18.90    1.00
   3  -2  -2   18.60    0.80
  -3   2   2   18.00    1.00
  -3   2   2   17.50    1.00
  -3   2   2   18.10    0.80
   2  -2  -2   26.40    1.30
   2  -2  -2   24.20    1.20
   2  -2  -2   28.10    1.10
  -2   2   2   25.80    1.10
  -2   2   2   25.40    1.30
   1  -2  -2  161.38    6.60
   1  -2  -2  161.88    6.50
  -1   2   2  164.28    6.50
  -1   2   2  169.28    6.50
  -1   2   2  160.78    6.50
   0  -2  -2  200.58    7.90
   0  -2  -2  198.68    7.80
   0   2   2  192.48    7.80
   0   2   2  202.28    7.90
   0   2   2  198.08    7.90
   0   2   2  198.28    7.90
  -1  -2  -2  234.88    9.40
  -1  -2  -2  236.48    9.30
  -1  -2  -2  238.78    9.40
   1   2   2  245.68    9.30
   1   2   2  229.48    9.30
  -2  -2  -2  390.76   15.20
  -2  -2  -2  386.46   15.20
   2   2   2  381.26   15.20
   2   2   2  390.56   15.30
   2   2   2  382.16   15.20
  -3  -2  -2  121.89    4.80
  -3  -2  -2  124.79    4.90
  -3  -2  -2  124.19    5.00
   3   2   2  123.19    4.90
   3   2   2  117.19    5.00
   3   2   2  116.89    4.90
  -4  -2  -2    4.00    0.40
  -4  -2  -2    3.10    0.40
  -4  -2  -2    3.00    0.40
   4   2   2    3.10    0.40
   4   2   2    3.80    0.50
  -5  -2  -2    6.10    0.60
  -5  -2  -2    5.30    0.50
  -5  -2  -2    5.10    0.50
   5   2   2    5.90    0.50
   5   2   2    5.70    0.50
   5   2   2    6.00    0.50
  -6  -2  -2  186.28    7.40
  -6  -2  -2  182.58    7.30
  -6  -2  -2  184.88    7.30
   6   2   2  168.68    7.40
   6   2   2  179.18    7.30
   6   2   2  175.48    7.30
  -7  -2  -2   41.90    2.00
  -7  -2  -2   38.00    1.90
  -7  -2  -2   40.60    1.90
   7   2   2   41.60    1.90
   7   2   2   39.20    2.00
   7   2   2   38.30    2.00
  -8  -2  -2    4.10    0.60
  -8  -2  -2    4.20    0.70
  -8  -2  -2    3.60    0.60
   8   2   2    3.30    0.50
   8   2   2    4.00    0.70
  -9  -2  -2   73.39    3.60
  -9  -2  -2   84.49    3.80
   9   2   2   83.79    3.80
   9   2   2   80.79    3.50
 -10  -2  -2    6.80    1.00
  10   2   2    6.60    0.70
  10   2   2    5.60    1.00
  10   2   2    4.90    0.70
 -11  -2  -2    0.40    0.70
  11   2   2   -0.40    0.70
  11   2   2    0.10    0.50
  11   2   2    0.00    0.50
 -12  -2  -2    4.70    1.10
  12   2   2    4.70    1.00
  12   2   2    5.20    0.70
  12   2   2    4.10    0.70
 -13  -2  -2    3.10    1.10
  13   2   2    1.40    0.60
  13   2   2    1.40    0.70
  13   2   2    1.50    0.90
 -14  -2  -2   12.70    1.70
  14   2   2   11.20    1.00
  14   2   2    8.00    1.00
  14   2   2   13.80    1.70
 -15  -2  -2   13.80    1.90
  15   2   2   16.00    2.00
 -16  -2  -2    5.10    1.50
  16   2   2    5.20    1.80
  16  -3  -2   -1.10    1.50
  15  -3  -2    2.10    1.50
 -15   3   2    0.30    1.10
  14  -3  -2    4.00    1.40
 -14   3   2    0.90    1.10
 -13   3   2   11.00    1.50
  12  -3  -2    6.70    1.30
 -12   3   2    8.60    1.30
  11  -3  -2   12.30    1.60
 -11   3   2   13.10    1.40
  10  -3  -2    9.10    1.30
 -10   3   2    9.30    1.20
   9  -3  -2    4.90    1.00
  -9   3   2    5.60    0.90
   8  -3  -2   55.59    3.00
  -8   3   2   56.99    2.80
   7  -3  -2   86.09    4.10
  -7   3   2   86.99    3.90
   6  -3  -2  242.38    9.90
   6  -3  -2  226.78    9.70
  -6   3   2  237.18    9.80
  -6   3   2  248.48    9.80
   5  -3  -2  130.79    5.60
   5  -3  -2  130.09    5.50
  -5   3   2  128.79    5.60
  -5   3   2  131.79    5.50
   4  -3  -2   62.69    2.80
   4  -3  -2   61.99    2.70
  -4   3   2   60.89    2.50
  -4   3   2   57.79    2.80
  -4   3   2   60.59    2.70
  -4   3   2   59.49    2.50
   3  -3  -2  282.97   11.40
   3  -3  -2  275.77   11.30
  -3   3   2  282.57   11.20
  -3   3   2  296.17   11.20
  -3   3   2  276.77   11.40
  -3   3   2  282.57   11.30
   2  -3  -2   32.70    1.60
  -2   3   2   36.20    1.60
  -2   3   2   35.50    1.50
  -2   3   2   34.30    1.60
  -2   3   2   33.80    1.60
   1  -3  -2   41.70    1.90
   1  -3  -2   40.30    1.80
  -1   3   2   41.60    1.90
  -1   3   2   40.40    1.80
  -1   3   2   43.60    1.90
   0  -3  -2  166.58    6.70
   0  -3  -2  162.98    6.70
   0   3   2  165.28    6.70
   0   3   2  170.68    6.70
   0   3   2  168.98    6.70
  -1  -3  -2  335.67   13.50
  -1  -3  -2  341.17   13.40
   1   3   2  323.57   13.50
   1   3   2  350.66   13.40
   1   3   2  339.07   13.30
   1   3   2  343.37   13.40
   2   3   2    5.00    0.30
   2   3   2    4.60    0.40
   2   3   2    5.10    0.40
  -3  -3  -2   34.00    1.50
  -3  -3  -2   34.50    1.60
  -3  -3  -2   33.30    1.40
   3   3   2   32.40    1.60
   3   3   2   32.20    1.50
   3   3   2   34.60    1.40
  -4  -3  -2  143.19    5.80
  -4  -3  -2  138.79    5.60
  -4  -3  -2  144.89    5.80
   4   3   2  136.59    5.80
   4   3   2  136.69    5.80
   4   3   2  143.39    5.60
  -5  -3  -2   42.10    1.90
  -5  -3  -2   38.90    1.70
  -5  -3  -2   39.30    1.90
   5   3   2   40.70    1.90
   5   3   2   39.10    1.80
   5   3   2   40.40    1.90
  -6  -3  -2    1.30    0.40
  -6  -3  -2    1.80    0.40
  -6  -3  -2    1.80    0.30
   6   3   2    0.90    0.40
   6   3   2    0.90    0.50
   6   3   2    1.20    0.30
  -7  -3  -2    5.90    0.60
  -7  -3  -2    7.30    0.90
   7   3   2    5.40    0.70
   7   3   2    5.50    0.70
   7   3   2    5.40    0.70
  -8  -3  -2    1.60    0.60
  -8  -3  -2    2.50    0.50
   8   3   2    2.30    0.50
   8   3   2    2.00    0.50
   8   3   2    2.10    0.50
  -9  -3  -2   11.30    1.10
  -9  -3  -2   10.20    1.50
   9   3   2   10.10    1.10
   9   3   2   10.80    1.00
   9   3   2   11.30    1.00
 -10  -3  -2    2.50    0.70
 -10  -3  -2    2.20    0.80
  10   3   2    2.50    0.70
  10   3   2    1.60    0.60
  10   3   2    1.70    0.70
 -11  -3  -2    3.00    0.80
  11   3   2    4.70    0.90
  11   3   2    4.80    0.80
 -12  -3  -2    0.50    0.80
  12   3   2   -1.10    0.60
  12   3   2    0.20    0.80
 -13  -3  -2   17.80    1.80
  13   3   2   20.80    1.90
  13   3   2   17.90    1.40
 -14  -3  -2   52.79    3.30
  14   3   2   53.69    3.30
 -15  -3  -2    5.00    1.40
  15   3   2    5.60    0.90
  15   3   2    6.30    1.60
 -16  -3  -2    1.80    1.30
  15  -4  -2   15.10    2.20
 -15   4   2   14.10    1.80
  14  -4  -2    8.00    1.70
 -14   4   2    6.90    1.30
  13  -4  -2    0.60    1.10
 -13   4   2    1.10    0.90
  12  -4  -2   -0.10    1.00
 -12   4   2    1.20    0.90
  11  -4  -2    0.50    1.00
 -11   4   2   -0.40    0.70
  10  -4  -2    0.50    0.80
 -10   4   2   -0.50    0.60
   9  -4  -2   72.49    3.80
  -9   4   2   76.49    3.70
   8  -4  -2    2.40    0.70
  -8   4   2    3.10    0.70
   7  -4  -2   11.30    1.40
  -7   4   2    9.20    0.90
   6  -4  -2   11.20    0.90
   6  -4  -2   10.60    1.00
  -6   4   2    9.70    0.50
  -6   4   2    9.90    0.90
  -6   4   2    9.10    1.00
  -6   4   2   10.40    0.50
   5  -4  -2   35.60    1.90
   5  -4  -2   35.40    1.80
  -5   4   2   35.30    1.80
  -5   4   2   34.30    1.50
  -5   4   2   33.60    1.80
  -5   4   2   37.20    1.60
   4  -4  -2   18.10    1.20
  -4   4   2   16.30    1.10
  -4   4   2   19.00    1.10
  -4   4   2   18.70    1.10
  -4   4   2   20.30    0.90
   3  -4  -2    1.10    0.40
  -3   4   2    1.70    0.30
  -3   4   2    1.80    0.40
  -3   4   2    1.00    0.40
  -3   4   2    2.10    0.40
  -3   4   2    1.40    0.30
   2  -4  -2   87.99    3.90
  -2   4   2   85.39    3.90
  -2   4   2   95.69    3.80
  -2   4   2   92.99    3.80
  -2   4   2   93.79    3.80
   1  -4  -2   38.30    1.70
   1  -4  -2   38.30    1.80
  -1   4   2   39.50    1.70
  -1   4   2   35.40    1.70
  -1   4   2   37.70    1.80
  -1   4   2   39.00    1.80
   0  -4  -2    2.10    0.30
   0  -4  -2    2.90    0.40
   0   4   2    4.10    0.50
   0   4   2    3.50    0.40
   0   4   2    3.00    0.40
  -1  -4  -2  117.59    5.00
   1   4   2  120.89    4.90
   1   4   2  121.69    5.10
   1   4   2  123.39    5.00
   1   4   2  124.39    5.10
  -2  -4  -2   16.10    0.80
  -2  -4  -2   14.70    0.90
   2   4   2   14.30    0.80
   2   4   2   14.00    0.60
   2   4   2   13.30    0.70
   2   4   2   15.80    0.90
  -3  -4  -2   17.90    1.00
  -3  -4  -2   17.60    0.90
   3   4   2   13.20    0.80
   3   4   2   14.80    0.70
   3   4   2   13.40    0.90
  -4  -4  -2  136.39    5.20
  -4  -4  -2  138.69    5.50
   4   4   2  135.59    5.30
   4   4   2  123.39    5.50
   4   4   2  125.49    5.50
   5   4   2    2.70    0.30
   5   4   2    3.10    0.60
   5   4   2    2.50    0.50
   5   4   2    2.80    0.50
  -6  -4  -2  250.07    9.60
  -6  -4  -2  236.08    9.30
   6   4   2  234.68    9.60
   6   4   2  233.18    9.40
   6   4   2  222.48    9.60
   6   4   2  230.38    9.60
  -7  -4  -2   70.89    3.10
  -7  -4  -2   77.39    3.30
   7   4   2   70.99    3.30
   7   4   2   71.69    3.20
   7   4   2   71.09    3.30
  -8  -4  -2   93.99    4.00
   8   4   2   96.29    4.30
   8   4   2   99.09    4.20
  -9  -4  -2   45.40    2.20
  -9  -4  -2   49.50    2.60
   9   4   2   50.09    2.40
   9   4   2   48.10    2.40
   9   4   2   48.90    2.50
 -10  -4  -2   72.39    3.60
 -10  -4  -2   85.49    3.90
  10   4   2   80.39    3.70
  10   4   2   87.29    3.80
  10   4   2   82.79    3.80
 -11  -4  -2   26.80    1.90
 -11  -4  -2   21.50    1.70
  11   4   2   26.30    1.80
  11   4   2   25.40    1.70
  11   4   2   27.70    1.70
 -12  -4  -2   17.10    1.70
  12   4   2   18.10    1.40
  12   4   2   16.70    1.60
  13   4   2    4.50    0.90
  13   4   2    6.70    1.20
 -14  -4  -2    2.60    1.20
  14   4   2    1.80    1.20
  14   4   2   -0.40    0.80
 -15  -4  -2    6.20    1.70
  15   4   2    8.00    1.60
  15   4   2    6.30    1.20
 -16  -4  -2    2.10    1.40
  16   4   2   -0.10    1.60
  15  -5  -2    2.70    1.70
 -15   5   2    2.30    1.20
  14  -5  -2    6.80    1.60
 -14   5   2    2.20    1.10
  13  -5  -2    0.30    1.20
 -13   5   2    0.40    1.00
  11  -5  -2   19.10    1.90
 -11   5   2   16.50    1.60
  10  -5  -2   30.50    2.20
 -10   5   2   28.20    2.00
   9  -5  -2   11.50    1.40
  -9   5   2   11.50    1.20
   8  -5  -2  196.88    8.60
  -8   5   2  197.68    8.40
   7  -5  -2  179.68    7.60
  -7   5   2  174.68    7.00
  -7   5   2  174.28    7.00
  -7   5   2  172.58    7.40
   6  -5  -2   31.80    1.90
  -6   5   2   30.70    1.40
  -6   5   2   30.40    1.80
  -5   5   2    2.20    0.40
  -5   5   2    1.70    0.50
  -5   5   2    2.40    0.40
  -5   5   2    1.50    0.50
  -5   5   2    1.70    0.50
   4  -5  -2    7.30    0.90
  -4   5   2    6.40    0.80
  -4   5   2    5.30    0.70
  -4   5   2    4.90    0.50
  -4   5   2    5.00    0.50
   3  -5  -2   90.59    3.90
  -3   5   2   89.59    3.80
  -3   5   2   82.79    3.90
  -3   5   2   90.79    3.90
  -3   5   2   89.29    3.90
  -3   5   2   90.69    3.80
   2  -5  -2   29.40    1.50
   2  -5  -2   26.60    1.40
  -2   5   2   27.20    1.40
  -2   5   2   25.50    1.40
  -2   5   2   26.30    1.40
  -2   5   2   26.10    1.40
   1  -5  -2    4.10    0.50
   1  -5  -2    6.70    0.70
  -1   5   2    6.40    0.60
  -1   5   2    6.40    0.60
  -1   5   2    6.00    0.50
  -1   5   2    6.30    0.60
   0  -5  -2  329.57   13.20
   0  -5  -2  331.27   13.10
   0   5   2  330.07   13.10
   0   5   2  325.27   13.20
   0   5   2  330.27   13.20
   0   5   2  330.47   13.10
  -1  -5  -2  173.78    6.90
  -1  -5  -2  178.48    7.00
   1   5   2  171.28    7.00
   1   5   2  175.18    6.90
   1   5   2  169.88    7.10
   1   5   2  167.78    7.10
  -2  -5  -2   21.80    1.10
   2   5   2   18.70    1.20
   2   5   2   19.30    0.90
   2   5   2   20.50    1.20
   2   5   2   19.50    1.10
   2   5   2   20.40    0.90
  -3  -5  -2   58.99    2.50
   3   5   2   56.09    2.60
   3   5   2   53.59    2.60
   3   5   2   54.99    2.50
  -4  -5  -2   24.70    1.30
   4   5   2   23.00    1.40
   4   5   2   22.00    1.30
   4   5   2   21.90    1.30
  -5  -5  -2   -0.10    0.30
   5   5   2   -0.30    0.40
   5   5   2    0.20    0.30
   5   5   2    0.10    0.40
  -6  -5  -2   37.40    1.90
  -6  -5  -2   34.90    1.50
   6   5   2   33.30    1.80
   6   5   2   37.20    1.90
   6   5   2   37.50    2.00
   6   5   2   36.50    1.60
  -7  -5  -2   25.90    1.60
  -7  -5  -2   25.00    1.20
   7   5   2   26.80    1.60
   7   5   2   27.60    1.40
   7   5   2   29.90    1.70
  -8  -5  -2    1.50    0.40
  -8  -5  -2    0.90    0.60
   8   5   2    2.00    0.40
   8   5   2    1.50    0.60
   8   5   2    1.60    0.60
  -9  -5  -2    5.90    0.60
  -9  -5  -2    6.10    0.90
   9   5   2    5.70    0.90
   9   5   2    5.20    0.70
 -10  -5  -2    5.90    1.10
 -10  -5  -2    3.80    0.60
  10   5   2    3.60    0.70
  10   5   2    4.40    0.90
 -11  -5  -2   10.20    1.40
 -11  -5  -2    7.80    0.90
  11   5   2    9.50    1.10
  11   5   2    9.70    1.20
 -12  -5  -2    6.20    1.20
  12   5   2    6.40    1.10
 -13  -5  -2    0.40    1.00
  13   5   2    3.10    0.90
  13   5   2    3.10    1.10
 -14  -5  -2   10.20    1.70
  14   5   2    8.60    1.20
  14   5   2   12.60    1.50
 -15  -5  -2   12.70    2.00
  15   5   2   11.60    1.50
  15   5   2   12.10    1.70
 -16  -5  -2    7.10    1.70
  16   5   2   10.70    1.90
  15  -6  -2    1.20    1.60
 -15   6   2    1.10    1.50
  14  -6  -2   11.90    2.00
 -14   6   2   10.60    1.60
  13  -6  -2    3.60    1.50
 -13   6   2    3.00    1.10
  12  -6  -2   12.30    2.50
 -12   6   2    8.00    1.30
  11  -6  -2    5.80    1.20
 -11   6   2    4.60    1.10
  10  -6  -2    0.50    0.90
 -10   6   2    0.40    0.70
   9  -6  -2    0.40    0.80
  -9   6   2    0.90    0.70
   8  -6  -2   14.90    1.60
  -8   6   2   15.30    1.40
  -8   6   2   16.30    0.80
   7  -6  -2   48.00    2.80
  -7   6   2   51.09    2.60
  -7   6   2   50.79    2.20
  -7   6   2   49.00    2.20
   6  -6  -2   37.70    2.40
  -6   6   2   34.10    1.70
  -6   6   2   34.80    1.70
  -6   6   2   37.50    2.00
   5  -6  -2    5.10    0.90
  -5   6   2    4.50    0.50
  -5   6   2    3.60    0.50
  -5   6   2    3.00    0.70
   4  -6  -2  130.99    5.50
  -4   6   2  116.59    5.30
  -4   6   2  125.09    5.20
  -4   6   2  122.59    5.30
  -4   6   2  124.09    5.20
  -4   6   2  124.69    5.30
   3  -6  -2   32.50    1.70
  -3   6   2   31.50    1.60
  -3   6   2   28.10    1.60
  -3   6   2   31.40    1.60
  -3   6   2   31.70    1.60
   2  -6  -2   97.49    4.30
   2  -6  -2  101.79    4.30
  -2   6   2   98.49    4.30
  -2   6   2  100.49    4.30
  -2   6   2  101.59    4.30
   1  -6  -2  150.08    6.20
   1  -6  -2  154.78    6.30
  -1   6   2  146.99    6.20
  -1   6   2  153.88    6.40
  -1   6   2  149.79    6.20
  -1   6   2  149.69    6.30
   0  -6  -2   13.20    0.80
   0  -6  -2   14.20    0.90
   0   6   2   11.70    0.80
   0   6   2   10.70    0.80
   0   6   2   11.70    0.90
   0   6   2   12.30    0.90
  -1  -6  -2  220.28    9.20
  -1  -6  -2  235.68    9.30
   1   6   2  227.18    9.30
   1   6   2  236.58    9.50
   1   6   2  228.18    9.40
  -2  -6  -2  523.35   20.60
   2   6   2  519.35   20.30
   2   6   2  522.85   20.70
   2   6   2  505.85   20.60
  -3  -6  -2  321.77   12.90
   3   6   2  321.37   13.00
   3   6   2  315.97   13.00
  -4  -6  -2  230.98    9.00
   4   6   2  223.98    9.10
   4   6   2  209.18    9.00
   4   6   2  212.18    9.10
  -5  -6  -2   63.69    2.90
   5   6   2   59.69    3.00
   5   6   2   68.29    3.10
   5   6   2   59.19    2.90
  -6  -6  -2  158.88    6.50
   6   6   2  144.69    6.60
   6   6   2  156.58    6.60
  -7  -6  -2  108.99    4.80
   7   6   2  106.59    4.90
  -8  -6  -2   29.50    1.90
   8   6   2   29.00    1.90
  -9  -6  -2    3.10    0.80
  -9  -6  -2    2.70    0.50
   9   6   2    2.30    0.90
   9   6   2    3.50    0.60
 -10  -6  -2    1.00    0.80
 -10  -6  -2    1.20    0.50
  10   6   2    0.50    0.50
  10   6   2    0.70    0.80
 -11  -6  -2    0.90    0.80
 -11  -6  -2    1.60    0.60
  11   6   2    1.70    0.90
  11   6   2    2.10    0.70
 -12  -6  -2   -2.60    1.10
 -12  -6  -2   -0.60    1.00
  12   6   2   -0.20    0.70
  12   6   2   -1.60    0.80
 -13  -6  -2   11.90    1.80
  13   6   2    7.90    1.10
  13   6   2    9.00    1.40
 -14  -6  -2    6.00    1.40
  14   6   2    5.90    1.30
 -15  -6  -2   -0.30    1.30
  15   6   2    2.00    1.30
  14  -7  -2    9.70    1.90
 -14   7   2    9.20    1.60
  13  -7  -2    3.30    1.30
 -13   7   2    2.60    1.10
  12  -7  -2    8.90    1.60
 -12   7   2   12.20    1.60
  11  -7  -2   17.50    2.10
 -11   7   2   15.00    2.00
  10  -7  -2   12.20    1.60
 -10   7   2   11.80    1.50
   9  -7  -2   12.90    1.60
  -9   7   2   11.60    1.40
   8  -7  -2   48.60    2.90
  -8   7   2   47.50    2.10
  -8   7   2   44.20    2.20
  -8   7   2   46.60    2.60
   7  -7  -2  220.28    9.40
  -7   7   2  205.48    8.80
  -7   7   2  219.38    8.80
  -7   7   2  219.38    9.20
   6  -7  -2   12.10    1.40
  -6   7   2    8.40    0.80
  -6   7   2   10.00    1.10
  -6   7   2    7.60    0.90
   5  -7  -2   77.69    3.70
  -5   7   2   72.49    3.30
  -5   7   2   70.19    3.30
  -5   7   2   71.79    3.50
   4  -7  -2    2.10    0.70
  -4   7   2    2.20    0.60
  -4   7   2    2.40    0.60
  -4   7   2    2.40    0.60
  -4   7   2    2.00    0.60
   3  -7  -2   42.90    2.20
   3  -7  -2   41.20    2.20
  -3   7   2   41.30    2.10
  -3   7   2   43.30    2.10
  -3   7   2   41.20    2.10
   2  -7  -2   57.29    2.70
   2  -7  -2   57.39    2.70
  -2   7   2   53.99    2.60
  -2   7   2   55.69    2.60
  -2   7   2   56.49    2.70
   1  -7  -2   24.10    1.40
   1  -7  -2   25.00    1.40
  -1   7   2   23.30    1.40
  -1   7   2   23.00    1.40
  -1   7   2   21.90    1.50
  -1   7   2   24.80    1.30
   0  -7  -2   59.49    2.80
   0  -7  -2   60.59    2.70
   0   7   2   60.09    2.60
   0   7   2   58.89    2.70
   0   7   2   60.69    2.90
   0   7   2   58.69    2.90
  -1  -7  -2  105.89    4.40
  -1  -7  -2   92.09    4.30
   1   7   2  102.19    4.50
   1   7   2  104.39    4.50
   1   7   2   95.89    4.30
   1   7   2  103.89    4.10
  -2  -7  -2    0.90    0.40
   2   7   2    0.10    0.40
   2   7   2    0.60    0.20
   2   7   2    0.60    0.40
   2   7   2    1.10    0.40
  -3  -7  -2    3.50    0.60
   3   7   2    2.40    0.60
   3   7   2    2.90    0.60
   3   7   2    3.00    0.70
  -4  -7  -2   10.10    0.90
   4   7   2    9.70    1.00
  -5  -7  -2    4.10    0.80
   5   7   2    3.10    0.70
  -6  -7  -2   27.10    1.70
  -7  -7  -2    6.30    1.00
   7   7   2    4.60    0.80
  -8  -7  -2    6.00    1.00
   8   7   2    6.10    1.10
  -9  -7  -2   21.90    1.80
   9   7   2   23.30    1.80
 -10  -7  -2   82.19    4.10
  10   7   2   80.89    4.00
 -11  -7  -2   60.39    2.70
 -11  -7  -2   48.50    2.50
 -11  -7  -2   68.39    3.40
  11   7   2   62.89    3.20
 -12  -7  -2   18.50    1.40
 -12  -7  -2   27.40    2.20
 -12  -7  -2   25.80    1.50
  12   7   2   28.60    2.10
 -13  -7  -2    5.70    0.90
 -13  -7  -2    8.20    1.50
  13   7   2    7.10    1.40
 -14  -7  -2   11.50    1.70
 -14  -7  -2   12.00    1.40
  14   7   2    9.70    1.50
 -15  -7  -2    3.40    1.60
  15   7   2    3.20    1.50
  14  -8  -2    0.00    1.70
 -14   8   2    1.40    1.50
  13  -8  -2    5.60    1.60
 -13   8   2    3.40    1.20
  12  -8  -2    2.80    1.30
 -12   8   2    2.60    1.10
  11  -8  -2    0.50    1.00
 -11   8   2    1.00    0.90
  10  -8  -2    1.10    1.10
   9  -8  -2    9.00    1.50
  -9   8   2   10.10    0.80
  -9   8   2   10.70    1.40
  -9   8   2    9.80    1.00
   8  -8  -2    0.50    0.90
  -8   8   2    0.80    0.60
  -8   8   2    1.60    0.50
  -8   8   2    1.30    0.90
   7  -8  -2   15.20    1.70
  -7   8   2   12.90    1.10
  -7   8   2   14.40    1.40
  -7   8   2   11.50    1.00
   6  -8  -2   90.09    4.70
  -6   8   2  100.49    4.60
  -6   8   2  101.49    4.30
   5  -8  -2    1.20    0.70
  -5   8   2    1.00    0.50
  -5   8   2    0.00    0.50
  -5   8   2    0.80    0.60
   4  -8  -2   72.19    3.60
  -4   8   2   74.49    3.40
  -4   8   2   70.89    3.40
  -4   8   2   77.19    3.60
   3  -8  -2   55.79    2.60
   3  -8  -2   51.99    2.60
  -3   8   2   50.19    2.60
  -3   8   2   48.60    2.60
  -3   8   2   49.50    2.50
   2  -8  -2  117.39    5.20
  -2   8   2  121.99    5.20
  -2   8   2  116.69    5.30
   1  -8  -2   22.80    1.50
   1  -8  -2   25.00    1.40
  -1   8   2   23.80    1.70
  -1   8   2   22.40    1.30
  -1   8   2   22.50    1.50
   0  -8  -2   75.39    3.40
   0  -8  -2   71.29    3.20
   0   8   2   73.39    3.20
   0   8   2   72.99    3.50
  -1  -8  -2   40.20    1.90
  -1  -8  -2   39.10    2.10
   1   8   2   41.00    1.80
   1   8   2   40.40    2.20
  -2  -8  -2  259.17   10.60
   2   8   2  260.17   10.80
   2   8   2  251.37   10.10
   3   8   2  131.99    6.00
  -4  -8  -2    2.30    0.60
   4   8   2    2.20    0.70
  -5  -8  -2   34.30    2.00
   5   8   2   34.70    2.10
  -6  -8  -2   62.99    3.20
   6   8   2   66.89    3.40
  -7  -8  -2   19.50    1.60
   7   8   2   18.00    1.60
  -8  -8  -2    5.90    1.10
   8   8   2    6.20    1.20
  -9  -8  -2    3.50    1.10
   9   8   2    2.00    0.90
 -10  -8  -2    6.70    1.30
  10   8   2    9.20    1.40
 -11  -8  -2   -1.30    0.90
  11   8   2   -1.60    0.80
 -12  -8  -2   -0.60    1.10
  12   8   2    0.80    1.10
 -13  -8  -2    3.90    1.40
  13   8   2    4.20    1.30
 -14  -8  -2    2.90    1.50
  14   8   2    2.80    1.30
  13  -9  -2    4.50    1.60
 -13   9   2    6.30    1.50
  12  -9  -2   26.80    2.60
 -12   9   2   21.00    2.10
  11  -9  -2    8.50    1.60
 -11   9   2    6.80    1.30
  10  -9  -2   27.00    2.50
 -10   9   2   30.00    2.20
 -10   9   2   26.60    1.40
 -10   9   2   26.70    1.90
   9  -9  -2   35.30    2.70
  -9   9   2   36.10    1.80
  -9   9   2   39.50    2.90
  -9   9   2   33.00    1.90
   8  -9  -2   31.40    2.50
  -8   9   2   30.10    1.90
  -8   9   2   31.80    1.80
  -8   9   2   34.10    2.30
   7  -9  -2   19.80    1.90
  -7   9   2   18.20    1.70
  -7   9   2   20.40    1.40
  -7   9   2   19.80    1.50
   6  -9  -2    0.10    0.60
  -6   9   2    0.80    0.80
  -6   9   2    0.80    0.80
  -6   9   2    0.60    0.50
   5  -9  -2   36.20    2.30
  -5   9   2   36.90    2.30
  -5   9   2   37.40    2.00
   4  -9  -2    5.70    1.00
  -4   9   2    5.20    0.80
  -4   9   2    3.00    0.90
   3  -9  -2    8.80    1.10
   3  -9  -2    9.50    1.20
  -3   9   2   10.80    1.10
   2  -9  -2   54.49    2.70
   2  -9  -2   58.29    2.80
  -2   9   2   49.99    2.60
   1  -9  -2   10.40    1.10
   1  -9  -2   11.90    1.00
  -1   9   2   10.00    1.00
  -1   9   2    9.50    1.00
   0  -9  -2   14.80    1.00
   0  -9  -2   14.90    1.30
   0   9   2   14.50    1.00
   0   9   2   16.70    1.40
  -1  -9  -2   13.70    1.20
  -1  -9  -2   14.60    0.90
   1   9   2   12.90    0.90
   1   9   2   11.90    1.20
  -2  -9  -2   17.70    1.40
   2   9   2   17.00    1.10
   2   9   2   16.20    1.40
  -3  -9  -2   93.89    4.30
   3   9   2   95.69    4.50
  -4  -9  -2   13.10    1.20
   4   9   2   12.00    1.30
  -5  -9  -2   20.40    1.60
   5   9   2   19.80    1.70
  -6  -9  -2   19.00    1.60
   6   9   2   21.60    1.80
  -7  -9  -2    3.00    0.90
   7   9   2    2.00    0.90
  -8  -9  -2    3.60    1.00
   8   9   2    2.90    1.10
  -9  -9  -2    7.50    1.40
   9   9   2    7.10    1.30
  10   9   2    2.20    1.10
 -11  -9  -2    4.80    1.40
  11   9   2    4.80    1.30
 -12  -9  -2    4.40    1.40
  12   9   2    3.50    1.30
 -13  -9  -2    1.70    1.30
 -14  -9  -2    1.80    1.60
  14   9   2    0.60    1.40
  12 -10  -2   -1.40    1.30
 -12  10   2    1.60    1.20
  11 -10  -2    7.60    1.80
 -11  10   2    8.80    1.50
  10 -10  -2    8.00    1.70
 -10  10   2    6.40    1.30
 -10  10   2    5.70    0.80
   9 -10  -2    0.60    1.10
  -9  10   2    0.40    0.70
  -9  10   2    2.00    1.00
   8 -10  -2   -0.70    0.90
  -8  10   2    0.10    0.70
   7 -10  -2    9.90    1.50
   6 -10  -2   60.69    3.50
  -6  10   2   63.89    3.10
  -6  10   2   59.29    3.30
   5 -10  -2  127.99    6.00
  -5  10   2  131.29    6.00
  -5  10   2  130.99    5.80
   4 -10  -2   28.40    2.00
  -4  10   2   27.50    2.00
  -4  10   2   25.60    1.80
   3 -10  -2   18.80    1.50
  -3  10   2   16.90    1.50
   2 -10  -2  170.58    7.00
   2 -10  -2  159.48    7.00
  -2  10   2  148.89    6.80
  -2  10   2  165.28    7.10
   1 -10  -2   36.10    2.00
   1 -10  -2   34.70    2.10
  -1  10   2   35.80    2.20
  -1  10   2   34.80    1.90
   0 -10  -2    9.70    1.00
   0 -10  -2   11.40    1.30
   0  10   2    9.30    1.30
   0  10   2    8.00    0.90
  -1 -10  -2   12.70    1.30
  -1 -10  -2   15.30    1.00
   1  10   2   14.20    1.60
   1  10   2   11.40    0.90
  -2 -10  -2    2.80    0.80
   2  10   2    2.60    0.90
  -3 -10  -2    4.80    0.90
   3  10   2    4.40    1.00
  -4 -10  -2   23.20    1.70
   4  10   2   22.30    1.80
  -5 -10  -2    4.60    1.00
   5  10   2    4.10    1.00
  -6 -10  -2    5.70    1.10
   6  10   2    5.80    1.20
  -7 -10  -2   16.00    1.70
   7  10   2   14.30    1.80
  -8 -10  -2    2.50    1.00
   8  10   2    2.30    1.00
  -9 -10  -2    0.30    1.10
   9  10   2    0.90    1.10
 -10 -10  -2    1.40    1.10
  10  10   2    1.10    1.20
 -11 -10  -2    2.50    1.30
  11  10   2    3.10    1.50
 -12 -10  -2    2.40    1.30
  12  10   2    1.20    1.30
 -13 -10  -2    0.50    1.30
  13  10   2    3.50    1.60
  11 -11  -2    2.00    1.50
 -11  11   2    0.70    1.20
  10 -11  -2    0.30    1.30
 -10  11   2   -1.00    1.10
 -10  11   2    1.00    0.80
   9 -11  -2    0.80    1.20
  -9  11   2   -1.80    1.10
  -9  11   2    0.90    0.80
   8 -11  -2   -1.40    1.30
  -8  11   2    1.00    0.90
  -8  11   2    0.00    0.70
   7 -11  -2   -1.50    1.00
  -7  11   2    1.20    1.00
  -7  11   2    0.60    0.80
   6 -11  -2    4.20    1.30
  -6  11   2    3.20    1.10
  -6  11   2    3.60    0.90
   5 -11  -2    4.80    1.20
  -5  11   2    6.20    1.10
  -5  11   2    5.20    1.20
   4 -11  -2    6.90    1.20
  -4  11   2    6.10    1.20
  -4  11   2    6.10    1.10
   3 -11  -2    2.40    0.90
   3 -11  -2    2.00    0.80
  -3  11   2    2.00    0.80
   2 -11  -2   94.99    4.60
   2 -11  -2   96.09    4.50
  -2  11   2   99.59    4.70
   1 -11  -2   77.19    3.50
   1 -11  -2   70.69    3.70
  -1  11   2   76.79    3.80
  -1  11   2   66.79    3.30
   0 -11  -2   10.10    1.10
   0 -11  -2   12.40    1.50
   0  11   2   10.10    1.40
   0  11   2    8.90    0.90
  -1 -11  -2   15.70    1.50
  -1 -11  -2   14.30    1.10
   1  11   2   14.20    1.00
   1  11   2   19.30    1.70
  -2 -11  -2   17.80    1.60
   2  11   2   20.00    1.80
  -3 -11  -2   88.09    4.30
   3  11   2   90.19    4.50
  -4 -11  -2   61.09    3.30
   4  11   2   63.99    3.50
  -5 -11  -2   27.70    2.00
   5  11   2   26.40    2.10
  -6 -11  -2   62.49    3.50
   6  11   2   65.19    3.60
  -7 -11  -2   34.70    2.60
   7  11   2   30.30    2.50
  -8 -11  -2   26.50    2.20
  -9 -11  -2    4.00    1.30
   9  11   2    5.50    1.40
 -10 -11  -2   12.60    1.80
  10  11   2   11.90    1.90
 -11 -11  -2    0.90    1.10
  11  11   2    1.50    1.40
 -12 -11  -2   -1.30    1.30
  12  11   2   -1.10    1.50
  10 -12  -2   33.00    3.10
 -10  12   2   26.90    2.10
 -10  12   2   23.10    2.50
   9 -12  -2    5.40    1.50
  -9  12   2    5.10    1.10
  -9  12   2    5.20    1.50
   8 -12  -2    8.60    1.60
  -8  12   2    6.60    1.20
  -8  12   2    6.80    1.50
  -7  12   2    8.90    1.70
  -7  12   2    8.80    1.30
   6 -12  -2    6.20    1.40
  -6  12   2    5.90    1.20
  -6  12   2    5.90    1.30
   5 -12  -2    3.00    1.10
  -5  12   2    3.20    1.20
  -5  12   2    2.30    1.00
   4 -12  -2    0.10    0.90
  -4  12   2    0.00    0.80
   3 -12  -2    3.70    1.00
   3 -12  -2    4.00    1.10
  -3  12   2    4.60    1.10
   2 -12  -2   24.70    1.90
   2 -12  -2   26.70    2.00
  -2  12   2   27.00    2.00
   1 -12  -2    1.10    0.90
   1 -12  -2    2.20    0.80
  -1  12   2    2.00    0.90
   0 -12  -2   19.50    1.80
   0 -12  -2   21.10    1.40
   0  12   2   20.90    1.90
  -1 -12  -2    7.10    0.80
  -1 -12  -2    7.10    1.30
   1  12   2    7.80    0.80
   1  12   2    9.00    1.40
  -2 -12  -2    2.10    1.00
   2  12   2    3.10    1.00
  -3 -12  -2    1.90    1.00
   3  12   2    1.40    0.90
  -4 -12  -2   12.80    1.50
   4  12   2    9.10    1.50
  -6 -12  -2    9.90    1.50
   6  12   2   10.30    1.70
  -7 -12  -2   10.00    1.60
   7  12   2    7.50    1.70
  -8 -12  -2   10.00    1.60
   8  12   2   11.70    1.80
  -9 -12  -2    1.00    1.10
   9  12   2   -1.70    1.20
 -10 -12  -2    9.90    1.80
  10  12   2    9.40    1.80
 -11 -12  -2    3.10    1.60
  11  12   2    9.40    1.90
   9 -13  -2    2.10    1.60
  -9  13   2    5.00    1.30
  -9  13   2   -0.30    1.60
   8 -13  -2   -0.40    1.30
  -8  13   2    0.80    1.20
  -8  13   2    1.40    1.40
   7 -13  -2    2.50    1.40
  -7  13   2    4.00    1.30
  -7  13   2    5.60    1.20
   6 -13  -2    7.50    2.70
  -6  13   2    7.60    1.40
  -6  13   2    6.30    1.60
   5 -13  -2    3.00    1.30
  -5  13   2    2.10    1.50
  -5  13   2    6.50    1.20
   4 -13  -2   27.30    2.30
  -4  13   2   28.00    2.20
  -4  13   2   25.90    2.30
   3 -13  -2    9.50    1.40
   3 -13  -2    9.10    1.60
  -3  13   2    9.00    1.40
   2 -13  -2   28.40    2.00
   2 -13  -2   24.60    2.20
  -2  13   2   29.10    2.20
   1 -13  -2   64.59    3.60
   1 -13  -2   63.19    3.30
  -1  13   2   69.89    3.80
   0 -13  -2   19.60    1.40
   0 -13  -2   19.30    2.00
   0  13   2   15.70    1.40
  -1 -13  -2   12.80    1.70
   1  13   2    8.50    2.00
   1  13   2    8.90    1.00
  -2 -13  -2   32.80    2.50
   2  13   2   40.60    2.70
  -3 -13  -2   24.40    2.20
   3  13   2   30.80    2.40
  -4 -13  -2    8.00    1.40
   4  13   2    7.60    1.50
  -5 -13  -2    6.40    1.40
   5  13   2    7.50    1.60
  -6 -13  -2    0.60    1.10
   6  13   2    2.80    1.30
  -7 -13  -2    1.90    1.30
   7  13   2    2.40    1.30
  -8 -13  -2   19.40    2.30
   8  13   2   14.70    2.10
  -9 -13  -2    0.00    1.30
   9  13   2    1.40    1.50
 -10 -13  -2    8.90    3.20
  10  13   2    5.00    1.70
   7 -14  -2   17.30    2.20
  -7  14   2   13.80    1.80
  -7  14   2   15.00    2.30
   6 -14  -2    7.80    1.60
  -6  14   2    7.20    1.80
  -6  14   2    7.50    1.50
   5 -14  -2    2.60    1.30
  -5  14   2    2.30    1.40
  -5  14   2    4.10    1.40
   4 -14  -2    1.60    1.20
  -4  14   2   -1.60    1.20
  -4  14   2    0.20    1.10
   3 -14  -2    0.30    1.10
   3 -14  -2    1.50    1.10
  -3  14   2    1.10    1.10
   2 -14  -2    1.40    1.00
   2 -14  -2   -0.50    1.00
  -2  14   2    0.70    1.00
   1 -14  -2    3.40    1.20
   1 -14  -2   -0.40    1.20
  -1  14   2    2.30    1.10
   0 -14  -2    0.40    1.10
   0 -14  -2    1.10    0.90
   0  14   2    0.70    1.00
  -1 -14  -2    1.70    1.10
   1  14   2    0.00    1.00
  -2 -14  -2    9.10    1.60
   2  14   2    7.70    1.60
  -3 -14  -2   11.10    1.80
   3  14   2   14.50    2.00
  -4 -14  -2    9.20    1.70
   4  14   2    6.20    1.50
  -5 -14  -2   12.10    1.80
   5  14   2   14.00    2.00
  -6 -14  -2    8.40    1.70
   6  14   2   10.50    1.90
  -7 -14  -2    2.60    1.50
   7  14   2    3.80    1.60
  -8 -14  -2   13.40    2.10
   8  14   2   16.50    2.50
   5 -15  -2    3.70    1.60
  -5  15   2    4.70    1.60
   4 -15  -2    8.70    1.60
  -4  15   2    6.40    1.90
  -4  15   2   10.10    1.70
   3 -15  -2   12.90    1.90
   3 -15  -2   12.00    1.70
  -3  15   2   13.20    1.90
   2 -15  -2    4.20    1.20
   2 -15  -2    0.20    1.30
  -2  15   2    1.40    1.40
   1 -15  -2    9.10    1.70
   1 -15  -2    8.90    1.30
  -1  15   2   10.30    1.80
   0 -15  -2   31.80    2.70
   0  15   2   35.70    2.90
  -1 -15  -2   -0.50    1.20
   1  15   2    2.00    1.20
  -2 -15  -2   15.70    2.10
   2  15   2   22.40    2.50
  -3 -15  -2    2.70    1.30
   3  15   2    5.20    1.60
  -4 -15  -2    1.90    1.40
   4  15   2    1.80    1.40
  -5 -15  -2   -0.20    1.30
   5  15   2    0.70    1.50
   5  13  -3   10.90    2.10
  -5 -13   3    9.30    1.70
   4  13  -3   10.40    1.80
  -4 -13   3    8.70    1.80
   3  13  -3    4.60    1.50
  -3 -13   3    8.00    1.70
   2  13  -3    4.00    1.20
  -2 -13   3    2.30    1.30
   1  13  -3   13.30    2.00
  -1 -13   3   14.40    1.60
  -1 -13   3   14.70    1.90
   0  13  -3   12.20    1.90
   0 -13   3   11.10    1.50
   0 -13   3    8.30    1.60
  -1  13  -3    2.90    1.40
   1 -13   3    1.70    1.30
   1 -13   3    0.20    1.30
  -2  13  -3    4.10    1.50
   2 -13   3    4.20    1.40
   2 -13   3    2.80    1.60
  -3  13  -3    2.10    1.40
   3 -13   3   -1.10    1.20
   3 -13   3   -0.50    1.40
  -4  13  -3   -0.60    1.30
  -4  13  -3    2.30    1.70
  -5  13  -3    3.90    1.80
  -5  13  -3    0.40    1.40
   5 -13   3    1.50    1.60
   7  12  -3    1.10    1.60
  -7 -12   3   -1.30    1.20
   6  12  -3    2.70    1.50
  -6 -12   3    1.20    1.20
   5  12  -3    0.20    1.30
  -5 -12   3   -0.70    1.10
   4  12  -3    2.00    1.30
  -4 -12   3    1.00    1.10
   3  12  -3    1.70    1.20
  -3 -12   3    1.30    1.10
   2  12  -3    5.40    1.50
  -2 -12   3    5.40    1.00
  -2 -12   3    6.20    1.40
   1  12  -3    3.60    1.20
  -1 -12   3    5.00    1.30
  -1 -12   3    5.30    1.10
   0  12  -3   15.90    2.00
   0 -12   3   16.50    1.80
   0 -12   3   13.70    1.80
  -1  12  -3   -0.20    1.20
   1 -12   3   -0.50    1.10
   1 -12   3   -0.10    1.10
  -2  12  -3    1.80    1.10
   2 -12   3    0.30    1.10
   2 -12   3    0.80    1.20
  -3  12  -3   10.20    1.60
   3 -12   3    7.50    1.60
   3 -12   3    8.60    1.40
  -4  12  -3    6.40    1.50
   4 -12   3    5.90    1.40
   4 -12   3    7.20    1.60
  -5  12  -3    6.00    1.40
  -5  12  -3    2.00    1.70
  -6  12  -3    6.70    1.50
  -6  12  -3   10.40    2.00
   6 -12   3    6.90    1.70
  -7  12  -3    0.60    1.80
  -7  12  -3    2.50    1.30
   7 -12   3    0.70    1.60
  -8  12  -3   22.40    2.70
  -8  12  -3   23.00    2.40
   8 -12   3   17.40    2.50
   9  11  -3    7.10    1.70
  -9 -11   3    5.00    1.50
   8  11  -3    5.00    1.50
  -8 -11   3    5.50    1.60
   7  11  -3    2.20    1.40
  -7 -11   3   -0.30    1.20
   6  11  -3    8.60    1.60
  -6 -11   3    7.60    1.50
   5  11  -3    3.60    1.30
  -5 -11   3    2.00    1.10
   4  11  -3    2.30    1.30
  -4 -11   3    3.50    1.20
   3  11  -3    0.00    1.00
  -3 -11   3    0.60    0.60
  -3 -11   3   -0.70    0.80
   2  11  -3   -0.50    1.30
   2  11  -3    0.10    1.00
  -2 -11   3   -0.90    0.70
  -2 -11   3   -1.00    0.80
   1  11  -3   -0.30    0.80
   1  11  -3   -0.30    0.90
  -1 -11   3    0.90    0.90
  -1 -11   3    0.40    0.80
   0  11  -3   21.80    2.10
   0 -11   3   16.70    1.80
  -1  11  -3    1.60    1.50
   1 -11   3    0.40    0.80
   1 -11   3   -0.50    1.60
   2 -11   3    0.40    1.00
   2 -11   3    0.40    1.00
   3 -11   3    1.80    1.00
   3 -11   3    0.20    1.00
  -4  11  -3    0.70    1.50
   4 -11   3    0.00    1.00
   4 -11   3    1.50    1.20
  -5  11  -3    2.80    1.60
  -5  11  -3    1.70    1.40
   5 -11   3    4.30    1.40
  -6  11  -3   -1.30    1.30
  -6  11  -3   -0.90    1.50
   6 -11   3   -1.70    2.10
  -7  11  -3    2.70    2.00
  -7  11  -3    2.60    1.50
   7 -11   3   -2.50    1.30
  -8  11  -3    7.60    1.70
  -8  11  -3    8.40    2.40
   8 -11   3    6.90    1.80
  -9  11  -3   -0.50    1.60
   9 -11   3    1.20    1.60
  10  10  -3    1.10    1.50
 -10 -10   3    0.60    1.40
   9  10  -3   -0.10    1.20
  -9 -10   3   -1.20    1.20
   8  10  -3    8.30    1.60
  -8 -10   3    5.20    1.40
   7  10  -3    3.90    1.40
  -7 -10   3    7.90    1.50
   6  10  -3    2.50    1.00
  -6 -10   3    2.80    1.10
   5  10  -3   23.70    3.40
  -5 -10   3   13.70    2.10
   4  10  -3   11.40    1.70
  -4 -10   3   11.20    1.50
   3  10  -3   28.10    2.20
   3  10  -3   23.30    1.50
  -3 -10   3   24.50    1.40
  -3 -10   3   27.00    2.00
   2  10  -3    7.40    1.30
   2  10  -3    4.60    0.80
  -2 -10   3    6.90    0.90
  -2 -10   3    7.90    1.20
   1  10  -3   16.40    1.70
   1  10  -3   16.40    1.40
  -1 -10   3   18.20    1.40
  -1 -10   3   17.80    1.70
   0  10  -3   77.49    4.10
   0 -10   3   75.59    3.70
   0 -10   3   78.39    3.90
  -1  10  -3   15.50    1.60
   1 -10   3   14.30    1.60
   1 -10   3   16.80    1.90
  -2  10  -3   28.30    2.20
   2 -10   3   27.90    2.10
   2 -10   3   27.50    2.10
  -3  10  -3   16.70    1.70
   3 -10   3   15.40    1.80
   3 -10   3   17.60    1.80
  -4  10  -3   15.70    1.70
   4 -10   3   13.30    1.60
   4 -10   3   17.10    1.70
  -5  10  -3    5.10    1.10
  -5  10  -3    3.30    1.40
   5 -10   3    4.70    1.40
  -6  10  -3    1.30    1.40
  -6  10  -3   -0.40    0.80
   6 -10   3    1.50    1.20
  -7  10  -3    4.50    1.20
  -7  10  -3    4.40    1.50
   7 -10   3    3.00    1.70
  -8  10  -3    6.90    1.60
  -8  10  -3    7.10    1.30
   8 -10   3    5.60    1.60
  -9  10  -3    1.00    1.40
  -9  10  -3    3.20    1.10
   9 -10   3    2.30    1.60
 -10  10  -3   13.40    1.60
 -10  10  -3   12.70    1.90
  10 -10   3   12.00    2.00
 -11  10  -3    5.60    1.80
 -11  10  -3    1.80    1.40
  11 -10   3   -0.90    1.70
  11   9  -3    1.50    1.40
 -11  -9   3    1.50    1.40
  10   9  -3   20.20    2.20
 -10  -9   3   21.70    2.30
   9   9  -3   18.80    2.10
  -9  -9   3   23.70    2.20
   8   9  -3    3.90    1.50
  -8  -9   3    6.00    1.30
   7   9  -3   14.70    1.80
  -7  -9   3   15.00    1.90
   6   9  -3    4.70    1.10
  -6  -9   3    2.80    1.00
   5   9  -3    6.70    1.20
  -5  -9   3    5.50    1.20
   4   9  -3    7.60    1.20
  -4  -9   3    6.40    0.70
  -4  -9   3    5.30    1.10
   3   9  -3    4.70    1.10
   3   9  -3    5.90    0.80
  -3  -9   3    6.50    1.10
  -3  -9   3    6.00    0.70
   2   9  -3   20.20    1.80
   2   9  -3   20.80    1.40
  -2  -9   3   25.10    1.80
  -2  -9   3   24.50    1.50
   1   9  -3   17.10    1.50
   1   9  -3   19.60    1.70
  -1  -9   3   20.30    1.40
  -1  -9   3   17.20    1.60
   0   9  -3    4.20    0.70
   0   9  -3    4.90    1.00
   0  -9   3    5.30    1.00
   0  -9   3    5.90    0.90
  -1   9  -3   36.80    2.40
   1  -9   3   41.70    2.40
   1  -9   3   38.90    2.30
  -2   9  -3   14.50    1.50
   2  -9   3   13.80    1.40
   2  -9   3   13.30    1.50
  -3   9  -3   23.50    1.80
   3  -9   3   19.80    1.90
   3  -9   3   21.30    1.70
  -4   9  -3   31.00    2.10
   4  -9   3   35.60    2.40
   4  -9   3   32.90    2.20
  -5   9  -3   30.30    2.40
  -5   9  -3   29.70    2.10
   5  -9   3   30.10    2.30
  -6   9  -3   15.10    1.50
  -6   9  -3   13.10    1.70
   6  -9   3   13.30    1.80
  -7   9  -3   11.00    1.40
  -7   9  -3    8.60    1.60
   7  -9   3   10.30    1.60
  -8   9  -3   29.10    2.10
  -8   9  -3   25.20    2.40
  -9   9  -3   -0.90    1.20
  -9   9  -3   -0.20    0.80
   9  -9   3   -0.30    1.30
 -10   9  -3   22.80    2.30
 -10   9  -3   18.90    1.80
  10  -9   3   18.10    2.30
 -11   9  -3    4.30    1.20
 -11   9  -3    6.70    1.60
  11  -9   3    5.00    1.70
 -12   9  -3    9.10    1.60
 -12   9  -3    8.00    1.80
  12  -9   3    8.70    2.00
  12   8  -3    7.20    1.60
 -12  -8   3   11.50    1.90
  11   8  -3    6.20    1.50
 -11  -8   3    2.30    1.20
  10   8  -3   19.80    2.00
 -10  -8   3   23.30    2.20
   9   8  -3   -1.00    1.00
  -9  -8   3    2.50    1.20
   8   8  -3   24.40    2.00
  -8  -8   3   26.20    2.30
   7   8  -3   49.99    3.00
  -7  -8   3   55.69    3.10
   6   8  -3   14.90    1.60
  -6  -8   3   19.70    1.70
  -6  -8   3   15.90    1.20
   5   8  -3   22.00    1.70
  -5  -8   3   20.20    1.20
  -5  -8   3   22.00    1.30
  -5  -8   3   22.50    1.70
   4   8  -3   34.30    2.20
  -4  -8   3   32.80    1.70
  -4  -8   3   34.70    2.10
   3   8  -3   21.50    1.70
   3   8  -3   20.80    1.30
  -3  -8   3   22.80    1.30
  -3  -8   3   24.90    1.70
   2   8  -3   62.69    3.20
   2   8  -3   54.49    2.70
  -2  -8   3   57.99    2.70
  -2  -8   3   60.59    3.00
   1   8  -3    8.00    1.20
   1   8  -3    8.20    0.90
  -1  -8   3    8.10    1.00
  -1  -8   3    7.20    0.90
   0   8  -3   41.90    2.20
   0   8  -3   51.89    2.70
   0  -8   3   48.60    2.40
   0  -8   3   44.10    2.50
  -1   8  -3   27.50    1.90
  -1   8  -3   26.70    1.60
   1  -8   3   26.90    1.80
   1  -8   3   30.10    1.80
  -2   8  -3   14.50    1.30
   2  -8   3   15.10    1.40
   2  -8   3   13.50    1.30
  -3   8  -3   17.70    1.50
   3  -8   3   14.40    1.40
   3  -8   3   15.10    1.50
  -4   8  -3   -0.30    0.60
   4  -8   3    0.50    0.70
   4  -8   3    0.60    0.80
  -5   8  -3    0.70    0.90
  -5   8  -3    1.60    0.80
   5  -8   3    1.60    0.90
  -6   8  -3    1.30    0.70
  -6   8  -3    2.70    1.10
   6  -8   3    2.00    1.00
  -7   8  -3    0.40    0.90
  -7   8  -3    0.50    0.70
   7  -8   3    0.30    0.90
  -8   8  -3    0.40    0.80
  -8   8  -3    0.60    1.10
   8  -8   3    0.40    1.00
  -9   8  -3   -1.10    0.80
 -10   8  -3    1.40    1.20
 -10   8  -3    3.30    0.90
  10  -8   3    3.40    1.50
 -11   8  -3    2.20    1.30
 -11   8  -3    2.80    1.00
  11  -8   3    2.00    1.60
 -12   8  -3    0.30    1.10
 -12   8  -3   -2.00    1.20
  12  -8   3    1.10    1.40
 -13   8  -3    0.20    1.50
  13  -8   3    3.50    1.70
  13   7  -3    6.90    1.60
 -13  -7   3    7.30    1.60
  12   7  -3    5.80    1.30
 -12  -7   3    4.30    1.40
 -12  -7   3    2.50    1.00
  11   7  -3   -0.10    1.00
 -11  -7   3   -0.40    0.60
 -11  -7   3    1.10    1.20
  10   7  -3   -0.70    0.90
 -10  -7   3    0.40    0.80
 -10  -7   3   -0.60    0.50
 -10  -7   3    1.00    1.10
   9   7  -3   -0.30    0.80
  -9  -7   3    0.30    0.90
  -9  -7   3    0.80    0.70
  -9  -7   3   -0.40    0.40
   8   7  -3    7.40    1.20
  -8  -7   3    8.90    1.00
  -8  -7   3    6.90    0.70
  -8  -7   3    9.40    1.40
   7   7  -3   12.80    1.50
  -7  -7   3   12.60    0.90
  -7  -7   3   13.20    1.10
  -7  -7   3   14.70    1.60
   6   7  -3   18.30    1.50
  -6  -7   3   17.50    1.50
  -6  -7   3   18.00    1.20
  -6  -7   3   16.90    1.00
   5   7  -3   21.30    1.70
  -5  -7   3   19.40    1.60
  -5  -7   3   19.60    1.10
  -5  -7   3   20.40    1.20
   4   7  -3   13.10    1.30
  -4  -7   3   12.20    0.90
  -4  -7   3   13.50    1.30
   3   7  -3    1.20    0.70
   3   7  -3    1.60    0.50
  -3  -7   3    0.10    0.60
  -3  -7   3   -0.10    0.40
   2   7  -3   51.79    2.80
   2   7  -3   49.60    2.40
  -2  -7   3   53.59    2.70
  -2  -7   3   55.79    2.40
   1   7  -3    0.90    0.50
   1   7  -3    2.10    0.50
  -1  -7   3    1.40    0.70
  -1  -7   3    1.20    0.50
   0   7  -3    7.40    0.80
   0   7  -3    5.90    0.90
   0  -7   3    9.20    0.90
   0  -7   3    6.80    0.90
  -1   7  -3   11.40    1.20
  -1   7  -3    8.70    0.90
   1  -7   3   10.90    1.20
   1  -7   3   11.10    1.10
  -2   7  -3  110.59    4.90
  -2   7  -3   98.89    4.60
   2  -7   3  111.99    4.80
   2  -7   3  108.09    4.80
  -3   7  -3   76.29    3.70
   3  -7   3   80.89    3.80
   3  -7   3   77.69    3.70
  -4   7  -3   80.59    3.80
   4  -7   3   80.09    3.80
   4  -7   3   84.09    4.00
  -5   7  -3   31.60    1.90
  -5   7  -3   28.70    2.00
   5  -7   3   31.70    2.10
  -6   7  -3   18.70    1.40
  -6   7  -3   20.80    1.70
   6  -7   3   16.90    1.80
  -7   7  -3    8.10    1.00
  -7   7  -3    6.80    1.20
   7  -7   3    7.20    1.30
  -8   7  -3    9.00    1.40
  -8   7  -3    9.70    1.10
   8  -7   3    8.70    1.50
  -9   7  -3   21.00    1.60
  -9   7  -3   22.30    2.00
   9  -7   3   23.10    2.30
 -10   7  -3   10.40    2.10
 -10   7  -3   13.30    1.80
  10  -7   3   10.70    1.90
 -11   7  -3    1.50    1.10
 -11   7  -3    2.10    0.90
  11  -7   3    1.10    1.20
 -12   7  -3    4.30    0.90
 -12   7  -3    4.60    1.40
  12  -7   3    3.60    1.50
 -13   7  -3    0.50    1.40
  13  -7   3    0.10    1.50
 -14   7  -3   -0.80    1.40
  14   6  -3    2.00    1.40
 -14  -6   3    3.40    1.80
  13   6  -3    6.10    1.30
 -13  -6   3    8.70    1.40
 -13  -6   3    7.00    1.60
  12   6  -3    5.70    1.20
 -12  -6   3    7.60    1.50
 -12  -6   3    5.50    1.00
  11   6  -3   16.60    1.70
 -11  -6   3   12.60    1.30
 -11  -6   3   15.60    1.80
  10   6  -3   11.40    1.40
 -10  -6   3    8.60    0.90
 -10  -6   3    7.50    1.00
 -10  -6   3    8.40    1.60
   9   6  -3   12.20    1.30
  -9  -6   3   10.30    1.00
  -9  -6   3   14.10    1.30
  -9  -6   3   10.90    1.40
   8   6  -3   13.80    1.40
  -8  -6   3   14.50    1.50
  -8  -6   3   10.20    0.90
  -8  -6   3   11.50    1.10
   7   6  -3    4.10    1.00
  -7  -6   3    4.70    0.70
  -7  -6   3    3.10    0.90
  -7  -6   3    2.80    0.50
   6   6  -3   96.69    4.50
  -6  -6   3   98.19    4.20
  -6  -6   3  102.69    4.50
  -6  -6   3   93.79    4.10
   5   6  -3  116.69    5.20
  -5  -6   3  116.79    4.70
  -5  -6   3  110.49    4.80
  -5  -6   3  116.09    5.10
   4   6  -3  203.48    8.60
  -4  -6   3  205.38    8.10
  -4  -6   3  197.48    8.50
   3   6  -3   55.89    2.90
   3   6  -3   53.59    2.50
  -3  -6   3   58.19    2.50
  -3  -6   3   57.29    3.00
   2   6  -3    1.50    0.40
   2   6  -3    3.00    0.80
  -2  -6   3    2.70    0.50
  -2  -6   3    2.80    0.70
   1   6  -3   18.00    1.10
   1   6  -3   19.40    1.50
  -1  -6   3   19.30    1.30
  -1  -6   3   18.70    1.10
   0   6  -3    1.70    0.60
   0   6  -3    1.40    0.40
   0  -6   3    2.10    0.60
   0  -6   3    2.10    0.50
  -1   6  -3    6.00    0.70
  -1   6  -3    7.60    0.90
   1  -6   3    9.40    0.90
   1  -6   3    7.30    0.90
  -2   6  -3   30.50    1.80
  -2   6  -3   28.30    1.60
   2  -6   3   31.90    1.80
   2  -6   3   31.80    1.80
  -3   6  -3    5.50    0.70
  -3   6  -3    9.60    0.90
   3  -6   3    8.60    1.00
   3  -6   3    8.40    1.00
  -4   6  -3    8.70    1.00
   4  -6   3    8.60    1.20
   4  -6   3    9.70    1.20
  -5   6  -3   15.10    1.20
  -5   6  -3   15.00    1.40
   5  -6   3   14.70    1.50
  -6   6  -3    1.10    0.80
  -6   6  -3    0.70    0.50
   6  -6   3    0.90    0.80
  -7   6  -3   -1.10    0.70
  -7   6  -3    0.90    0.60
   7  -6   3    2.10    0.90
  -8   6  -3    3.50    1.10
  -8   6  -3    4.30    0.80
   8  -6   3    4.10    1.10
  -9   6  -3   26.80    1.70
  -9   6  -3   23.60    2.00
   9  -6   3   27.80    2.30
 -10   6  -3    4.00    0.80
 -10   6  -3    3.90    1.10
  10  -6   3    4.90    1.10
  10  -6   3    4.90    1.30
 -11   6  -3    7.90    1.00
  11  -6   3   10.00    1.70
  11  -6   3    7.10    1.30
 -12   6  -3   22.90    2.30
 -12   6  -3   22.20    1.50
  12  -6   3   22.90    2.50
 -13   6  -3    4.50    1.40
 -13   6  -3    1.50    1.20
  13  -6   3    3.00    1.40
 -14   6  -3    3.70    1.50
  14  -6   3    5.80    1.70
  14   5  -3    1.10    1.20
 -14  -5   3    4.10    1.40
 -14  -5   3    4.30    1.50
  13   5  -3   -1.20    1.00
 -13  -5   3    1.20    1.20
 -13  -5   3    1.20    1.10
  12   5  -3   -1.00    0.90
 -12  -5   3   -1.60    0.90
  11   5  -3    1.70    0.90
 -11  -5   3    0.60    1.10
 -11  -5   3    1.40    0.80
  10   5  -3    0.90    0.90
 -10  -5   3    1.70    0.90
 -10  -5   3    1.50    0.90
 -10  -5   3    2.20    0.70
   9   5  -3   -0.30    0.60
  -9  -5   3    0.10    0.60
  -9  -5   3   -0.80    0.80
  -9  -5   3    0.70    0.80
   8   5  -3    1.20    0.70
  -8  -5   3    0.80    0.70
  -8  -5   3    0.40    0.60
  -8  -5   3   -0.30    0.50
  -7  -5   3    8.20    1.10
  -7  -5   3    6.90    0.80
  -7  -5   3    7.10    0.80
   6   5  -3  103.39    4.80
  -6  -5   3  114.59    4.80
  -6  -5   3  104.39    4.60
  -6  -5   3  105.69    4.50
   5   5  -3   31.40    1.90
  -5  -5   3   34.40    1.60
  -5  -5   3   34.70    1.90
  -5  -5   3   35.00    1.70
   4   5  -3   45.70    2.50
  -4  -5   3   47.90    2.40
  -4  -5   3   45.60    2.20
  -4  -5   3   51.19    2.10
   3   5  -3   86.39    3.80
   3   5  -3   83.49    4.10
   3   5  -3   90.79    4.00
  -3  -5   3   94.39    3.70
  -3  -5   3   87.09    3.90
   2   5  -3   13.70    1.00
   2   5  -3   13.90    0.90
   2   5  -3   13.50    1.10
  -2  -5   3   12.70    1.10
  -2  -5   3   14.20    1.00
  -2  -5   3   15.30    0.90
   1   5  -3   18.60    1.00
   1   5  -3   16.10    1.10
   1   5  -3   16.50    1.20
  -1  -5   3   18.30    1.20
  -1  -5   3   18.70    1.00
  -1  -5   3   15.70    1.20
   0   5  -3   45.00    2.20
   0   5  -3   40.20    2.00
   0   5  -3   41.20    1.90
   0  -5   3   43.40    2.10
   0  -5   3   43.70    2.00
   0  -5   3   36.80    2.10
  -1   5  -3   60.89    2.90
  -1   5  -3   60.19    2.80
  -1   5  -3   64.99    3.00
   1  -5   3   62.09    3.00
   1  -5   3   63.89    2.90
   1  -5   3   67.19    2.90
  -2   5  -3  353.76   13.80
  -2   5  -3  330.97   13.70
  -2   5  -3  330.57   13.70
   2  -5   3  321.97   13.80
   2  -5   3  363.96   13.80
   2  -5   3  344.87   13.70
  -3   5  -3  246.98    9.70
  -3   5  -3  224.18    9.60
  -3   5  -3  233.08    9.70
   3  -5   3  240.18    9.70
   3  -5   3  226.18    9.70
   3  -5   3  248.38    9.80
  -4   5  -3   92.19    4.30
  -4   5  -3   90.19    4.10
  -4   5  -3   97.99    4.20
  -4   5  -3   96.19    4.20
   4  -5   3   89.79    4.20
   4  -5   3  100.79    4.30
  -5   5  -3   61.29    2.90
  -5   5  -3   55.89    2.70
   5  -5   3   52.39    2.70
   5  -5   3   59.49    3.00
  -6   5  -3    0.80    0.50
  -6   5  -3    1.00    0.70
   6  -5   3    1.20    0.60
   6  -5   3    0.50    0.70
  -7   5  -3   17.60    1.40
  -7   5  -3   14.00    1.10
   7  -5   3   15.30    1.50
   7  -5   3   14.30    1.20
  -8   5  -3    5.20    1.00
  -8   5  -3    4.90    0.80
   8  -5   3    4.80    1.10
   8  -5   3    4.80    0.90
  -9   5  -3    4.60    0.70
  -9   5  -3    4.50    1.10
   9  -5   3    4.30    0.80
   9  -5   3    4.90    1.10
 -10   5  -3    6.20    1.30
 -10   5  -3    5.40    0.80
  10  -5   3    2.80    0.80
  10  -5   3    4.60    1.30
 -11   5  -3    1.40    0.60
 -11   5  -3    2.30    1.00
  11  -5   3    2.30    1.00
  11  -5   3    3.10    1.10
 -12   5  -3   -0.30    1.10
 -12   5  -3    0.50    0.60
  12  -5   3    1.50    1.20
  12  -5   3    0.20    0.80
 -13   5  -3    9.30    1.60
 -13   5  -3   10.90    1.10
  13  -5   3   12.10    2.00
 -14   5  -3    4.50    1.50
  14  -5   3    5.40    1.70
 -15   5  -3    2.70    1.60
  15  -5   3    2.80    1.60
 -15  -4   3   -1.30    1.50
  14   4  -3    0.20    1.00
 -14  -4   3   -0.40    1.20
 -14  -4   3    1.20    1.20
  13   4  -3    7.50    1.20
 -13  -4   3    7.50    1.40
 -13  -4   3    8.70    1.20
  12   4  -3    8.90    1.20
 -12  -4   3    8.10    1.50
 -12  -4   3    9.00    1.30
  11   4  -3   46.70    2.50
 -11  -4   3   51.29    3.50
 -11  -4   3   44.00    2.80
  10   4  -3   71.09    3.50
 -10  -4   3   71.89    3.90
 -10  -4   3   76.89    3.80
 -10  -4   3   70.89    3.50
   9   4  -3   30.10    1.80
  -9  -4   3   26.90    1.70
  -9  -4   3   28.70    2.00
  -9  -4   3   26.70    1.80
   8   4  -3   67.09    3.20
  -8  -4   3   65.09    3.10
  -8  -4   3   69.99    3.30
  -8  -4   3   64.19    3.10
   7   4  -3   62.29    3.00
  -7  -4   3   63.99    3.10
  -7  -4   3   64.19    3.10
  -7  -4   3   61.99    2.90
  -7  -4   3   62.09    2.90
   6   4  -3   15.10    1.10
  -6  -4   3   15.20    1.20
  -6  -4   3   13.00    1.00
  -6  -4   3   13.00    0.90
  -6  -4   3   14.20    1.20
   5   4  -3   13.50    1.00
  -5  -4   3   13.00    1.10
  -5  -4   3   13.40    1.00
  -5  -4   3   14.70    0.90
  -5  -4   3   13.20    1.10
   4   4  -3   -0.10    0.40
   4   4  -3   -0.20    0.40
  -4  -4   3   -0.10    0.40
  -4  -4   3    0.20    0.30
  -4  -4   3    0.30    0.30
  -4  -4   3    0.60    0.50
   3   4  -3    2.60    0.50
   3   4  -3    3.30    0.60
   3   4  -3    2.00    0.40
  -3  -4   3    2.50    0.50
  -3  -4   3    2.50    0.50
  -3  -4   3    2.80    0.40
   2   4  -3   12.40    1.00
   2   4  -3   13.50    0.80
   2   4  -3   13.10    0.90
  -2  -4   3   13.80    1.00
  -2  -4   3   13.00    0.90
  -2  -4   3   14.30    0.80
   1   4  -3   33.70    1.80
   1   4  -3   32.20    1.60
   1   4  -3   32.70    1.70
  -1  -4   3   33.00    1.50
  -1  -4   3   35.10    1.70
   0   4  -3   14.80    1.00
   0   4  -3   14.00    0.90
   0   4  -3   12.70    0.80
   0  -4   3   15.00    1.10
   0  -4   3   14.30    0.90
   0  -4   3   14.90    0.90
  -1   4  -3    0.00    0.30
  -1   4  -3    0.20    0.30
  -1   4  -3    0.00    0.30
   1  -4   3   -0.30    0.30
   1  -4   3    0.10    0.30
   1  -4   3    0.10    0.30
  -2   4  -3   21.70    1.20
  -2   4  -3   18.60    1.10
  -2   4  -3   21.10    1.20
   2  -4   3   19.90    1.20
   2  -4   3   22.00    1.20
   2  -4   3   20.00    1.20
  -3   4  -3   19.30    1.30
  -3   4  -3   20.90    1.20
  -3   4  -3   21.00    1.20
   3  -4   3   21.80    1.30
   3  -4   3   21.10    1.20
   3  -4   3   19.40    1.20
  -4   4  -3   38.00    1.90
  -4   4  -3   37.20    1.80
  -4   4  -3   34.40    1.80
  -4   4  -3   34.80    1.80
   4  -4   3   36.80    2.00
   4  -4   3   35.30    1.80
  -5   4  -3   80.89    3.60
  -5   4  -3   81.89    3.50
  -5   4  -3   81.59    3.60
  -5   4  -3   75.29    4.10
   5  -4   3   78.69    3.70
   5  -4   3   78.09    3.50
  -6   4  -3   33.70    2.00
  -6   4  -3   36.70    1.80
   6  -4   3   33.20    2.50
   6  -4   3   33.70    1.80
  -7   4  -3   13.90    1.30
  -7   4  -3   14.50    1.00
   7  -4   3   10.80    1.00
   7  -4   3   12.90    1.40
  -8   4  -3   50.49    2.40
  -8   4  -3   52.29    2.80
   8  -4   3   51.99    2.90
   8  -4   3   52.49    2.50
  -9   4  -3   34.70    1.80
  -9   4  -3   30.80    2.10
   9  -4   3   32.10    1.80
   9  -4   3   33.80    2.30
 -10   4  -3   19.40    1.70
 -10   4  -3   19.40    1.20
  10  -4   3   20.80    1.30
  10  -4   3   20.40    1.90
 -11   4  -3   11.40    1.00
 -11   4  -3   12.90    1.60
  11  -4   3   10.90    1.60
  11  -4   3   10.40    1.20
 -12   4  -3   32.00    2.30
 -12   4  -3   24.30    1.40
  12  -4   3   22.20    1.60
 -13   4  -3   20.70    2.10
  13  -4   3   16.70    2.10
 -14   4  -3    2.30    1.20
  14  -4   3    2.00    1.40
 -15   4  -3    2.70    1.50
  15  -4   3    6.30    1.80
 -15  -3   3   11.50    1.80
 -15  -3   3    7.90    1.70
 -14  -3   3    0.40    1.20
 -14  -3   3    0.90    1.20
  13   3  -3    6.80    0.90
 -13  -3   3    7.40    1.40
 -13  -3   3    6.10    1.40
  12   3  -3    7.90    1.20
  12   3  -3    9.50    1.00
 -12  -3   3    8.50    1.50
 -12  -3   3   10.40    1.30
  11   3  -3    1.40    0.70
  11   3  -3    0.30    0.80
 -11  -3   3    1.20    0.90
 -11  -3   3   -0.30    0.80
  10   3  -3    1.00    0.60
  10   3  -3    1.30    0.70
 -10  -3   3    1.40    0.80
 -10  -3   3    1.70    0.80
   9   3  -3   23.90    1.60
   9   3  -3   26.80    1.60
  -9  -3   3   26.00    1.80
  -9  -3   3   26.70    1.80
  -9  -3   3   26.90    1.70
   8   3  -3    8.90    0.90
  -8  -3   3   10.50    1.10
  -8  -3   3   10.30    1.00
  -8  -3   3    9.70    1.10
   7   3  -3   11.70    1.00
  -7  -3   3   11.50    1.10
  -7  -3   3   12.10    1.00
  -7  -3   3   11.10    1.00
   6   3  -3   85.29    3.70
  -6  -3   3   80.09    3.60
  -6  -3   3   82.99    3.70
  -6  -3   3   80.69    3.60
  -6  -3   3   81.79    3.70
   5   3  -3  134.19    6.00
   5   3  -3  141.09    5.90
  -5  -3   3  145.99    5.90
  -5  -3   3  138.49    6.00
  -5  -3   3  144.79    6.00
  -5  -3   3  141.19    5.80
   4   3  -3  115.09    4.70
  -4  -3   3  108.19    4.70
  -4  -3   3  108.19    4.50
  -4  -3   3  107.99    4.70
  -4  -3   3  107.89    4.60
   3   3  -3  205.58    8.40
   3   3  -3  213.98    8.50
   3   3  -3  199.08    8.40
  -3  -3   3  215.78    8.30
  -3  -3   3  210.38    8.40
  -3  -3   3  196.88    8.50
   2   3  -3  199.48    8.30
   2   3  -3  202.78    8.30
   2   3  -3  217.68    8.50
  -2  -3   3  206.28    8.20
  -2  -3   3  202.18    8.30
  -2  -3   3  206.68    8.40
   1   3  -3  177.58    7.10
   1   3  -3  171.28    7.00
   1   3  -3  167.48    7.00
  -1  -3   3  172.78    7.10
  -1  -3   3  171.68    7.00
  -1  -3   3  175.78    6.90
   0   3  -3  141.49    5.70
   0   3  -3  139.59    5.70
   0   3  -3  144.69    5.80
   0  -3   3  140.09    5.70
   0  -3   3  134.89    5.80
   0  -3   3  140.19    5.70
  -1   3  -3   28.60    1.40
  -1   3  -3   24.80    1.30
  -1   3  -3   26.70    1.30
   1  -3   3   27.80    1.30
   1  -3   3   25.70    1.40
   1  -3   3   25.40    1.30
  -2   3  -3    2.80    0.40
  -2   3  -3    3.90    0.50
  -2   3  -3    3.00    0.40
  -3   3  -3   70.79    3.00
  -3   3  -3   66.99    3.00
  -3   3  -3   64.49    3.00
   3  -3   3   66.89    3.00
   3  -3   3   70.69    3.00
   3  -3   3   70.29    3.10
  -4   3  -3    4.50    0.60
  -4   3  -3    5.20    0.60
  -4   3  -3    5.10    0.50
   4  -3   3    5.20    0.60
   4  -3   3    6.40    0.80
  -5   3  -3   47.10    2.30
  -5   3  -3   51.09    2.30
  -5   3  -3   52.19    2.40
   5  -3   3   51.19    2.50
   5  -3   3   49.30    2.30
  -6   3  -3   11.90    1.00
  -6   3  -3   11.50    1.00
  -6   3  -3   12.20    0.90
   6  -3   3   10.20    1.10
   6  -3   3   10.90    0.80
  -7   3  -3   10.10    0.80
  -7   3  -3   10.60    1.00
   7  -3   3    9.00    0.80
   7  -3   3   13.30    1.60
  -8   3  -3   -0.10    0.50
  -8   3  -3    0.40    0.40
   8  -3   3    0.30    0.40
   8  -3   3    0.30    0.70
  -9   3  -3    5.50    0.70
  -9   3  -3    4.90    1.00
   9  -3   3    5.80    0.70
   9  -3   3    5.30    1.20
 -10   3  -3    2.20    0.50
 -10   3  -3    1.50    0.70
  10  -3   3    0.10    0.90
  10  -3   3    1.10    0.60
 -11   3  -3    3.90    0.60
 -11   3  -3    5.00    1.10
  11  -3   3    3.50    1.30
  11  -3   3    4.10    0.60
 -12   3  -3    9.40    0.80
 -12   3  -3    9.90    1.40
  12  -3   3   11.20    1.60
  12  -3   3    8.00    0.80
 -13   3  -3    2.70    1.30
  13  -3   3    0.50    1.20
 -14   3  -3   11.10    1.70
  14  -3   3   11.40    1.90
 -15   3  -3    1.20    1.30
  15  -3   3    1.80    1.60
 -16   3  -3    0.70    1.50
  16  -3   3    7.40    2.00
 -15  -2   3    5.70    1.50
 -14  -2   3    4.30    1.40
 -14  -2   3    2.90    1.30
 -13  -2   3   13.60    1.60
 -13  -2   3   15.50    1.80
  12   2  -3   16.00    1.30
  12   2  -3   15.40    1.10
 -12  -2   3   18.10    1.90
  11   2  -3   11.70    1.10
  11   2  -3   11.40    1.00
 -11  -2   3    8.80    1.30
  10   2  -3    1.50    0.60
  10   2  -3    2.40    0.50
 -10  -2   3    2.70    0.90
   9   2  -3    3.70    0.60
   9   2  -3    3.50    0.60
  -9  -2   3    3.70    0.90
   8   2  -3    7.00    0.80
   8   2  -3    6.90    0.80
  -8  -2   3    5.00    0.90
  -8  -2   3    6.20    0.90
  -8  -2   3    6.90    1.00
   7   2  -3   49.80    2.40
  -7  -2   3   51.89    2.70
  -7  -2   3   52.59    2.60
  -7  -2   3   50.29    2.40
  -7  -2   3   50.19    2.50
   6   2  -3    3.30    0.60
   6   2  -3    4.80    0.60
  -6  -2   3    5.10    0.70
  -6  -2   3    3.60    0.60
  -6  -2   3    4.50    0.70
  -6  -2   3    4.20    0.60
   5   2  -3    1.20    0.40
   5   2  -3    0.70    0.40
  -5  -2   3    0.90    0.40
  -5  -2   3    0.40    0.40
  -5  -2   3    1.50    0.40
  -5  -2   3    1.40    0.40
   4   2  -3   21.50    1.20
   4   2  -3   21.90    1.30
  -4  -2   3   24.80    1.30
  -4  -2   3   22.40    1.20
  -4  -2   3   23.50    1.30
  -4  -2   3   25.20    1.30
   3   2  -3  234.58    9.30
   3   2  -3  222.48    9.20
  -3  -2   3  232.88    9.20
  -3  -2   3  225.58    9.30
  -3  -2   3  227.38    9.20
   2   2  -3   95.49    4.10
   2   2  -3   97.49    4.00
   2   2  -3   92.19    4.00
  -2  -2   3  102.69    4.00
  -2  -2   3   94.39    4.10
  -2  -2   3   94.89    4.00
   1   2  -3  129.29    5.20
   1   2  -3  123.49    5.20
   1   2  -3  127.09    5.20
  -1  -2   3  127.39    5.10
  -1  -2   3  123.39    5.20
  -1  -2   3  128.49    5.20
   0   2  -3  120.09    5.10
   0   2  -3  129.29    5.20
   0   2  -3  123.09    5.10
   0  -2   3  124.79    5.20
   0  -2   3  123.99    5.10
   0  -2   3  130.79    5.10
  -1   2  -3  373.06   14.80
  -1   2  -3  371.66   14.70
  -1   2  -3  364.56   14.70
   1  -2   3  368.26   14.70
   1  -2   3  385.76   14.80
   1  -2   3  370.06   14.80
  -2   2  -3  695.13   27.60
  -2   2  -3  698.13   27.50
  -2   2  -3  698.93   27.50
   2  -2   3  703.63   27.50
   2  -2   3  691.03   27.60
   2  -2   3  707.13   27.60
  -3   2  -3  279.97   11.70
  -3   2  -3  295.87   11.70
  -3   2  -3  284.27   11.70
  -3   2  -3  301.57   11.70
   3  -2   3  291.57   11.70
   3  -2   3  298.77   11.70
  -4   2  -3  997.40   39.30
  -4   2  -3 1029.30   39.30
  -4   2  -3 1002.20   39.30
  -4   2  -3  947.11   39.30
   4  -2   3 1036.80   39.40
   4  -2   3  980.30   39.30
  -5   2  -3    5.40    0.70
  -5   2  -3    7.00    0.80
  -5   2  -3    5.20    0.50
  -5   2  -3    5.20    0.60
   5  -2   3    5.40    0.80
  -6   2  -3   56.89    2.40
  -6   2  -3   56.19    2.60
  -6   2  -3   52.49    2.50
   6  -2   3   52.09    2.40
   6  -2   3   52.79    2.60
   6  -2   3   53.59    2.70
  -7   2  -3   17.40    1.20
  -7   2  -3   16.70    1.00
   7  -2   3   17.70    1.20
   7  -2   3   15.40    1.30
   7  -2   3   17.70    1.00
  -8   2  -3   -0.10    0.30
  -8   2  -3   -0.30    0.50
   8  -2   3    0.50    0.40
   8  -2   3    1.60    0.70
  -9   2  -3   11.60    1.20
  -9   2  -3   13.10    0.90
   9  -2   3   13.40    1.00
   9  -2   3   15.60    1.60
 -10   2  -3    1.80    0.80
 -10   2  -3    1.60    0.50
  10  -2   3    2.50    0.50
  10  -2   3    1.20    0.90
 -11   2  -3   19.70    1.20
 -11   2  -3   20.80    1.70
  11  -2   3   19.10    1.80
  11  -2   3   17.60    1.20
 -12   2  -3   35.10    2.40
 -12   2  -3   34.50    1.70
  12  -2   3   35.90    2.70
  12  -2   3   31.50    1.70
 -13   2  -3    6.30    1.30
  13  -2   3    6.20    1.40
 -14   2  -3   -1.10    1.00
  14  -2   3    1.40    1.30
 -15   2  -3   -0.50    1.20
  15  -2   3    1.30    1.50
 -16   2  -3    3.70    1.60
  16  -2   3    3.00    1.80
  15   1  -3    0.20    1.40
 -15  -1   3    1.50    1.40
  14   1  -3    9.30    1.60
 -14  -1   3    6.10    1.30
  13   1  -3    8.20    1.50
 -13  -1   3    8.00    1.40
  12   1  -3   25.30    2.00
 -12  -1   3   26.50    2.00
  11   1  -3   48.20    2.30
  11   1  -3   56.79    2.90
 -11  -1   3   47.40    2.80
  10   1  -3  102.79    4.40
  10   1  -3  108.69    4.90
 -10  -1   3  104.69    4.90
   9   1  -3   76.79    3.60
   9   1  -3   70.59    3.20
   9   1  -3   78.69    3.20
  -9  -1   3   74.39    3.60
   8   1  -3  132.39    5.30
   8   1  -3  121.59    5.30
   8   1  -3  131.19    5.70
  -8  -1   3  123.79    5.60
  -8  -1   3  133.89    5.60
   7   1  -3   25.00    1.50
   7   1  -3   25.40    1.30
  -7  -1   3   23.60    1.60
  -7  -1   3   23.20    1.30
  -7  -1   3   26.20    1.50
   6   1  -3   13.20    1.00
   6   1  -3   12.80    1.00
   6   1  -3   14.40    0.80
  -6  -1   3   12.60    1.00
  -6  -1   3   11.60    1.00
  -6  -1   3   13.10    0.80
   5   1  -3    3.40    0.60
   5   1  -3    4.00    0.50
  -5  -1   3    3.40    0.50
  -5  -1   3    3.40    0.50
  -5  -1   3    3.60    0.60
  -5  -1   3    3.70    0.50
   4   1  -3  243.08   10.00
   4   1  -3  248.98   10.00
  -4  -1   3  248.68   10.10
  -4  -1   3  248.58   10.00
  -4  -1   3  251.67   10.10
  -4  -1   3  252.87   10.10
   3   1  -3   59.29    2.50
   3   1  -3   56.49    2.50
  -3  -1   3   57.09    2.60
  -3  -1   3   56.39    2.50
  -3  -1   3   56.99    2.50
  -3  -1   3   59.99    2.50
   2   1  -3   39.00    1.80
   2   1  -3   40.10    1.80
   2   1  -3   39.40    1.80
  -2  -1   3   38.60    1.70
  -2  -1   3   40.40    1.80
  -2  -1   3   39.40    1.80
   1   1  -3  173.98    6.90
   1   1  -3  168.48    6.80
   1   1  -3  170.48    6.80
  -1  -1   3  164.08    6.90
  -1  -1   3  171.48    6.80
   0   1  -3   26.70    1.20
   0   1  -3   28.20    1.30
   0   1  -3   24.60    1.20
   0  -1   3   28.10    1.30
   0  -1   3   27.00    1.20
   0  -1   3   27.40    1.20
  -1   1  -3   10.80    0.60
  -1   1  -3   11.30    0.60
  -1   1  -3   10.40    0.60
   1  -1   3    8.30    0.50
   1  -1   3    9.50    0.60
   1  -1   3    9.20    0.60
  -2   1  -3   26.60    1.30
  -2   1  -3   28.60    1.30
   2  -1   3   27.80    1.30
  -3   1  -3   18.40    1.00
  -3   1  -3   17.40    1.00
  -3   1  -3   18.00    1.00
  -3   1  -3   18.20    1.00
   3  -1   3   17.40    0.90
   3  -1   3   18.80    1.00
  -4   1  -3  267.67   10.50
  -4   1  -3  251.77   10.50
   4  -1   3  272.37   10.60
   4  -1   3  261.07   10.50
   4  -1   3  257.87   10.50
  -5   1  -3  128.79    5.30
  -5   1  -3  128.89    5.30
  -5   1  -3  122.49    5.30
   5  -1   3  131.69    5.30
   5  -1   3  129.89    5.40
   5  -1   3  124.79    5.30
  -6   1  -3    3.20    0.60
  -6   1  -3    1.90    0.50
  -6   1  -3    2.90    0.40
   6  -1   3    3.20    0.50
   6  -1   3    2.30    0.70
   6  -1   3    1.80    0.50
  -7   1  -3   24.90    1.50
  -7   1  -3   26.70    1.50
  -7   1  -3   25.50    1.30
   7  -1   3   28.00    1.60
   7  -1   3   21.50    1.40
   7  -1   3   24.30    1.30
  -8   1  -3    0.10    0.50
  -8   1  -3    0.20    0.30
   8  -1   3    1.70    0.70
   8  -1   3    1.60    0.40
  -9   1  -3    0.70    0.40
  -9   1  -3    1.20    0.60
   9  -1   3    1.40    0.50
   9  -1   3    1.70    0.70
 -10   1  -3   46.70    2.60
 -10   1  -3   46.20    2.20
  10  -1   3   46.10    2.20
  10  -1   3   50.89    2.80
 -11   1  -3   13.50    1.40
 -11   1  -3   11.80    0.90
  11  -1   3   12.00    1.50
  11  -1   3   10.40    1.00
 -12   1  -3   47.20    2.70
 -12   1  -3   44.70    2.10
  12  -1   3   45.50    2.90
  12  -1   3   38.90    2.00
 -13   1  -3    7.20    1.30
  13  -1   3    4.40    1.20
 -14   1  -3   30.10    2.50
  14  -1   3   33.50    2.90
 -15   1  -3    5.20    1.40
  15  -1   3    5.20    1.70
 -16   1  -3   -0.50    1.40
  16  -1   3    1.60    1.60
  15   0  -3    1.70    1.40
 -15   0   3    1.90    1.20
  14   0  -3    2.10    1.60
 -14   0   3    1.20    1.10
  13   0  -3    1.00    1.10
 -13   0   3    0.00    1.00
  12   0  -3    2.10    1.00
 -12   0   3    2.40    0.90
  11   0  -3    0.20    0.80
 -11   0   3    0.40    0.70
  10   0  -3    6.30    1.10
 -10   0   3    5.30    1.00
   9   0  -3    2.20    0.40
   9   0  -3    2.30    0.30
   9   0  -3    2.70    0.90
  -9   0   3    2.20    0.70
   8   0  -3   48.30    2.00
   8   0  -3   46.00    2.50
  -8   0   3   44.60    2.40
   7   0  -3   34.00    1.60
   7   0  -3   35.00    1.90
  -7   0   3   34.70    1.90
  -7   0   3   33.50    1.90
   6   0  -3    0.50    0.40
   6   0  -3    0.70    0.40
   6   0  -3    0.50    0.40
  -6   0   3    0.30    0.40
  -6   0   3    0.40    0.30
  -6   0   3    0.80    0.40
   5   0  -3  310.57   13.00
   5   0  -3  331.07   13.10
  -5   0   3  322.57   13.00
  -5   0   3  325.27   12.80
  -5   0   3  326.17   13.10
   4   0  -3    1.90    0.40
   4   0  -3    1.20    0.40
  -4   0   3    2.40    0.30
  -4   0   3    3.00    0.50
  -4   0   3    2.70    0.40
   3   0  -3   60.99    2.70
  -3   0   3   64.69    2.80
  -3   0   3   62.99    2.70
  -3   0   3   63.39    2.60
  -3   0   3   61.69    2.80
   2   0  -3    0.90    0.20
  -2   0   3    1.50    0.30
  -2   0   3    1.80    0.30
  -2   0   3    1.70    0.30
   1   0  -3  101.39    4.30
   1   0  -3  103.99    4.20
  -1   0   3  105.09    4.20
  -1   0   3  104.19    4.20
  -1   0   3  104.79    4.30
   0   0  -3   89.89    3.60
   0   0  -3   98.29    3.70
   0   0  -3   88.09    3.70
   0   0   3   85.69    3.60
   0   0   3   91.09    3.70
   0   0   3   90.29    3.70
  -1   0  -3   44.40    1.90
  -1   0  -3   44.10    1.90
  -1   0  -3   43.40    1.80
   1   0   3   44.10    1.80
   1   0   3   39.20    1.90
  -2   0  -3   28.40    1.30
  -2   0  -3   29.50    1.30
  -2   0  -3   26.20    1.30
   2   0   3   32.30    1.40
   2   0   3   30.60    1.40
  -3   0  -3  149.39    5.90
  -3   0  -3  141.39    5.90
   3   0   3  141.99    5.90
   3   0   3  154.88    6.00
   3   0   3  144.89    5.90
  -4   0  -3  668.13   26.50
  -4   0  -3  669.13   26.50
  -4   0  -3  687.13   26.50
   4   0   3  681.83   26.60
   4   0   3  670.13   26.50
   4   0   3  660.33   26.50
  -5   0  -3  297.27   12.20
  -5   0  -3  307.97   12.20
  -5   0  -3  299.27   12.20
   5   0   3  317.27   12.30
   5   0   3  302.37   12.20
   5   0   3  305.47   12.10
  -6   0  -3  184.78    7.30
  -6   0  -3  185.18    7.40
  -6   0  -3  168.58    7.40
   6   0   3  176.48    7.40
   6   0   3  179.38    7.30
   6   0   3  188.18    7.50
  -7   0  -3  139.59    5.70
  -7   0  -3  142.89    5.80
  -7   0  -3  132.49    5.80
   7   0   3  138.79    5.70
   7   0   3  141.49    5.90
   7   0   3  132.09    5.80
  -8   0  -3   48.00    2.40
  -8   0  -3   46.80    2.20
  -8   0  -3   43.60    2.50
   8   0   3   46.10    2.10
   8   0   3   47.30    2.50
  -9   0  -3   73.29    3.30
  -9   0  -3   69.79    3.00
   9   0   3   63.79    3.00
 -10   0  -3   19.50    1.20
 -10   0  -3   18.50    1.50
  10   0   3   16.30    1.10
  10   0   3   19.40    1.60
 -11   0  -3    3.90    0.60
 -11   0  -3    4.40    1.00
  11   0   3    5.00    1.00
  11   0   3    2.60    0.60
 -12   0  -3   18.90    1.70
  12   0   3   12.10    1.10
  12   0   3   16.80    1.80
 -13   0  -3    0.50    0.90
  13   0   3    0.50    0.60
  13   0   3   -0.10    1.00
  13   0   3   -0.20    0.50
 -14   0  -3    2.60    1.20
  14   0   3    1.90    1.20
 -15   0  -3    7.60    1.50
  15   0   3    7.70    1.60
 -16   0  -3    2.40    1.40
  16   0   3   -1.00    1.60
  15  -1  -3    1.90    1.50
 -15   1   3    4.80    1.40
  14  -1  -3   10.60    1.70
 -14   1   3   13.30    1.70
  13  -1  -3   10.30    1.60
 -13   1   3    9.10    1.50
  12  -1  -3    4.10    1.10
 -12   1   3    5.50    1.20
  11  -1  -3   41.90    2.60
 -11   1   3   43.50    2.60
  10  -1  -3   14.20    1.50
 -10   1   3   14.50    1.40
   9  -1  -3   46.40    2.50
  -9   1   3   39.90    2.30
   8  -1  -3   27.50    1.80
  -8   1   3   26.00    1.70
   7  -1  -3   10.10    1.00
  -7   1   3   11.40    1.00
  -7   1   3    9.50    1.00
   6  -1  -3    0.30    0.40
   6  -1  -3    0.80    0.20
   6  -1  -3    0.00    0.40
  -6   1   3    1.10    0.40
  -6   1   3    0.80    0.20
  -6   1   3    0.10    0.50
   5  -1  -3   22.00    1.00
   5  -1  -3   21.50    1.30
   5  -1  -3   19.50    1.20
  -5   1   3   23.00    1.20
  -5   1   3   19.70    1.30
  -5   1   3   20.90    1.00
   4  -1  -3  427.86   17.30
   4  -1  -3  427.86   17.20
   4  -1  -3  442.46   17.00
  -4   1   3  435.36   17.30
  -4   1   3  435.66   17.00
  -4   1   3  430.76   17.20
   3  -1  -3  125.29    4.90
   3  -1  -3  121.99    5.00
   3  -1  -3  122.59    5.10
  -3   1   3  119.79    5.10
  -3   1   3  122.39    4.90
  -3   1   3  123.59    5.00
   2  -1  -3  103.19    4.20
   2  -1  -3  103.89    4.20
  -2   1   3  108.29    4.30
  -2   1   3  101.39    4.30
  -2   1   3  101.79    4.20
  -2   1   3  103.39    4.20
   1  -1  -3  128.79    5.20
   1  -1  -3  132.29    5.40
   1  -1  -3  134.19    5.30
  -1   1   3  130.69    5.20
  -1   1   3  132.89    5.40
   0  -1  -3   18.40    0.90
   0  -1  -3   19.60    0.90
   0   1   3   18.80    0.90
   0   1   3   19.10    0.80
  -1  -1  -3  245.78   10.20
   1   1   3  271.67   10.30
  -2  -1  -3  167.68    6.50
  -2  -1  -3  156.18    6.60
  -2  -1  -3  164.78    6.60
   2   1   3  166.28    6.50
   2   1   3  174.48    6.60
   2   1   3  155.48    6.60
  -3  -1  -3 1547.25   61.09
  -3  -1  -3 1572.84   61.09
  -3  -1  -3 1569.24   61.19
   3   1   3 1585.84   61.09
   3   1   3 1531.15   61.19
  -4  -1  -3    4.00    0.50
  -4  -1  -3    4.30    0.50
  -4  -1  -3    4.80    0.50
   4   1   3    5.10    0.50
   4   1   3    6.40    0.50
   4   1   3    5.50    0.50
  -5  -1  -3   26.80    1.30
  -5  -1  -3   26.10    1.30
  -5  -1  -3   26.10    1.30
   5   1   3   25.60    1.30
   5   1   3   25.20    1.30
   5   1   3   25.40    1.30
  -6  -1  -3  231.38    9.20
  -6  -1  -3  231.88    9.30
  -6  -1  -3  222.78    9.20
   6   1   3  220.48    9.20
   6   1   3  236.68    9.30
   6   1   3  223.78    9.20
  -7  -1  -3   61.99    2.80
  -7  -1  -3   60.99    2.80
  -7  -1  -3   64.19    2.90
   7   1   3   66.29    2.90
   7   1   3   58.89    2.80
   7   1   3   60.39    2.70
  -8  -1  -3   72.49    3.30
  -8  -1  -3   76.09    3.20
  -8  -1  -3   71.29    3.30
   8   1   3   65.99    3.50
   8   1   3   76.29    3.40
   8   1   3   72.09    3.10
  -9  -1  -3   25.90    1.80
  -9  -1  -3   25.30    1.40
   9   1   3   26.70    1.70
   9   1   3   22.20    1.30
 -10  -1  -3   11.00    1.20
 -10  -1  -3    8.50    0.90
  10   1   3    8.40    0.80
  10   1   3   10.40    1.30
 -11  -1  -3    4.80    0.70
 -11  -1  -3    3.30    0.90
  11   1   3    3.80    0.60
  11   1   3    4.90    1.10
 -12  -1  -3   12.20    1.50
  12   1   3   13.20    1.60
  12   1   3    8.60    1.00
 -13  -1  -3   13.70    1.70
  13   1   3   12.90    1.10
  13   1   3   12.80    1.70
  13   1   3   13.70    1.10
 -14  -1  -3    5.60    1.30
  14   1   3    4.70    0.70
  14   1   3    8.00    1.40
  14   1   3    4.10    0.80
 -15  -1  -3    1.50    1.20
  15   1   3   -1.10    1.40
 -16  -1  -3    3.30    1.40
  16   1   3    0.50    1.60
  15  -2  -3   -1.40    1.40
 -15   2   3    3.20    1.30
  14  -2  -3    5.60    1.40
 -14   2   3    4.30    1.30
  13  -2  -3   15.10    2.00
 -13   2   3   14.80    1.80
  12  -2  -3    6.10    1.40
 -12   2   3    7.40    1.30
  11  -2  -3    0.90    0.80
 -11   2   3    1.80    0.80
  10  -2  -3   19.80    1.70
 -10   2   3   19.80    1.60
   9  -2  -3   23.30    1.70
  -9   2   3   21.00    1.60
  -8   2   3   59.59    2.90
   7  -2  -3   68.49    3.30
  -7   2   3   70.29    3.20
  -7   2   3   64.89    3.90
   6  -2  -3  120.79    5.30
   6  -2  -3  127.59    5.50
  -6   2   3  121.39    5.40
  -6   2   3  132.39    5.40
   5  -2  -3  166.88    7.10
   5  -2  -3  163.58    6.90
  -5   2   3  166.28    7.00
  -5   2   3  174.68    6.90
   4  -2  -3  210.48    8.60
   4  -2  -3  218.08    8.30
   4  -2  -3  206.78    8.50
  -4   2   3  208.18    8.60
  -4   2   3  208.38    8.30
  -4   2   3  209.88    8.50
   3  -2  -3  380.16   14.70
   3  -2  -3  360.36   14.80
   3  -2  -3  377.06   15.00
  -3   2   3  369.76   14.70
  -3   2   3  375.26   15.00
  -3   2   3  379.56   14.80
   2  -2  -3   21.70    1.10
   2  -2  -3   20.90    1.00
   2  -2  -3   23.00    1.20
  -2   2   3   24.10    1.20
  -2   2   3   25.50    1.00
   1  -2  -3  191.48    7.40
   1  -2  -3  183.48    7.40
  -1   2   3  183.48    7.30
  -1   2   3  175.88    7.50
  -1   2   3  193.28    7.40
  -1   2   3  182.28    7.50
   0  -2  -3  501.15   19.60
   0  -2  -3  492.85   19.60
   0   2   3  484.75   19.60
   0   2   3  487.35   19.50
   0   2   3  519.75   19.70
  -1  -2  -3   36.80    1.70
  -1  -2  -3   36.00    1.50
   1   2   3   37.60    1.50
   1   2   3   36.70    1.70
   1   2   3   41.00    1.60
  -2  -2  -3   13.20    0.80
  -2  -2  -3   13.80    0.80
  -2  -2  -3   14.10    0.70
   2   2   3   14.20    0.80
   2   2   3   14.20    0.70
   2   2   3   15.90    0.70
  -3  -2  -3    7.30    0.50
  -3  -2  -3    8.30    0.50
  -3  -2  -3    8.10    0.60
   3   2   3    7.30    0.50
   3   2   3    5.30    0.50
   3   2   3    5.10    0.40
  -4  -2  -3  189.78    7.50
  -4  -2  -3  185.88    7.40
  -4  -2  -3  189.08    7.60
   4   2   3  183.08    7.50
   4   2   3  189.68    7.50
   4   2   3  179.58    7.50
  -5  -2  -3   19.70    1.10
  -5  -2  -3   20.90    1.10
  -5  -2  -3   20.70    1.10
   5   2   3   20.60    1.10
   5   2   3   19.70    1.10
   5   2   3   20.70    1.10
  -6  -2  -3    7.90    0.60
  -6  -2  -3    8.70    0.70
  -6  -2  -3    8.50    0.70
   6   2   3    8.00    0.70
   6   2   3    7.60    0.70
   6   2   3    7.00    0.70
  -7  -2  -3   50.09    2.30
  -7  -2  -3   46.80    2.20
  -7  -2  -3   48.00    2.30
   7   2   3   46.60    2.20
   7   2   3   50.09    2.30
   7   2   3   45.90    2.30
  -8  -2  -3    2.40    0.60
  -8  -2  -3    3.10    0.50
  -8  -2  -3    2.70    0.60
   8   2   3    3.20    0.60
   8   2   3    2.40    0.50
  -9  -2  -3    1.40    0.50
  -9  -2  -3    1.20    0.50
  -9  -2  -3    2.30    0.70
   9   2   3    1.60    0.70
   9   2   3    2.20    0.50
 -10  -2  -3    3.10    0.70
 -10  -2  -3    2.20    0.80
  10   2   3    3.70    0.80
  10   2   3    2.20    0.60
 -11  -2  -3   13.20    1.40
  11   2   3   15.00    1.20
  11   2   3   15.70    1.50
 -12  -2  -3    7.10    1.20
  12   2   3    8.60    0.90
  12   2   3    6.50    0.80
  12   2   3    7.60    1.30
 -13  -2  -3    2.90    1.00
  13   2   3    1.70    0.70
  13   2   3    2.10    1.00
  13   2   3    2.40    0.80
 -14  -2  -3    5.20    1.30
  14   2   3    6.10    1.50
  14   2   3    2.40    0.90
  14   2   3    6.60    0.90
 -15  -2  -3   14.10    1.80
  15   2   3   15.70    2.00
  15   2   3   16.00    1.20
 -16  -2  -3   13.30    1.90
  16   2   3   13.40    2.10
  15  -3  -3    2.40    1.40
 -15   3   3    1.60    1.30
  14  -3  -3    3.60    1.50
 -14   3   3    5.40    1.40
  13  -3  -3    0.00    1.20
 -13   3   3    1.00    1.10
  12  -3  -3    8.30    1.50
 -12   3   3    9.10    1.30
  11  -3  -3   24.00    2.10
 -11   3   3   24.70    1.90
  10  -3  -3  102.69    5.00
 -10   3   3  104.49    4.90
   9  -3  -3   28.10    2.10
  -9   3   3   32.80    1.90
   8  -3  -3   12.60    1.30
  -8   3   3   16.40    1.20
   7  -3  -3    4.10    0.80
  -7   3   3    4.10    0.70
   6  -3  -3    6.80    0.80
   6  -3  -3    5.20    0.70
  -6   3   3    6.00    0.80
  -6   3   3    5.50    0.70
   5  -3  -3    4.80    0.60
   5  -3  -3    5.50    0.80
  -5   3   3    5.40    1.10
  -5   3   3    5.70    0.70
   4  -3  -3   36.40    1.70
   4  -3  -3   35.10    1.80
   4  -3  -3   34.00    1.50
  -4   3   3   34.90    1.50
  -4   3   3   36.90    1.70
  -4   3   3   37.30    1.80
   3  -3  -3   87.19    3.50
   3  -3  -3   85.09    3.70
   3  -3  -3   86.29    3.60
  -3   3   3   84.89    3.70
  -3   3   3   85.29    3.50
  -3   3   3   86.29    3.60
   2  -3  -3   42.40    2.00
   2  -3  -3   43.50    1.90
  -2   3   3   44.30    1.90
  -2   3   3   46.10    1.90
  -2   3   3   42.80    2.00
   1  -3  -3   34.80    1.60
  -1   3   3   34.90    1.60
  -1   3   3   34.20    1.60
  -1   3   3   34.20    1.60
  -1   3   3   34.60    1.50
   0  -3  -3  120.19    5.00
   0  -3  -3  121.99    4.90
   0   3   3  121.99    5.00
   0   3   3  121.89    5.00
   0   3   3  121.49    4.90
  -1  -3  -3  448.86   17.70
  -1  -3  -3  450.05   17.60
  -1  -3  -3  460.85   17.70
   1   3   3  450.95   17.60
   1   3   3  434.46   17.70
   1   3   3  433.26   17.60
  -2  -3  -3  497.75   19.50
  -2  -3  -3  492.55   19.70
  -2  -3  -3  495.95   19.60
   2   3   3  481.05   19.70
   2   3   3  493.65   19.60
   2   3   3  519.35   19.50
  -3  -3  -3   14.10    0.90
  -3  -3  -3   15.80    0.80
   3   3   3   15.90    0.90
   3   3   3   17.00    0.80
   3   3   3   16.20    0.80
  -4  -3  -3   28.10    1.20
  -4  -3  -3   27.80    1.30
  -4  -3  -3   28.50    1.40
   4   3   3   25.40    1.30
   4   3   3   25.00    1.40
   4   3   3   27.00    1.40
  -5  -3  -3  120.09    4.80
  -5  -3  -3  111.09    4.60
  -5  -3  -3  115.09    4.80
   5   3   3  110.89    4.70
   5   3   3  111.59    4.60
   5   3   3  110.29    4.80
  -6  -3  -3    7.20    0.80
  -6  -3  -3    7.40    0.80
  -6  -3  -3    6.30    0.60
   6   3   3    5.80    0.60
   6   3   3    5.30    0.70
   6   3   3    6.30    0.70
  -7  -3  -3   40.00    2.00
  -7  -3  -3   37.90    1.80
  -7  -3  -3   39.10    2.00
   7   3   3   37.50    2.00
   7   3   3   37.50    1.90
   7   3   3   40.10    1.90
  -8  -3  -3   10.90    0.90
  -8  -3  -3   10.80    0.90
  -8  -3  -3   12.00    1.00
   8   3   3   10.70    0.90
   8   3   3   12.00    1.00
  -9  -3  -3   92.79    3.80
  -9  -3  -3   84.99    3.80
  -9  -3  -3   73.69    3.60
   9   3   3   78.39    3.60
   9   3   3   82.89    3.80
 -10  -3  -3   26.00    1.80
 -10  -3  -3   24.50    1.60
  10   3   3   27.60    2.20
  10   3   3   27.20    1.80
 -11  -3  -3   38.90    2.40
  11   3   3   39.30    2.10
  11   3   3   43.80    2.20
 -12  -3  -3   11.90    1.50
  12   3   3   12.00    1.30
  12   3   3   17.10    1.70
  12   3   3   14.80    1.30
 -13  -3  -3    7.90    1.40
  13   3   3    8.10    1.10
  13   3   3   10.20    1.10
  13   3   3   10.60    1.50
 -14  -3  -3   21.20    2.10
  14   3   3   26.10    2.30
  14   3   3   24.50    1.70
 -15  -3  -3   13.40    1.80
  15   3   3   16.20    1.90
  15   3   3    9.70    1.20
 -16  -3  -3    1.10    1.50
  16   3   3    3.00    1.80
  15  -4  -3    3.70    1.60
 -15   4   3    3.20    1.40
  14  -4  -3    3.90    1.50
 -14   4   3    0.90    1.10
  13  -4  -3   10.80    1.70
 -13   4   3    8.60    1.40
  12  -4  -3   25.90    2.20
 -12   4   3   20.80    2.00
  11  -4  -3   27.50    2.30
 -11   4   3   29.60    2.10
  10  -4  -3   17.80    1.80
 -10   4   3   20.10    1.60
   9  -4  -3   61.09    3.40
  -9   4   3   62.99    3.20
   8  -4  -3   33.10    2.00
  -8   4   3   27.50    1.80
   7  -4  -3   33.00    2.30
  -7   4   3   32.40    2.00
   6  -4  -3    9.40    1.10
   6  -4  -3    8.20    0.90
  -6   4   3    8.20    0.90
   5  -4  -3   16.20    1.10
   5  -4  -3   16.20    1.20
  -5   4   3   17.90    1.20
  -5   4   3   17.90    0.90
  -5   4   3   18.20    0.80
  -5   4   3   18.00    1.10
   4  -4  -3   36.80    1.90
  -4   4   3   36.70    1.80
  -4   4   3   34.40    1.90
  -4   4   3   36.80    1.60
   3  -4  -3   74.39    3.40
  -3   4   3   74.99    3.40
  -3   4   3   78.99    3.20
  -3   4   3   75.69    3.30
  -3   4   3   74.69    3.30
   2  -4  -3  221.28    8.90
   2  -4  -3  218.88    9.00
  -2   4   3  223.98    8.90
  -2   4   3  216.68    9.00
  -2   4   3  223.48    8.90
  -2   4   3  222.68    8.90
   1  -4  -3  190.98    7.60
   1  -4  -3  184.58    7.60
   1  -4  -3  186.28    7.60
  -1   4   3  187.88    7.60
  -1   4   3  186.38    7.50
  -1   4   3  190.78    7.60
   0  -4  -3  155.18    6.20
   0  -4  -3  146.79    6.10
   0   4   3  154.18    6.20
   0   4   3  150.88    6.20
   0   4   3  149.59    6.10
  -1  -4  -3   21.50    1.10
  -1  -4  -3   20.00    1.20
   1   4   3   24.00    1.10
   1   4   3   22.80    1.10
   1   4   3   22.50    1.20
  -2  -4  -3  120.19    5.10
  -2  -4  -3  123.39    5.00
  -2  -4  -3  124.79    4.90
   2   4   3  117.09    5.00
   2   4   3  120.79    5.10
   2   4   3  126.59    4.90
  -3  -4  -3    7.70    0.60
  -3  -4  -3    8.10    0.40
  -3  -4  -3    7.80    0.60
   3   4   3    6.20    0.50
   3   4   3    6.10    0.60
   3   4   3    7.00    0.40
  -4  -4  -3    1.20    0.20
  -4  -4  -3    0.90    0.30
  -4  -4  -3    0.60    0.30
   4   4   3    1.40    0.30
   4   4   3    1.50    0.30
   4   4   3    0.90    0.30
  -5  -4  -3    0.40    0.30
  -5  -4  -3    0.50    0.40
  -5  -4  -3    0.80    0.20
   5   4   3    1.00    0.40
   5   4   3    0.70    0.30
  -6  -4  -3    3.60    0.60
  -6  -4  -3    4.50    0.50
  -6  -4  -3    4.40    0.70
   6   4   3    2.60    0.40
   6   4   3    3.20    0.80
   6   4   3    1.70    0.50
  -7  -4  -3  258.77   10.40
  -7  -4  -3  257.77   10.20
  -7  -4  -3  264.17   10.50
   7   4   3  261.87   10.30
   7   4   3  250.37   10.40
   7   4   3  237.68   10.40
  -8  -4  -3   15.20    1.00
  -8  -4  -3   18.70    1.30
  -8  -4  -3   19.90    1.30
   8   4   3   19.30    1.20
   8   4   3   18.00    1.20
  -9  -4  -3   10.00    1.20
  -9  -4  -3    8.90    0.90
   9   4   3    7.70    1.00
   9   4   3    7.20    0.90
   9   4   3    8.30    0.90
 -10  -4  -3   36.10    2.00
 -10  -4  -3   41.30    2.30
  10   4   3   41.20    2.20
  10   4   3   39.40    2.20
  10   4   3   36.00    2.00
 -11  -4  -3    1.50    0.80
  11   4   3    1.40    0.80
  11   4   3    0.70    0.70
  11   4   3   -0.20    0.80
 -12  -4  -3    5.40    1.10
  12   4   3    5.60    1.10
  12   4   3    6.10    1.00
 -13  -4  -3    9.20    1.50
  13   4   3    9.30    1.30
  13   4   3    7.40    1.20
 -14  -4  -3   -0.60    1.10
  14   4   3    0.60    0.90
  14   4   3    1.10    1.10
 -15  -4  -3   10.40    1.70
  15   4   3    9.90    1.30
  15   4   3   11.20    1.80
 -16  -4  -3   15.20    2.00
  16   4   3   15.90    2.10
  15  -5  -3    1.10    1.60
 -15   5   3    1.20    1.40
  14  -5  -3    0.70    1.30
 -14   5   3    0.30    1.10
  13  -5  -3    2.70    1.20
 -13   5   3    0.80    1.10
  12  -5  -3   11.30    2.50
 -12   5   3   12.10    1.90
  11  -5  -3   31.90    2.50
 -11   5   3   34.50    2.30
  10  -5  -3    4.30    1.10
 -10   5   3    4.10    1.00
   9  -5  -3    2.40    0.90
  -9   5   3    2.70    0.80
   8  -5  -3   16.00    1.50
  -8   5   3   17.60    1.40
   7  -5  -3   14.30    1.40
  -7   5   3   16.80    1.30
   6  -5  -3   66.99    3.40
  -6   5   3   69.99    2.80
  -6   5   3   65.19    2.80
  -6   5   3   68.59    3.20
   5  -5  -3   49.70    2.50
  -5   5   3   47.00    2.30
  -5   5   3   48.30    2.10
  -5   5   3   51.19    2.10
  -5   5   3   49.10    2.50
  -5   5   3   47.90    2.40
   4  -5  -3   18.80    1.30
  -4   5   3   18.70    1.30
  -4   5   3   19.60    1.00
  -4   5   3   19.50    1.00
  -4   5   3   18.40    1.20
   3  -5  -3    2.40    0.50
  -3   5   3    2.60    0.50
  -3   5   3    2.90    0.50
  -3   5   3    2.60    0.40
  -3   5   3    2.60    0.40
  -3   5   3    2.40    0.40
   2  -5  -3  602.14   24.30
   2  -5  -3  610.44   24.40
  -2   5   3  621.14   24.40
  -2   5   3  625.44   24.40
  -2   5   3  602.94   24.40
  -2   5   3  632.44   24.40
   1  -5  -3  188.98    7.80
   1  -5  -3  193.98    7.70
  -1   5   3  191.28    7.80
  -1   5   3  196.38    7.80
  -1   5   3  186.28    7.80
  -1   5   3  187.98    7.70
   0  -5  -3  383.06   15.50
   0  -5  -3  392.36   15.30
   0  -5  -3  384.46   15.30
   0   5   3  388.16   15.30
   0   5   3  381.56   15.30
   0   5   3  387.86   15.40
  -1  -5  -3 1127.69   43.80
  -1  -5  -3 1127.19   44.00
   1   5   3 1085.19   43.80
   1   5   3 1123.69   43.70
   1   5   3 1145.79   43.80
   1   5   3 1083.89   43.90
  -2  -5  -3  489.05   19.10
  -2  -5  -3  487.65   19.30
   2   5   3  470.25   19.10
   2   5   3  469.05   19.20
   2   5   3  482.65   19.00
   2   5   3  491.95   18.90
  -3  -5  -3   62.09    2.80
  -3  -5  -3   61.89    2.60
   3   5   3   54.99    2.70
   3   5   3   56.09    2.60
   3   5   3   58.49    2.40
  -4  -5  -3   11.40    0.60
  -4  -5  -3   12.00    0.90
  -4  -5  -3   10.80    0.80
   4   5   3   10.40    0.90
   4   5   3   10.50    0.60
   4   5   3   10.40    0.80
  -5  -5  -3   30.70    1.60
  -5  -5  -3   29.00    1.70
  -5  -5  -3   28.50    1.30
   5   5   3   29.20    1.30
  -6  -5  -3   10.50    0.60
  -6  -5  -3   11.20    0.90
   6   5   3   10.10    0.90
   6   5   3    9.20    0.80
   6   5   3    9.60    0.90
  -7  -5  -3    6.20    0.80
  -7  -5  -3    5.00    0.50
   7   5   3    4.70    0.70
   7   5   3    4.40    0.50
   7   5   3    4.10    0.80
  -8  -5  -3    2.80    0.50
  -8  -5  -3    2.10    0.70
   8   5   3    3.00    0.70
   8   5   3    2.40    0.60
   8   5   3    2.00    0.50
  -9  -5  -3   21.70    1.50
  -9  -5  -3   17.50    1.10
   9   5   3   18.60    1.40
   9   5   3   17.50    1.20
 -10  -5  -3   25.60    1.80
 -10  -5  -3   20.70    1.40
  10   5   3   23.30    1.50
  10   5   3   23.10    1.70
 -11  -5  -3    0.60    0.80
 -11  -5  -3   -0.70    0.60
  11   5   3    1.00    0.70
  11   5   3   -0.30    0.80
 -12  -5  -3    6.30    1.20
  12   5   3    7.50    1.10
  12   5   3    7.40    1.10
  13   5   3    2.70    1.10
  13   5   3    1.70    0.90
 -14  -5  -3    2.60    1.30
  14   5   3    1.60    1.00
  14   5   3    4.10    1.20
 -15  -5  -3   10.30    1.80
  15   5   3   10.90    1.60
  15   5   3    7.40    1.30
 -16  -5  -3    2.90    1.60
  16   5   3    0.90    1.60
  15  -6  -3    8.70    2.60
 -15   6   3    6.50    2.00
  14  -6  -3    9.50    2.10
 -14   6   3   12.10    1.70
  13  -6  -3   21.70    2.50
 -13   6   3   24.20    2.20
  12  -6  -3   10.00    1.60
 -12   6   3   10.50    1.50
  11  -6  -3   12.50    1.70
 -11   6   3   11.30    1.40
  10  -6  -3   37.80    2.50
 -10   6   3   33.00    2.30
   9  -6  -3   39.60    2.60
  -9   6   3   44.70    2.50
   8  -6  -3  124.19    5.90
  -8   6   3  129.69    5.70
   7  -6  -3   35.90    2.30
  -7   6   3   39.40    2.10
  -7   6   3   34.30    1.70
   6  -6  -3    8.60    1.10
  -6   6   3   10.10    1.10
  -6   6   3    7.10    0.70
  -6   6   3    6.40    0.60
   5  -6  -3    3.50    0.70
  -5   6   3    1.90    0.40
  -5   6   3    2.20    0.60
  -5   6   3    1.40    0.40
   4  -6  -3   76.89    3.60
  -4   6   3   77.49    3.40
  -4   6   3   80.29    3.40
  -4   6   3   78.59    3.50
  -4   6   3   70.79    3.50
  -4   6   3   80.99    3.50
   3  -6  -3  106.49    4.70
  -3   6   3  102.09    4.60
  -3   6   3  107.59    4.60
  -3   6   3  107.79    4.60
  -3   6   3  108.89    4.60
  -3   6   3  105.89    4.50
   2  -6  -3   30.90    1.60
   2  -6  -3   29.00    1.60
  -2   6   3   29.10    1.50
  -2   6   3   29.30    1.60
  -2   6   3   30.10    1.60
  -2   6   3   30.30    1.60
   1  -6  -3    6.70    0.60
   1  -6  -3    6.20    0.60
  -1   6   3    6.40    0.60
  -1   6   3    5.70    0.60
  -1   6   3    5.90    0.60
  -1   6   3    6.00    0.60
   0  -6  -3    3.00    0.50
   0  -6  -3    1.70    0.40
   0   6   3    2.50    0.50
   0   6   3    1.90    0.40
   0   6   3    2.30    0.50
   0   6   3    1.90    0.40
  -1  -6  -3    5.00    0.60
   1   6   3    3.90    0.60
   1   6   3    5.60    0.60
   1   6   3    4.30    0.50
   1   6   3    4.00    0.60
  -2  -6  -3   12.70    0.90
   2   6   3   11.20    0.90
   2   6   3   12.10    0.70
   2   6   3   12.70    1.00
   2   6   3   12.00    0.80
   2   6   3   12.40    0.60
  -3  -6  -3   16.50    1.00
   3   6   3   14.00    0.60
   3   6   3   10.90    0.90
   3   6   3   12.30    0.90
  -4  -6  -3   12.40    0.90
   4   6   3   12.60    0.90
   4   6   3    9.80    1.00
   4   6   3   11.70    1.00
  -5  -6  -3    9.20    0.90
   5   6   3   10.60    1.00
   5   6   3    9.50    0.90
   5   6   3   10.30    1.00
  -6  -6  -3   20.70    1.30
   6   6   3   16.80    1.30
   6   6   3   18.50    1.40
  -7  -6  -3   79.09    3.40
   7   6   3   86.09    3.40
   7   6   3   84.39    3.90
  -8  -6  -3   50.39    2.30
  -8  -6  -3   60.29    2.90
   8   6   3   59.09    2.90
   8   6   3   54.79    2.40
  -9  -6  -3   68.09    3.10
  -9  -6  -3   77.09    3.70
   9   6   3   78.99    3.30
   9   6   3   75.49    4.00
 -10  -6  -3   93.99    4.40
 -10  -6  -3  112.29    5.00
  10   6   3  113.69    5.00
  10   6   3  110.19    4.60
 -11  -6  -3   74.59    3.80
  11   6   3   77.09    3.80
  11   6   3   75.29    3.50
 -12  -6  -3    5.90    0.90
 -12  -6  -3    5.60    1.20
  12   6   3    6.60    1.00
  12   6   3    5.00    1.10
 -13  -6  -3    0.80    1.10
  13   6   3    1.20    0.90
  13   6   3    2.50    1.10
 -14  -6  -3    3.20    1.30
  14   6   3    4.40    1.30
  14   6   3    4.30    1.20
 -15  -6  -3    3.10    1.40
  15   6   3    4.20    1.30
  15   6   3    5.20    1.40
  14  -7  -3   -1.60    1.40
 -14   7   3    0.70    1.30
  13  -7  -3   -1.00    1.10
 -13   7   3   -1.50    1.00
  12  -7  -3   25.70    2.30
 -12   7   3   26.60    2.20
  11  -7  -3   21.20    2.10
 -11   7   3   25.00    2.20
  10  -7  -3   11.70    1.70
 -10   7   3    8.20    1.30
   9  -7  -3   20.80    2.00
  -9   7   3   21.90    1.70
   8  -7  -3   41.60    2.60
  -8   7   3   41.20    2.40
  -8   7   3   39.20    1.80
  -8   7   3   36.70    1.80
   7  -7  -3  102.39    4.90
  -7   7   3   99.39    4.30
  -7   7   3  104.19    4.30
  -7   7   3  104.79    4.80
   6  -7  -3   78.19    4.00
  -6   7   3   81.19    3.50
  -6   7   3   79.39    3.50
  -6   7   3   85.09    3.90
   5  -7  -3   16.00    2.30
  -5   7   3   14.60    1.00
  -5   7   3   14.00    1.00
  -5   7   3   15.80    1.30
   4  -7  -3   13.70    1.30
  -4   7   3   17.60    1.10
  -4   7   3   17.10    1.10
  -4   7   3   19.20    1.30
  -4   7   3   15.70    1.30
   3  -7  -3   13.70    1.10
  -3   7   3   15.10    1.10
  -3   7   3   15.10    1.10
  -3   7   3   14.30    1.10
  -3   7   3   14.40    1.10
   2  -7  -3   49.80    2.50
   2  -7  -3   52.49    2.50
  -2   7   3   53.89    2.50
  -2   7   3   49.70    2.50
  -2   7   3   51.49    2.50
  -2   7   3   55.19    2.50
   1  -7  -3  142.09    6.10
   1  -7  -3  148.89    6.10
  -1   7   3  146.99    6.10
  -1   7   3  149.69    6.20
  -1   7   3  138.79    6.00
   0  -7  -3   88.29    3.90
   0  -7  -3   93.89    4.00
   0   7   3   92.19    4.10
   0   7   3   94.19    4.10
   0   7   3   88.09    3.90
   0   7   3   87.99    3.80
  -1  -7  -3  275.67   11.00
  -1  -7  -3  279.87   11.20
   1   7   3  278.07   11.40
   1   7   3  268.47   11.00
   1   7   3  272.07   11.20
   1   7   3  284.17   11.40
  -2  -7  -3   72.89    3.20
   2   7   3   70.89    3.40
   2   7   3   71.49    2.90
   2   7   3   69.69    3.30
   2   7   3   70.69    2.90
   2   7   3   71.09    3.20
  -3  -7  -3   11.80    0.90
   3   7   3   10.60    1.00
   3   7   3   11.50    0.90
   3   7   3    9.80    1.00
  -4  -7  -3   66.39    3.00
   4   7   3   60.69    2.90
   4   7   3   64.89    3.10
  -5  -7  -3  141.99    6.10
   5   7   3  141.69    6.20
  -6  -7  -3   89.89    4.40
   6   7   3   87.59    5.00
  -7  -7  -3    9.10    1.10
   7   7   3   10.00    1.30
  -8  -7  -3   14.10    1.30
   8   7   3   12.00    1.40
  -9  -7  -3   10.40    1.30
   9   7   3   11.70    1.40
 -10  -7  -3   14.80    1.60
 -10  -7  -3   11.30    0.90
  10   7   3   16.10    1.60
 -11  -7  -3    1.10    0.60
 -11  -7  -3    1.80    1.00
  11   7   3    0.70    1.00
 -12  -7  -3    1.70    0.70
  12   7   3    3.20    1.10
 -13  -7  -3    0.80    1.10
  13   7   3    0.50    1.10
 -14  -7  -3    6.20    1.60
  14   7   3    5.50    1.40
 -15  -7  -3    3.70    1.50
  15   7   3    2.00    1.50
 -14   8   3    3.50    2.70
  13  -8  -3    6.20    1.80
 -13   8   3   12.50    1.80
  12  -8  -3    3.00    1.50
 -12   8   3    4.70    1.30
  11  -8  -3    3.00    1.30
 -11   8   3    3.50    1.10
  10  -8  -3    1.70    1.20
 -10   8   3    2.60    1.20
   9  -8  -3    8.40    1.30
  -9   8   3    7.80    1.30
  -9   8   3    6.20    0.70
  -9   8   3    6.80    0.70
   8  -8  -3   31.00    2.30
  -8   8   3   28.00    1.60
  -8   8   3   35.80    2.20
  -8   8   3   31.30    1.60
   7  -8  -3   23.50    1.90
  -7   8   3   23.40    1.80
  -7   8   3   23.70    1.40
  -7   8   3   20.20    1.40
   6  -8  -3   -0.60    0.70
  -6   8   3    1.60    0.50
  -6   8   3    0.70    0.70
  -6   8   3   -0.10    0.50
   5  -8  -3   16.70    1.50
  -5   8   3   18.40    1.40
  -5   8   3   17.20    1.20
  -5   8   3   15.50    1.40
   4  -8  -3   41.40    2.30
  -4   8   3   38.70    2.20
  -4   8   3   43.10    2.10
  -4   8   3   40.50    2.20
   3  -8  -3   26.20    1.60
  -3   8   3   24.10    1.60
  -3   8   3   23.40    1.50
  -3   8   3   23.50    1.50
   2  -8  -3    6.80    0.80
   2  -8  -3    5.70    0.80
  -2   8   3    4.80    0.80
  -2   8   3    4.50    0.80
   1  -8  -3   91.89    4.00
   1  -8  -3   92.09    4.10
  -1   8   3   87.39    3.90
  -1   8   3   92.09    4.20
  -1   8   3   92.49    4.20
   0  -8  -3    1.10    0.40
   0  -8  -3    1.70    0.60
   0   8   3    3.00    0.50
   0   8   3    2.30    0.70
   0   8   3    2.90    0.70
  -1  -8  -3   22.50    1.40
  -1  -8  -3   21.30    1.20
   1   8   3   23.40    1.50
   1   8   3   23.00    1.20
  -2  -8  -3  217.08    9.00
   2   8   3  218.28    9.20
   2   8   3  216.08    8.70
  -3  -8  -3   93.49    4.20
   4   8   3   19.90    1.50
  -5  -8  -3   47.70    2.50
   5   8   3   48.60    2.70
  -6  -8  -3   73.69    3.50
   6   8   3   72.79    3.70
  -7  -8  -3   24.40    1.80
   7   8   3   25.60    1.90
  -8  -8  -3   67.19    3.40
   8   8   3   66.99    3.50
  -9  -8  -3    4.40    1.00
   9   8   3    4.50    1.10
 -10  -8  -3    2.80    1.10
  10   8   3    2.10    1.10
 -11  -8  -3    4.70    1.30
  11   8   3    4.00    1.20
 -12  -8  -3    0.10    1.10
  12   8   3    2.10    1.20
 -13  -8  -3    1.70    1.20
  13   8   3    1.20    1.30
 -14  -8  -3    1.30    1.40
  14   8   3    3.50    1.50
  13  -9  -3   -0.50    1.30
 -13   9   3   -0.50    1.30
  12  -9  -3    0.10    1.20
 -12   9   3    0.10    1.10
  11  -9  -3    4.90    1.50
 -11   9   3    8.30    1.50
  10  -9  -3   15.10    2.00
 -10   9   3   14.30    1.70
   9  -9  -3   37.10    2.70
  -9   9   3   35.20    1.90
  -9   9   3   38.10    1.80
  -9   9   3   41.80    2.60
   8  -9  -3   26.20    2.20
  -8   9   3   23.20    2.00
  -8   9   3   23.60    1.50
  -8   9   3   26.80    1.50
   7  -9  -3  117.89    5.40
  -7   9   3  104.69    4.90
  -7   9   3  111.79    5.20
  -7   9   3  113.29    4.90
   6  -9  -3  158.38    6.80
  -6   9   3  146.19    6.60
  -6   9   3  138.79    6.40
  -6   9   3  154.08    6.40
   5  -9  -3   13.70    1.40
  -5   9   3   15.00    1.50
  -5   9   3   11.60    1.20
  -5   9   3    9.50    1.00
   4  -9  -3   19.50    1.60
  -4   9   3   18.70    1.50
  -4   9   3   17.50    1.30
   3  -9  -3   13.30    1.30
   3  -9  -3   12.50    1.30
  -3   9   3   12.70    1.20
   2  -9  -3   22.10    1.50
   2  -9  -3   23.60    1.50
  -2   9   3   17.60    1.50
  -2   9   3   19.50    1.40
   1  -9  -3   56.09    2.80
   1  -9  -3   59.09    2.80
  -1   9   3   54.29    2.60
   0  -9  -3  269.57   11.20
   0  -9  -3  270.77   11.00
   0   9   3  269.67   10.90
   0   9   3  275.47   11.30
  -1  -9  -3    5.40    0.90
  -1  -9  -3    6.30    0.60
   1   9   3    6.60    0.60
   1   9   3    5.00    0.90
  -2  -9  -3    9.70    1.10
   2   9   3   10.90    0.90
   2   9   3   11.00    1.30
  -3  -9  -3   21.40    1.50
   3   9   3   18.20    1.50
  -4  -9  -3   50.59    2.60
   4   9   3   50.99    2.80
  -5  -9  -3    2.30    0.80
   5   9   3    1.70    0.80
  -6  -9  -3    5.80    0.90
   6   9   3    6.70    1.10
  -7  -9  -3   33.30    2.10
   7   9   3   31.10    2.20
  -8  -9  -3   -0.20    0.70
   8   9   3    0.80    0.90
  -9  -9  -3   -0.20    0.90
   9   9   3    0.50    0.90
 -10  -9  -3    6.90    1.30
  10   9   3    7.90    1.40
 -11  -9  -3    6.00    1.30
  11   9   3    7.50    1.40
 -12  -9  -3    7.30    1.50
  12   9   3    5.10    1.40
 -13  -9  -3    2.20    1.40
  13   9   3    3.70    1.60
 -14  -9  -3   -0.10    1.40
  14   9   3    1.90    1.40
  12 -10  -3    0.20    1.40
 -12  10   3    1.30    1.30
  11 -10  -3    2.20    1.50
 -11  10   3    0.50    1.10
  10 -10  -3   -0.70    1.10
 -10  10   3    0.70    0.50
 -10  10   3    0.90    1.00
   9 -10  -3   11.00    1.80
  -9  10   3   10.80    1.60
  -9  10   3   12.30    1.10
   8 -10  -3    0.30    1.00
  -8  10   3    2.40    1.20
  -8  10   3    0.50    0.80
  -8  10   3    1.10    0.70
   7 -10  -3    2.70    1.00
  -7  10   3    3.10    1.00
  -7  10   3    3.40    0.80
   6 -10  -3    1.20    0.90
  -6  10   3    0.90    0.90
  -6  10   3    1.50    0.80
   5 -10  -3   -1.20    0.70
  -5  10   3    0.40    0.60
  -5  10   3    0.70    0.80
   4 -10  -3    2.10    0.80
  -4  10   3    2.00    0.90
  -4  10   3    1.50    0.60
   3 -10  -3   45.30    2.60
  -3  10   3   48.80    2.60
   2 -10  -3   43.10    2.40
   2 -10  -3   40.00    2.40
  -2  10   3   41.40    2.30
  -2  10   3   45.70    2.50
   1 -10  -3  304.17   12.60
   1 -10  -3  304.97   12.40
  -1  10   3  314.57   12.70
  -1  10   3  293.97   12.30
   0 -10  -3   23.60    1.40
   0 -10  -3   27.50    1.70
   0  10   3   23.20    1.40
   0  10   3   24.70    1.80
  -1 -10  -3   48.80    2.70
  -1 -10  -3   50.99    2.40
   1  10   3   52.39    2.30
   1  10   3   53.59    2.90
  -2 -10  -3   23.00    1.60
   2  10   3   24.20    1.20
   2  10   3   23.70    1.80
  -3 -10  -3   45.00    2.50
   3  10   3   43.80    2.60
  -4 -10  -3    3.60    0.90
   4  10   3    0.60    0.70
  -5 -10  -3   13.10    1.50
   5  10   3   12.30    1.60
  -6 -10  -3   21.10    1.70
   6  10   3   22.20    1.90
  -7 -10  -3   25.10    1.90
   7  10   3   21.20    2.00
  -8 -10  -3   54.09    3.10
   8  10   3   54.79    3.20
  -9 -10  -3    3.50    1.10
   9  10   3    2.60    1.10
 -10 -10  -3   13.20    1.70
  10  10   3   13.60    1.80
 -11 -10  -3    4.80    1.40
 -12 -10  -3    1.80    1.30
  12  10   3    1.10    1.30
 -13 -10  -3   -0.40    1.30
  13  10   3    0.10    1.30
  11 -11  -3    8.00    1.90
 -11  11   3    4.80    1.50
  10 -11  -3    0.50    1.20
 -10  11   3    1.00    0.70
 -10  11   3   -0.70    1.20
   9 -11  -3   13.20    1.90
  -9  11   3   10.10    1.10
  -9  11   3    8.50    1.60
   8 -11  -3    2.30    1.70
  -8  11   3    3.30    0.90
  -8  11   3    3.00    1.20
   7 -11  -3   21.30    2.20
  -7  11   3   22.90    1.80
  -7  11   3   23.00    3.20
   6 -11  -3    6.20    1.20
  -6  11   3    6.90    1.30
  -6  11   3    7.00    1.10
   5 -11  -3    0.30    0.90
  -5  11   3    0.40    0.90
  -5  11   3    0.30    0.70
   4 -11  -3    3.20    1.00
  -4  11   3    2.00    0.70
  -4  11   3    3.20    1.00
   3 -11  -3    6.50    1.10
   3 -11  -3    5.20    1.10
  -3  11   3    6.40    1.00
   2 -11  -3    3.70    0.90
   2 -11  -3    4.20    1.10
  -2  11   3    4.90    1.00
   1 -11  -3   28.30    2.00
   1 -11  -3   29.40    1.80
  -1  11   3   27.30    1.70
  -1  11   3   30.40    2.10
   0 -11  -3   35.40    2.10
   0 -11  -3   31.20    1.80
   0  11   3   31.90    2.20
   0  11   3   29.70    1.70
  -1 -11  -3    5.00    1.00
   1  11   3    5.80    0.60
   1  11   3    4.50    1.00
  -2 -11  -3    1.40    0.80
   2  11   3    1.30    0.40
   2  11   3    1.30    0.70
   2  11   3    0.80    0.70
  -3 -11  -3    1.60    0.80
   3  11   3   -0.10    0.70
  -4 -11  -3   40.90    2.50
   4  11   3   42.60    2.70
  -5 -11  -3    3.50    1.00
   5  11   3    3.30    0.90
  -6 -11  -3   11.30    1.50
   6  11   3    5.30    1.30
  -7 -11  -3   24.80    2.00
   7  11   3   28.10    2.20
   8  11   3   11.10    1.70
  -9 -11  -3    4.90    1.30
   9  11   3    5.00    1.60
 -10 -11  -3    2.20    1.20
  10  11   3   -0.50    1.10
 -11 -11  -3   17.10    2.10
  11  11   3   25.90    2.50
 -12 -11  -3   10.20    1.80
  12  11   3    9.10    1.90
  10 -12  -3    4.00    1.70
 -10  12   3    1.90    1.40
   9 -12  -3   14.10    1.90
  -9  12   3   14.10    1.60
  -9  12   3   15.10    2.00
   8 -12  -3    7.90    1.60
  -8  12   3    8.00    1.50
  -8  12   3    7.70    1.20
  -7  12   3    4.60    1.10
  -7  12   3    2.50    1.20
   6 -12  -3   15.20    1.80
  -6  12   3   15.20    1.60
  -6  12   3   13.20    1.80
   5 -12  -3   19.10    1.90
  -5  12   3   19.00    1.70
   4 -12  -3    4.00    1.10
  -4  12   3    2.80    1.10
  -4  12   3    4.00    1.10
   3 -12  -3   -0.20    0.80
   3 -12  -3    0.20    0.90
  -3  12   3   -0.20    0.80
   2 -12  -3   13.10    1.40
   2 -12  -3   16.80    1.90
  -2  12   3   13.10    1.60
   1 -12  -3   74.69    3.60
   1 -12  -3   71.99    3.80
  -1  12   3   77.79    4.00
   0 -12  -3   26.60    2.10
   0 -12  -3   31.40    1.80
   0  12   3   32.90    2.30
  -1 -12  -3   41.50    2.50
   1  12   3   43.10    2.70
   1  12   3   35.00    1.90
  -2 -12  -3   19.50    1.70
   2  12   3   20.00    1.90
  -3 -12  -3   38.70    2.50
   3  12   3   42.90    2.70
  -4 -12  -3   26.70    2.00
   4  12   3   22.40    2.00
  -5 -12  -3    0.20    0.90
   5  12   3   -0.10    0.90
  -7 -12  -3    5.30    1.20
   7  12   3    2.60    1.30
  -8 -12  -3    1.90    1.20
   8  12   3   -0.50    1.10
  -9 -12  -3    0.50    1.30
   9  12   3    1.10    1.30
 -10 -12  -3    1.00    1.40
  10  12   3    0.70    1.40
 -11 -12  -3   13.80    2.10
  11  12   3   16.20    2.30
   9 -13  -3    2.10    1.50
  -9  13   3    1.90    1.10
  -9  13   3    1.20    1.50
   8 -13  -3    6.60    1.70
  -8  13   3    2.80    1.50
  -8  13   3    4.20    1.20
   7 -13  -3    7.10    1.60
  -7  13   3    4.10    1.40
  -7  13   3    4.90    1.30
   6 -13  -3    6.30    1.40
  -6  13   3    5.40    1.50
  -6  13   3    6.20    1.20
   5 -13  -3    2.90    1.10
  -5  13   3    1.20    1.00
  -5  13   3    1.00    1.20
   4 -13  -3    0.30    1.00
  -4  13   3    1.00    0.90
  -4  13   3   -0.10    1.00
   3 -13  -3    4.70    1.20
   3 -13  -3    5.40    1.10
  -3  13   3    3.10    1.00
   2 -13  -3   -1.10    1.10
   2 -13  -3    0.40    0.80
  -2  13   3    1.10    1.00
   1 -13  -3   21.00    1.70
  -1  13   3   22.10    2.00
   0 -13  -3   10.40    1.10
   0 -13  -3   16.90    2.20
   0  13   3   18.10    1.80
   0  13   3   11.90    1.20
  -1 -13  -3   10.40    1.80
   1  13   3    5.20    0.70
   1  13   3    7.60    1.20
   3  13   3   25.00    2.20
  -4 -13  -3   14.10    1.80
   4  13   3   15.60    2.00
  -5 -13  -3   11.10    1.70
   5  13   3   13.90    1.90
  -6 -13  -3    3.30    1.20
   6  13   3    3.60    1.30
  -7 -13  -3   11.30    1.70
   7  13   3   12.60    1.90
  -8 -13  -3   14.40    1.90
   8  13   3   16.50    2.20
  -9 -13  -3   40.80    3.10
   9  13   3   39.20    3.10
 -10 -13  -3    4.40    1.50
  10  13   3    2.10    1.60
   7 -14  -3    3.20    1.50
  -7  14   3    4.10    1.60
  -7  14   3    3.70    1.50
   6 -14  -3   10.10    1.80
  -6  14   3    8.80    1.90
   5 -14  -3   24.90    2.40
  -5  14   3   21.90    2.80
  -5  14   3   24.20    2.50
   4 -14  -3   19.50    2.20
  -4  14   3   22.90    2.30
  -4  14   3   23.30    2.20
   3 -14  -3   18.20    2.10
   3 -14  -3   14.60    1.70
  -3  14   3   18.40    2.00
   2 -14  -3   27.90    2.30
   2 -14  -3   27.20    2.10
  -2  14   3   25.30    2.30
   1 -14  -3   26.50    2.30
   1 -14  -3   26.20    2.90
  -1  14   3   27.00    2.40
   0 -14  -3    1.00    1.10
   0  14   3    1.20    1.10
  -1 -14  -3   28.70    2.40
   1  14   3   32.40    1.80
   1  14   3   29.70    2.50
  -2 -14  -3    3.10    1.30
   2  14   3    6.30    1.40
  -3 -14  -3    1.50    1.10
   3  14   3    3.10    1.20
  -4 -14  -3    0.00    1.10
   4  14   3    1.30    1.20
  -5 -14  -3   -0.80    1.10
   5  14   3    0.80    1.20
  -6 -14  -3   -0.90    1.10
   6  14   3    1.30    1.30
  -7 -14  -3    5.10    1.60
   7  14   3    6.70    1.70
  -8 -14  -3   -2.20    1.30
   8  14   3    1.00    1.50
   5 -15  -3    1.30    1.30
  -5  15   3    0.00    1.30
  -5  15   3   -1.40    1.40
   4 -15  -3    1.60    1.20
  -4  15   3    3.70    1.50
  -4  15   3    2.40    1.50
   3 -15  -3    0.50    1.20
  -3  15   3    1.80    1.20
   2 -15  -3    0.20    1.30
   2 -15  -3    0.80    1.10
  -2  15   3    0.10    1.10
   1 -15  -3    1.60    1.20
   1 -15  -3    0.70    1.00
  -1  15   3    0.60    1.20
   0 -15  -3   10.90    1.70
   0  15   3   16.30    2.10
  -1 -15  -3    5.40    1.50
   1  15   3    4.30    1.40
  -2 -15  -3    1.30    1.20
   2  15   3    0.70    1.20
  -3 -15  -3   31.70    2.60
   3  15   3   37.50    3.00
  -4 -15  -3   24.60    2.40
   4  15   3   21.10    2.30
  -5 -15  -3   16.40    2.10
   5  15   3   19.30    2.40
  -6 -15  -3    5.40    1.50
   6  15   3    6.00    1.70
   1 -16  -3    4.20    1.60
  -1  16   3    2.00    1.60
   0 -16  -3    2.90    1.50
   0  16   3    1.10    1.50
  -1 -16  -3    6.70    1.60
   1  16   3    9.50    1.80
  -2 -16  -3   11.10    1.80
   2  16   3    9.00    2.00
   3  13  -4    4.10    2.40
  -3 -13   4    4.70    1.50
   2  13  -4    0.60    1.40
  -2 -13   4    0.20    1.40
   1  13  -4   17.20    2.10
  -1 -13   4   13.80    2.00
   0  13  -4   11.10    2.10
   0 -13   4    9.90    1.60
   0 -13   4   11.20    1.90
  -1  13  -4    5.30    1.70
   1 -13   4    2.20    1.50
   1 -13   4    2.70    1.40
  -2  13  -4    3.90    1.50
   2 -13   4    1.40    1.30
   2 -13   4    0.40    1.50
  -3  13  -4    2.60    1.50
   3 -13   4    1.80    1.50
   3 -13   4    3.90    1.70
  -4  13  -4    1.50    1.60
  -4  13  -4   -0.80    1.30
   4 -13   4   -1.10    1.70
   6  12  -4   -1.50    1.50
  -6 -12   4   -0.70    1.40
   5  12  -4   -1.30    1.30
  -5 -12   4   -0.60    1.20
   4  12  -4   -1.30    1.30
  -4 -12   4   -0.20    1.20
   3  12  -4    1.20    1.30
  -3 -12   4    1.80    1.20
   2  12  -4    8.10    1.60
  -2 -12   4    8.80    1.50
  -2 -12   4    7.40    1.20
   1  12  -4   -0.10    1.10
  -1 -12   4    3.30    1.20
   0  12  -4    1.20    1.30
   0 -12   4    3.90    1.20
   0 -12   4    2.70    1.20
  -1  12  -4    5.20    1.50
   1 -12   4    2.10    1.10
   1 -12   4    3.70    1.30
   2 -12   4    1.00    1.20
   2 -12   4   -0.60    1.10
  -3  12  -4    3.60    1.40
   3 -12   4    2.50    1.30
   3 -12   4    3.60    1.30
  -4  12  -4    2.30    1.40
   4 -12   4    2.70    1.50
  -5  12  -4   -1.10    1.10
  -5  12  -4    1.30    1.60
   5 -12   4    2.10    1.60
  -6  12  -4    3.10    1.30
  -6  12  -4    7.70    1.90
   6 -12   4    3.20    1.70
  -7  12  -4    2.10    1.90
  -7  12  -4    0.60    1.40
   7 -12   4    0.00    1.70
   8  11  -4    0.20    1.40
  -8 -11   4   -0.70    1.30
   7  11  -4    2.50    1.40
  -7 -11   4    1.00    1.50
   6  11  -4    5.50    1.40
  -6 -11   4    2.80    1.30
   5  11  -4    0.00    1.20
  -5 -11   4    2.20    1.30
   4  11  -4   13.20    1.90
  -4 -11   4    8.70    1.50
  -4 -11   4   10.50    1.10
   3  11  -4    0.40    1.10
  -3 -11   4    1.90    1.10
  -3 -11   4    0.70    0.80
   2  11  -4    2.60    1.20
  -2 -11   4    2.70    0.90
  -2 -11   4    4.50    1.20
   1  11  -4    3.00    1.10
  -1 -11   4    3.60    1.00
  -1 -11   4    3.40    1.20
   0  11  -4    2.90    1.10
   0 -11   4    3.50    1.20
   0 -11   4    4.00    1.10
  -1  11  -4   32.50    2.40
   1 -11   4   29.50    2.40
   1 -11   4   26.70    2.20
  -2  11  -4   -0.20    1.00
   2 -11   4    0.30    1.10
   2 -11   4   -0.10    1.10
  -3  11  -4    4.70    1.30
   3 -11   4    4.80    1.20
   3 -11   4    4.50    1.30
  -4  11  -4    0.30    1.10
   4 -11   4   -0.80    1.20
   4 -11   4    0.00    1.00
  -5  11  -4   -0.80    1.00
  -5  11  -4    0.40    1.30
   5 -11   4    1.60    1.20
  -6  11  -4    3.50    1.50
  -6  11  -4    1.80    1.10
   6 -11   4    1.40    1.40
  -7  11  -4    1.00    1.20
  -7  11  -4    1.70    1.70
   7 -11   4    3.10    1.50
  -8  11  -4    1.00    1.30
  -8  11  -4    0.70    1.50
   8 -11   4    1.30    1.70
  -9  11  -4    1.60    1.40
  -9  11  -4    0.90    1.80
   9 -11   4    2.10    1.70
   9  10  -4    1.00    1.40
  -9 -10   4    1.30    1.30
   8  10  -4    5.60    1.50
  -8 -10   4    6.20    1.50
   7  10  -4    0.60    1.10
  -7 -10   4   -1.70    1.10
   6  10  -4    3.70    1.30
  -6 -10   4    2.30    1.20
   5  10  -4    2.10    1.30
  -5 -10   4    2.20    1.10
   4  10  -4    0.70    1.00
  -4 -10   4    1.60    0.60
  -4 -10   4    0.80    0.90
   3  10  -4    5.90    1.30
   3  10  -4    6.00    1.20
  -3 -10   4    6.80    0.90
   2  10  -4    5.10    0.90
  -2 -10   4    3.10    1.10
  -2 -10   4    5.60    0.90
   1  10  -4    6.70    1.50
  -1 -10   4    5.30    1.00
  -1 -10   4    3.70    1.20
   0  10  -4   25.90    2.20
   0 -10   4   24.80    2.10
   0 -10   4   28.10    2.60
  -1  10  -4   44.40    2.90
   1 -10   4   47.40    2.80
   1 -10   4   45.40    2.80
  -2  10  -4    5.10    1.20
   2 -10   4    3.00    1.10
   2 -10   4    4.30    1.20
  -3  10  -4   -0.10    0.90
   3 -10   4    1.70    1.10
   3 -10   4    1.30    1.10
  -4  10  -4   11.30    1.60
   4 -10   4   11.40    1.90
   4 -10   4   10.60    1.60
  -5  10  -4    4.20    1.40
  -5  10  -4    1.20    1.10
   5 -10   4    4.60    1.40
  -6  10  -4   10.00    1.40
  -6  10  -4    6.80    1.50
   6 -10   4    9.50    1.60
  -7  10  -4   23.30    2.50
  -7  10  -4   20.20    2.10
   7 -10   4   23.40    2.60
  -8  10  -4    8.70    1.50
  -8  10  -4   11.80    1.90
   8 -10   4    9.90    1.90
  -9  10  -4   38.80    3.20
  -9  10  -4   42.50    2.80
   9 -10   4   41.00    3.50
 -10  10  -4    9.90    1.90
 -10  10  -4   10.90    1.60
  10 -10   4    7.70    1.90
  11   9  -4    2.00    1.40
 -11  -9   4   -1.40    1.30
  10   9  -4    1.40    1.40
 -10  -9   4    2.80    1.40
   9   9  -4   19.70    2.20
  -9  -9   4   29.50    2.40
   8   9  -4   12.00    1.70
  -8  -9   4   19.80    2.00
   7   9  -4   10.90    1.90
  -7  -9   4    8.90    1.50
   6   9  -4   43.40    3.10
  -6  -9   4   41.00    2.30
  -6  -9   4   48.00    3.90
   5   9  -4   23.30    2.10
  -5  -9   4   22.00    1.30
  -5  -9   4   23.40    1.60
  -5  -9   4   27.70    2.10
   4   9  -4   19.90    1.90
  -4  -9   4   25.20    2.00
  -4  -9   4   19.00    1.30
   3   9  -4   22.20    1.90
   3   9  -4   23.00    1.60
  -3  -9   4   25.10    2.00
  -3  -9   4   21.90    1.50
   2   9  -4   25.20    2.00
   2   9  -4   21.30    1.60
  -2  -9   4   29.70    2.00
  -2  -9   4   26.90    1.70
   1   9  -4   29.60    1.90
   1   9  -4   36.10    2.30
  -1  -9   4   34.50    2.00
  -1  -9   4   34.30    2.30
   0   9  -4    8.90    1.30
   0  -9   4    9.80    1.20
   0  -9   4    8.50    1.20
  -1   9  -4   23.30    1.90
   1  -9   4   23.30    1.80
   1  -9   4   24.20    1.90
  -2   9  -4    2.10    0.80
   2  -9   4    2.10    0.90
   2  -9   4    0.30    0.80
  -3   9  -4    1.30    0.90
   3  -9   4    2.30    1.10
   3  -9   4    2.80    1.00
  -4   9  -4    1.80    0.90
   4  -9   4    0.70    0.80
   4  -9   4    2.30    1.10
  -5   9  -4    3.60    1.20
  -5   9  -4    2.40    0.90
   5  -9   4    3.20    1.10
  -6   9  -4   -0.80    1.00
  -6   9  -4    0.20    0.80
   6  -9   4   -0.80    1.10
  -7   9  -4    1.40    1.00
   7  -9   4    2.60    1.30
  -8   9  -4    5.20    1.20
  -8   9  -4    3.40    1.40
   8  -9   4    5.40    1.50
  -9   9  -4    8.50    1.40
  -9   9  -4    9.20    1.80
   9  -9   4    8.20    1.80
 -10   9  -4    3.00    1.40
 -10   9  -4    0.00    1.10
  10  -9   4    1.30    1.50
 -11   9  -4    1.40    1.30
 -11   9  -4   -0.80    1.40
  11  -9   4    2.60    1.80
  12   8  -4    2.00    1.40
 -12  -8   4    0.00    1.40
  11   8  -4    3.10    1.40
 -11  -8   4    1.50    1.30
  10   8  -4    2.00    2.10
 -10  -8   4    0.50    1.20
   9   8  -4    5.00    1.30
  -9  -8   4    4.80    1.30
   8   8  -4    3.30    1.20
  -8  -8   4    3.90    0.80
  -8  -8   4    3.40    1.10
  -8  -8   4    3.00    0.70
   7   8  -4    1.10    0.90
  -7  -8   4    1.00    0.50
  -7  -8   4    1.40    0.80
  -7  -8   4    1.30    1.00
   6   8  -4    0.10    0.80
  -6  -8   4    2.40    1.00
  -6  -8   4    0.80    0.50
  -6  -8   4    1.30    0.70
   5   8  -4    0.10    0.80
  -5  -8   4    0.50    0.70
  -5  -8   4    1.30    0.90
  -5  -8   4    2.00    0.60
   4   8  -4   14.90    1.60
  -4  -8   4   13.90    1.10
  -4  -8   4   16.00    1.60
   3   8  -4    5.10    1.10
   3   8  -4    3.80    0.80
  -3  -8   4    6.30    0.80
  -3  -8   4    4.30    0.90
   2   8  -4    0.80    0.80
  -2  -8   4    2.00    0.80
  -2  -8   4   -0.10    0.70
   1   8  -4   22.80    1.80
   1   8  -4   22.60    1.50
  -1  -8   4   24.70    1.70
  -1  -8   4   23.40    1.60
   0   8  -4   78.79    4.00
   0   8  -4   96.19    4.40
   0  -8   4   94.89    4.10
   0  -8   4   91.49    4.20
  -1   8  -4   74.59    3.80
   1  -8   4   76.99    3.60
   1  -8   4   70.59    3.60
  -2   8  -4   36.30    2.20
   2  -8   4   32.40    2.20
   2  -8   4   32.80    2.10
  -3   8  -4   33.40    2.10
   3  -8   4   30.70    2.10
   3  -8   4   30.80    2.20
  -4   8  -4   10.60    1.30
   4  -8   4   10.20    1.40
   4  -8   4    9.60    1.30
  -5   8  -4   31.60    2.10
  -5   8  -4   33.30    2.30
   5  -8   4   34.60    2.40
  -6   8  -4    5.50    1.30
  -6   8  -4    4.20    1.00
   6  -8   4    5.50    1.30
  -7   8  -4    3.10    1.00
  -7   8  -4    3.70    1.10
   7  -8   4    2.80    1.20
  -8   8  -4   14.20    1.80
  -8   8  -4   15.30    1.60
   8  -8   4   13.40    1.80
  -9   8  -4    7.30    1.20
  -9   8  -4    5.70    1.40
   9  -8   4    6.70    1.50
 -10   8  -4    1.20    1.30
 -10   8  -4    2.10    1.00
  10  -8   4    2.80    1.40
 -11   8  -4   -1.90    1.30
 -11   8  -4   -1.50    1.00
  11  -8   4   -2.50    1.30
 -12   8  -4    1.00    1.10
 -12   8  -4   -0.70    1.40
  12  -8   4    3.50    1.70
  12   7  -4   15.20    1.90
 -12  -7   4   14.90    2.10
  11   7  -4   15.20    1.60
 -11  -7   4   11.80    1.10
 -11  -7   4   12.60    1.80
  10   7  -4   11.60    1.60
 -10  -7   4   10.60    1.60
 -10  -7   4    9.00    0.90
   9   7  -4   24.80    2.00
  -9  -7   4   26.00    1.70
  -9  -7   4   21.70    1.40
  -9  -7   4   29.20    2.10
   8   7  -4   22.60    1.90
  -8  -7   4   20.50    1.30
  -8  -7   4   29.10    2.10
  -8  -7   4   23.70    1.60
   7   7  -4    0.30    0.80
  -7  -7   4    0.90    0.50
  -7  -7   4    0.90    0.90
  -7  -7   4    1.40    0.80
   6   7  -4    4.60    1.00
  -6  -7   4    4.70    1.00
  -6  -7   4    3.10    0.60
  -6  -7   4    3.00    0.70
   5   7  -4   14.70    1.50
  -5  -7   4   14.70    1.40
  -5  -7   4   13.80    1.00
  -5  -7   4   10.20    1.10
   4   7  -4    6.00    1.10
  -4  -7   4    7.00    1.10
  -4  -7   4    7.10    0.80
   3   7  -4    0.10    0.70
   3   7  -4    1.00    0.60
  -3  -7   4    0.70    0.50
  -3  -7   4    0.70    0.60
   2   7  -4   10.80    1.00
   2   7  -4   13.20    1.30
  -2  -7   4   14.20    1.30
  -2  -7   4   14.40    1.10
   1   7  -4    0.90    0.60
   1   7  -4    0.50    0.60
  -1  -7   4    0.20    0.50
  -1  -7   4    0.00    0.50
   0   7  -4   47.30    2.60
   0   7  -4   41.10    2.20
   0  -7   4   49.10    2.40
   0  -7   4   48.10    2.50
  -1   7  -4    6.40    1.00
  -1   7  -4    5.90    0.90
   1  -7   4    7.10    1.00
   1  -7   4    7.80    1.00
  -2   7  -4   -0.20    0.60
   2  -7   4   -0.20    0.60
   2  -7   4    1.10    0.60
  -3   7  -4   10.80    1.20
   3  -7   4   12.60    1.20
   3  -7   4   12.70    1.40
  -4   7  -4    0.90    0.70
   4  -7   4    0.50    0.80
   4  -7   4    0.10    0.60
  -5   7  -4    2.80    0.80
  -5   7  -4    1.70    0.80
   5  -7   4    1.40    0.90
  -6   7  -4   10.10    1.40
  -6   7  -4   11.80    1.20
   6  -7   4   11.10    1.50
  -7   7  -4    1.60    0.70
  -7   7  -4   -0.20    0.80
   7  -7   4   -0.10    1.00
  -8   7  -4    7.30    1.10
  -8   7  -4    8.80    1.50
   8  -7   4    8.30    1.50
  -9   7  -4    3.40    1.30
  -9   7  -4    4.30    1.00
   9  -7   4    3.70    1.40
 -10   7  -4    7.20    2.30
 -10   7  -4    8.70    1.20
  10  -7   4    5.20    1.40
 -11   7  -4    7.80    1.60
 -11   7  -4    9.10    1.20
  11  -7   4    8.60    1.80
 -12   7  -4   -0.90    1.30
 -12   7  -4   -1.60    0.80
  12  -7   4   -1.10    1.20
 -13   7  -4    6.00    1.60
  13  -7   4    6.40    1.80
  13   6  -4    0.90    1.30
 -13  -6   4    1.00    1.60
 -13  -6   4    1.50    1.50
  12   6  -4    0.60    1.00
 -12  -6   4   -0.30    1.00
 -12  -6   4    1.30    1.20
  11   6  -4    3.70    1.10
 -11  -6   4    2.20    0.90
 -11  -6   4    1.30    1.10
  10   6  -4    5.90    1.20
 -10  -6   4    5.70    0.90
 -10  -6   4    7.50    1.30
 -10  -6   4    6.10    1.20
   9   6  -4    4.40    1.10
  -9  -6   4    4.30    0.70
  -9  -6   4    4.60    1.10
   8   6  -4   11.90    1.40
  -8  -6   4   13.40    1.30
  -8  -6   4   10.90    1.00
  -8  -6   4   13.00    1.50
   7   6  -4   25.20    1.80
  -7  -6   4   25.30    1.80
  -7  -6   4   23.60    1.40
  -7  -6   4   24.40    1.60
   6   6  -4   -0.30    0.60
  -6  -6   4   -0.50    0.60
  -6  -6   4    0.00    0.40
  -6  -6   4    0.20    0.60
   5   6  -4   60.49    3.10
  -5  -6   4   59.19    2.90
  -5  -6   4   54.49    2.70
  -5  -6   4   57.99    2.60
   4   6  -4   10.50    1.30
  -4  -6   4   12.00    1.20
  -4  -6   4   10.90    0.90
   3   6  -4   84.59    4.00
   3   6  -4   82.59    3.70
  -3  -6   4   83.69    3.90
  -3  -6   4   87.69    3.60
   2   6  -4   65.19    3.10
   2   6  -4   71.19    3.40
  -2  -6   4   69.89    3.30
  -2  -6   4   72.89    3.10
   1   6  -4  106.89    4.80
   1   6  -4  100.39    4.50
  -1  -6   4  109.59    4.50
   0   6  -4   74.09    3.50
   0   6  -4   63.39    3.40
   0  -6   4   78.09    3.30
   0  -6   4   73.09    3.40
  -1   6  -4   34.90    2.00
  -1   6  -4   32.40    1.80
   1  -6   4   35.90    2.00
   1  -6   4   37.00    1.90
  -2   6  -4    5.10    0.80
  -2   6  -4    4.60    0.80
   2  -6   4    3.90    0.90
   2  -6   4    6.50    0.90
  -3   6  -4    6.40    0.90
   3  -6   4    6.00    0.90
   3  -6   4    5.90    0.90
  -4   6  -4   29.60    1.80
   4  -6   4   29.10    1.90
   4  -6   4   27.10    1.70
  -5   6  -4    0.90    0.80
  -5   6  -4    0.80    0.60
   5  -6   4    1.40    0.90
  -6   6  -4    2.20    0.80
  -6   6  -4    1.90    0.70
   6  -6   4    0.60    0.80
  -7   6  -4    3.30    0.80
  -7   6  -4    2.10    0.90
   7  -6   4    3.60    1.10
  -8   6  -4   26.20    2.00
  -8   6  -4   22.40    1.60
   8  -6   4   26.50    2.30
  -9   6  -4    8.10    1.20
  -9   6  -4    9.10    1.20
   9  -6   4    5.70    1.30
 -10   6  -4    0.70    1.10
 -10   6  -4   -0.80    0.70
  10  -6   4    0.40    1.20
 -11   6  -4    2.30    1.30
 -11   6  -4    0.60    1.30
  11  -6   4    1.90    1.20
 -12   6  -4   10.20    1.60
 -12   6  -4    9.50    1.20
  12  -6   4   12.50    1.90
 -13   6  -4    6.20    1.00
 -13   6  -4    7.00    1.60
  13  -6   4    5.30    1.60
 -14   6  -4    1.00    1.50
  14  -6   4   -0.50    1.50
  14   5  -4   -0.50    1.40
 -14  -5   4   -1.20    1.30
 -14  -5   4    2.70    1.50
  13   5  -4   14.90    1.60
 -13  -5   4   11.40    1.50
 -13  -5   4   13.30    1.80
  12   5  -4    2.40    1.00
 -12  -5   4    3.10    1.00
 -12  -5   4    3.00    1.20
  11   5  -4    9.70    1.20
 -11  -5   4    9.60    1.80
 -11  -5   4    9.40    1.40
  10   5  -4    8.90    1.20
 -10  -5   4    8.80    1.10
 -10  -5   4   11.00    1.40
   9   5  -4    4.50    0.90
  -9  -5   4    4.40    1.00
  -9  -5   4    4.60    0.80
  -9  -5   4    5.10    1.00
   8   5  -4   23.60    1.70
  -8  -5   4   23.50    1.70
  -8  -5   4   22.60    1.40
   7   5  -4   54.69    2.80
  -7  -5   4   51.09    2.80
  -7  -5   4   53.19    2.60
  -7  -5   4   51.89    2.50
   6   5  -4    0.00    0.60
  -6  -5   4    1.20    0.50
  -6  -5   4    0.40    0.60
  -6  -5   4   -0.10    0.50
   5   5  -4    6.00    1.00
  -5  -5   4    7.70    0.70
  -5  -5   4    8.40    1.00
  -5  -5   4    7.60    0.80
   4   5  -4   22.00    2.20
  -4  -5   4   20.90    1.60
  -4  -5   4   21.80    1.20
   3   5  -4   -0.20    0.40
   3   5  -4    0.30    0.60
  -3  -5   4    0.10    0.40
  -3  -5   4    0.30    0.50
   2   5  -4   24.90    1.40
   2   5  -4   24.70    1.60
  -2  -5   4   29.00    1.40
  -2  -5   4   26.90    1.50
   1   5  -4    0.20    0.40
   1   5  -4    0.20    0.40
   1   5  -4    0.40    0.50
  -1  -5   4    1.10    0.40
  -1  -5   4    1.00    0.50
   0   5  -4    7.50    0.80
   0   5  -4    8.10    0.90
   0   5  -4    8.80    0.80
   0  -5   4    7.70    0.80
   0  -5   4    7.80    0.80
  -1   5  -4   38.80    2.00
  -1   5  -4   35.70    1.90
   1  -5   4   36.60    1.90
   1  -5   4   37.50    1.90
  -2   5  -4    2.90    0.60
  -2   5  -4    3.60    0.70
  -2   5  -4    3.10    0.60
   2  -5   4    4.50    0.70
   2  -5   4    3.60    0.60
  -3   5  -4   32.40    1.70
  -3   5  -4   25.10    1.60
  -3   5  -4   27.90    1.60
   3  -5   4   32.00    1.80
   3  -5   4   28.90    1.70
  -4   5  -4    3.90    0.70
   4  -5   4    5.80    0.90
  -5   5  -4   28.20    1.90
  -5   5  -4   25.80    1.60
   5  -5   4   28.40    1.90
  -6   5  -4   61.49    2.90
  -6   5  -4   58.49    3.10
   6  -5   4   61.79    3.20
  -7   5  -4   41.40    2.20
  -7   5  -4   40.00    2.40
   7  -5   4   41.00    2.60
  -8   5  -4   11.20    1.30
  -8   5  -4    9.80    1.10
   8  -5   4   12.50    1.60
  -9   5  -4   52.89    2.60
  -9   5  -4   46.10    2.80
   9  -5   4   54.59    3.10
 -10   5  -4   38.80    2.50
 -10   5  -4   38.90    2.10
  10  -5   4   37.50    2.70
 -11   5  -4   17.50    1.90
 -11   5  -4   16.80    1.40
 -12   5  -4    6.40    0.90
 -12   5  -4    6.90    1.40
  12  -5   4    5.20    1.50
 -13   5  -4    3.80    0.80
 -13   5  -4    4.10    1.40
  13  -5   4    4.60    1.60
 -14   5  -4   -1.10    1.20
  14  -5   4   -0.40    1.50
 -15   5  -4    1.80    1.60
 -14  -4   4   -0.60    1.40
 -14  -4   4    1.40    1.30
 -13  -4   4    4.90    1.30
 -13  -4   4    2.90    1.20
  12   4  -4   26.20    1.90
 -12  -4   4   29.90    2.30
 -12  -4   4   30.10    2.10
  11   4  -4    3.70    0.90
 -11  -4   4    4.30    0.90
  10   4  -4   14.20    1.50
 -10  -4   4   16.20    1.60
 -10  -4   4   13.30    1.50
  -9  -4   4    1.00    0.70
  -9  -4   4    1.60    0.90
  -9  -4   4    1.80    0.80
   8   4  -4   16.00    1.30
  -8  -4   4   15.00    1.20
  -8  -4   4   15.50    1.40
  -8  -4   4   15.60    1.40
   7   4  -4   50.59    2.40
  -7  -4   4   44.90    2.50
  -7  -4   4   44.30    2.50
  -7  -4   4   43.20    2.30
   6   4  -4  105.69    4.70
  -6  -4   4  103.99    4.60
  -6  -4   4  103.59    4.70
  -6  -4   4  108.99    4.50
   5   4  -4  160.38    6.70
  -5  -4   4  154.18    6.40
  -5  -4   4  151.18    6.50
  -5  -4   4  159.48    6.90
   4   4  -4   46.40    2.30
  -4  -4   4   45.40    2.20
  -4  -4   4   44.30    2.00
  -4  -4   4   40.60    2.30
   3   4  -4   38.30    2.00
   3   4  -4   41.20    2.10
   3   4  -4   37.80    1.90
  -3  -4   4   39.40    1.80
  -3  -4   4   39.20    2.00
  -3  -4   4   37.80    2.00
   2   4  -4   52.69    2.50
   2   4  -4   46.90    2.40
   2   4  -4   48.70    2.30
  -2  -4   4   52.99    2.40
  -2  -4   4   50.49    2.50
  -2  -4   4   52.19    2.30
   1   4  -4   27.20    1.50
   1   4  -4   22.70    1.30
   1   4  -4   25.50    1.50
  -1  -4   4   25.10    1.50
  -1  -4   4   27.50    1.30
  -1  -4   4   26.00    1.40
   0   4  -4  107.39    4.60
   0   4  -4   99.69    4.40
   0   4  -4  101.99    4.40
   0  -4   4  103.89    4.40
   0  -4   4   99.49    4.50
   0  -4   4  110.19    4.40
  -1   4  -4    8.00    0.70
  -1   4  -4    9.00    0.80
  -1   4  -4    9.60    0.70
   1  -4   4    8.50    0.80
   1  -4   4    8.40    0.80
   1  -4   4    8.60    0.80
  -2   4  -4   17.80    1.10
  -2   4  -4   17.20    1.20
   2  -4   4   18.30    1.20
   2  -4   4   16.80    1.20
   2  -4   4   18.00    1.10
  -3   4  -4   10.30    0.90
  -3   4  -4    9.00    0.80
  -3   4  -4    9.40    0.90
   3  -4   4    9.00    0.80
   3  -4   4    9.50    1.00
   3  -4   4    8.90    0.80
  -4   4  -4   25.90    1.50
  -4   4  -4   21.80    1.40
  -4   4  -4   24.80    1.50
  -4   4  -4   26.40    1.40
   4  -4   4   23.60    1.40
   4  -4   4   26.30    1.60
  -5   4  -4    0.80    0.50
  -5   4  -4    0.70    0.40
  -5   4  -4    1.40    0.60
   5  -4   4    0.40    0.50
   5  -4   4    0.60    0.60
  -6   4  -4    2.60    0.70
  -6   4  -4    2.40    0.60
   6  -4   4    3.00    0.60
   6  -4   4    2.80    0.80
  -7   4  -4    0.80    0.70
  -7   4  -4    1.00    0.50
   7  -4   4    0.10    0.50
   7  -4   4   -0.30    0.70
  -8   4  -4    8.80    0.90
  -8   4  -4    7.60    1.20
   8  -4   4    7.90    1.30
   8  -4   4    7.10    0.90
  -9   4  -4   -0.10    0.70
  -9   4  -4    1.00    0.60
   9  -4   4   -0.10    0.80
   9  -4   4    0.20    0.60
 -10   4  -4   13.40    1.20
 -10   4  -4   19.40    1.70
  10  -4   4   13.90    1.30
  10  -4   4   16.00    1.70
 -11   4  -4    9.60    1.00
 -11   4  -4   14.40    1.60
  11  -4   4   11.20    1.70
  11  -4   4    7.80    1.10
 -12   4  -4    8.70    1.50
 -12   4  -4    7.60    0.90
  12  -4   4    7.10    1.50
 -13   4  -4    5.90    0.80
 -13   4  -4    3.10    1.30
  13  -4   4    5.30    1.70
 -14   4  -4    1.50    1.40
  14  -4   4   -1.90    1.30
 -15   4  -4    1.30    1.50
  15  -4   4    1.40    1.70
 -14  -3   4    4.50    1.30
 -14  -3   4    2.90    1.30
  13   3  -4    3.80    0.90
 -13  -3   4    1.90    1.10
 -13  -3   4    3.10    1.20
  12   3  -4    1.40    0.80
  12   3  -4    0.20    1.40
 -12  -3   4    1.40    0.90
 -12  -3   4    1.40    1.00
  11   3  -4    0.20    0.70
  11   3  -4   -0.50    1.00
 -11  -3   4   -0.20    0.80
 -11  -3   4    0.70    0.80
  10   3  -4    4.20    0.80
  10   3  -4    5.00    1.00
 -10  -3   4    3.30    0.90
 -10  -3   4    4.00    0.90
   9   3  -4    8.70    1.00
  -9  -3   4    8.30    1.10
  -9  -3   4    7.40    1.10
   8   3  -4   21.50    1.40
  -8  -3   4   22.90    1.60
  -8  -3   4   19.70    1.50
  -8  -3   4   22.70    1.50
  -8  -3   4   23.00    1.50
   7   3  -4    1.50    0.50
  -7  -3   4    0.80    0.60
  -7  -3   4    1.20    0.60
  -7  -3   4    1.40    0.60
  -7  -3   4    0.30    0.50
   6   3  -4    9.20    0.90
  -6  -3   4    9.80    1.00
  -6  -3   4   10.70    0.90
  -6  -3   4    9.90    1.00
   5   3  -4   31.20    2.00
   5   3  -4   36.20    1.80
  -5  -3   4   33.70    1.70
  -5  -3   4   33.70    1.80
  -5  -3   4   33.30    1.80
  -5  -3   4   34.50    1.80
   4   3  -4   48.50    2.30
   4   3  -4   48.10    2.30
  -4  -3   4   43.50    2.20
  -4  -3   4   44.60    2.30
  -4  -3   4   46.90    2.20
  -4  -3   4   46.90    2.20
   3   3  -4  115.49    5.10
   3   3  -4  121.99    5.20
   3   3  -4  120.59    5.10
  -3  -3   4  122.09    5.10
  -3  -3   4  126.79    5.00
  -3  -3   4  119.39    5.70
   2   3  -4  180.78    7.50
   2   3  -4  182.78    7.50
   2   3  -4  187.38    7.60
  -2  -3   4  186.98    7.50
  -2  -3   4  184.18    7.50
   1   3  -4   42.60    1.90
   1   3  -4   40.40    1.90
   1   3  -4   42.60    2.00
  -1  -3   4   41.00    1.90
  -1  -3   4   41.40    2.10
  -1  -3   4   40.80    1.90
   0   3  -4   85.29    3.70
   0   3  -4   85.49    3.70
   0   3  -4   82.89    3.80
   0  -3   4   86.59    3.70
   0  -3   4   93.89    3.70
   0  -3   4   83.49    3.80
  -1   3  -4  134.99    5.70
  -1   3  -4  131.49    5.70
  -1   3  -4  139.39    5.80
   1  -3   4  140.69    5.70
   1  -3   4  137.49    5.80
   1  -3   4  141.79    5.70
  -2   3  -4   37.80    1.80
  -2   3  -4   35.20    1.80
  -2   3  -4   40.80    1.90
   2  -3   4   37.80    1.90
   2  -3   4   39.50    1.90
   2  -3   4   37.50    1.80
  -3   3  -4  204.18    8.40
  -3   3  -4  210.48    8.50
   3  -3   4  197.78    8.50
   3  -3   4  207.38    8.40
   3  -3   4  211.78    8.50
  -4   3  -4   61.99    3.00
  -4   3  -4   66.19    3.00
  -4   3  -4   69.09    3.10
  -4   3  -4   67.39    3.00
   4  -3   4   69.89    3.10
   4  -3   4   66.79    3.00
  -5   3  -4  193.68    7.70
  -5   3  -4  192.98    7.60
  -5   3  -4  178.08    7.70
  -5   3  -4  190.88    7.60
   5  -3   4  187.08    7.80
   5  -3   4  164.18    7.70
  -6   3  -4   17.10    1.20
  -6   3  -4   15.50    1.10
  -6   3  -4   16.90    1.20
   6  -3   4   15.40    1.40
  -7   3  -4   15.30    1.00
  -7   3  -4   13.50    1.20
   7  -3   4   12.20    1.30
  -8   3  -4   12.40    1.00
  -8   3  -4   12.20    1.20
   8  -3   4   12.10    1.70
   8  -3   4   11.60    1.40
  -9   3  -4   43.20    2.20
  -9   3  -4   46.00    2.50
   9  -3   4   39.80    2.50
   9  -3   4   47.50    2.70
 -10   3  -4   39.90    2.40
 -10   3  -4   39.40    2.00
  10  -3   4   39.30    2.60
 -11   3  -4    3.30    0.70
 -11   3  -4    3.40    1.00
  11  -3   4    4.10    1.20
  11  -3   4    3.30    1.20
 -12   3  -4    5.40    0.80
 -12   3  -4    5.50    1.20
  12  -3   4    6.90    1.50
  12  -3   4    4.90    0.90
 -13   3  -4   -0.50    0.60
 -13   3  -4    1.10    1.00
  13  -3   4    0.50    1.20
  13  -3   4   -1.30    0.90
 -14   3  -4    1.40    1.20
  14  -3   4   -0.50    1.30
 -15   3  -4    3.10    1.40
  15  -3   4    2.90    1.70
 -15  -2   4    0.90    1.30
 -15  -2   4   -1.20    1.40
 -14  -2   4    0.20    1.10
 -14  -2   4   -1.70    1.30
  13   2  -4    1.50    0.60
 -13  -2   4    0.70    1.00
 -13  -2   4    2.10    1.20
  12   2  -4   20.50    1.30
  12   2  -4   19.80    1.50
 -12  -2   4   23.00    2.10
 -12  -2   4   18.20    1.90
  11   2  -4   21.50    1.60
  11   2  -4   24.60    1.50
 -11  -2   4   24.30    2.00
 -11  -2   4   24.80    1.90
  10   2  -4   40.00    1.90
  10   2  -4   31.70    1.90
 -10  -2   4   39.50    2.30
 -10  -2   4   38.70    2.30
   9   2  -4   98.79    4.20
   9   2  -4   94.09    4.20
  -9  -2   4   99.19    4.50
  -9  -2   4   92.49    4.50
   8   2  -4   16.60    1.10
  -8  -2   4   18.50    1.40
  -8  -2   4   17.90    1.30
  -8  -2   4   17.00    1.40
  -8  -2   4   19.70    1.40
   7   2  -4   96.99    4.10
  -7  -2   4   93.39    4.20
  -7  -2   4   91.09    4.20
  -7  -2   4   89.99    4.10
  -7  -2   4   95.59    4.20
   6   2  -4   42.30    2.00
  -6  -2   4   42.90    2.10
  -6  -2   4   40.20    2.10
  -6  -2   4   40.30    2.10
  -6  -2   4   41.20    2.10
   5   2  -4   86.59    3.90
   5   2  -4   91.39    3.90
  -5  -2   4   86.89    3.90
  -5  -2   4   91.99    3.90
  -5  -2   4   92.49    3.90
  -5  -2   4   86.29    3.90
   4   2  -4  158.48    6.60
   4   2  -4  161.78    6.60
  -4  -2   4  158.08    6.60
  -4  -2   4  157.58    6.60
  -4  -2   4  154.88    6.60
  -4  -2   4  159.78    6.50
   3   2  -4  493.55   19.00
   3   2  -4  461.15   18.90
   3   2  -4  465.05   18.90
  -3  -2   4  468.05   19.00
  -3  -2   4  484.05   18.90
  -3  -2   4  487.05   18.90
   2   2  -4  112.69    4.70
   2   2  -4  111.69    4.80
   2   2  -4  119.59    4.80
  -2  -2   4  117.99    4.70
  -2  -2   4  111.79    4.70
  -2  -2   4  111.99    4.80
   1   2  -4    0.40    0.20
   1   2  -4    0.60    0.30
   1   2  -4    0.60    0.30
  -1  -2   4    1.20    0.30
  -1  -2   4    1.20    0.30
  -1  -2   4    1.00    0.30
   0   2  -4   36.50    1.70
   0   2  -4   36.30    1.80
   0   2  -4   39.00    1.70
   0  -2   4   39.60    1.70
   0  -2   4   34.40    1.80
   0  -2   4   38.30    1.70
  -1   2  -4  106.29    4.30
  -1   2  -4  104.59    4.40
   1  -2   4  102.39    4.30
   1  -2   4  108.19    4.40
   1  -2   4  100.29    4.40
  -2   2  -4   86.49    3.60
  -2   2  -4   82.19    3.60
  -2   2  -4   81.49    3.50
   2  -2   4   84.19    3.50
   2  -2   4   80.99    3.60
   2  -2   4   87.69    3.60
  -3   2  -4   36.90    1.80
  -3   2  -4   36.40    1.80
  -3   2  -4   36.50    1.70
  -3   2  -4   35.70    1.70
   3  -2   4   36.30    1.80
   3  -2   4   39.20    1.80
  -4   2  -4  167.88    6.80
  -4   2  -4  168.18    6.80
  -4   2  -4  163.28    6.80
   4  -2   4  167.88    6.90
   4  -2   4  159.48    6.80
  -5   2  -4   79.49    3.50
  -5   2  -4   79.49    3.50
  -5   2  -4   74.19    3.50
  -5   2  -4   82.29    3.50
   5  -2   4   74.79    3.40
   5  -2   4   86.19    3.70
  -6   2  -4    0.40    0.50
  -6   2  -4    1.50    0.50
  -6   2  -4    0.90    0.40
   6  -2   4    1.40    0.60
   6  -2   4    2.00    0.50
  -7   2  -4   48.20    2.30
  -7   2  -4   43.80    2.10
   7  -2   4   41.80    2.10
   7  -2   4   37.40    3.10
  -8   2  -4   13.70    1.00
  -8   2  -4   14.50    1.30
   8  -2   4   12.40    1.00
   8  -2   4   11.90    1.40
  -9   2  -4   42.70    2.40
  -9   2  -4   46.90    2.20
   9  -2   4   43.00    2.20
   9  -2   4   43.30    2.60
 -10   2  -4   32.10    2.00
 -10   2  -4   30.40    1.70
  10  -2   4   32.30    2.30
  10  -2   4   29.10    1.70
 -11   2  -4   32.80    1.80
 -11   2  -4   36.60    2.30
  11  -2   4   32.00    2.40
  11  -2   4   32.50    1.80
 -12   2  -4    9.90    1.40
 -12   2  -4    8.80    0.90
  12  -2   4    7.90    0.90
  12  -2   4    9.60    1.60
 -13   2  -4   19.60    2.50
 -13   2  -4   19.20    1.20
  13  -2   4   11.90    1.40
 -14   2  -4    2.10    1.20
  14  -2   4   -0.50    1.30
 -15   2  -4   -1.30    1.20
  15  -2   4    2.10    1.60
 -16   2  -4    0.70    1.50
  16  -2   4   -0.20    1.70
 -15  -1   4    9.80    1.90
 -15  -1   4    7.30    1.50
 -14  -1   4    0.30    1.10
 -14  -1   4   -0.90    1.30
 -13  -1   4    3.60    1.10
 -13  -1   4    3.10    1.30
 -12  -1   4   -0.30    0.80
 -12  -1   4   -0.40    0.90
  11   1  -4   13.80    1.00
  11   1  -4   14.00    1.00
 -11  -1   4   17.30    1.70
 -11  -1   4   17.10    1.60
  10   1  -4   16.90    1.10
  10   1  -4   17.90    1.20
 -10  -1   4   16.60    1.50
 -10  -1   4   18.40    1.60
   9   1  -4   26.10    1.40
   9   1  -4   23.80    1.40
  -9  -1   4   27.70    2.10
  -9  -1   4   28.50    1.80
   8   1  -4   61.99    2.70
  -8  -1   4   56.89    2.70
  -8  -1   4   60.49    3.10
  -8  -1   4   61.99    3.00
   7   1  -4   16.80    1.10
  -7  -1   4   18.00    1.10
  -7  -1   4   18.40    1.30
  -7  -1   4   17.00    1.30
  -7  -1   4   17.70    1.40
   6   1  -4   35.30    1.70
   6   1  -4   35.20    1.90
  -6  -1   4   36.80    1.90
  -6  -1   4   33.80    1.90
  -6  -1   4   35.30    1.80
   5   1  -4   92.69    3.90
  -5  -1   4   90.29    4.00
  -5  -1   4   95.69    4.10
  -5  -1   4   94.79    4.00
  -5  -1   4   85.19    3.90
   4   1  -4  114.29    4.60
   4   1  -4  104.69    4.60
  -4  -1   4  107.29    4.60
  -4  -1   4  107.59    4.70
  -4  -1   4  112.09    4.60
  -4  -1   4  107.39    4.60
   3   1  -4  173.78    6.70
   3   1  -4  159.68    6.70
  -3  -1   4  163.78    6.70
  -3  -1   4  166.38    6.80
  -3  -1   4  164.98    6.80
  -3  -1   4  158.48    6.70
   2   1  -4    0.30    0.20
   2   1  -4    0.80    0.30
   2   1  -4    0.10    0.30
  -2  -1   4    0.80    0.30
  -2  -1   4    1.20    0.30
  -2  -1   4    1.10    0.30
   1   1  -4   70.29    3.00
   1   1  -4   69.59    3.10
   1   1  -4   71.99    3.10
  -1  -1   4   72.79    3.00
  -1  -1   4   71.19    3.00
  -1  -1   4   72.69    3.10
   0   1  -4   55.69    2.40
   0   1  -4   55.89    2.50
   0   1  -4   55.29    2.30
   0  -1   4   52.09    2.40
   0  -1   4   59.59    2.40
  -1   1  -4   58.69    2.50
  -1   1  -4   55.39    2.40
   1  -1   4   59.19    2.50
   1  -1   4   56.59    2.50
   1  -1   4   55.29    2.40
  -2   1  -4  563.34   22.70
  -2   1  -4  556.24   22.80
  -2   1  -4  591.74   22.80
   2  -1   4  600.04   22.70
   2  -1   4  575.74   22.80
  -3   1  -4  152.78    6.10
  -3   1  -4  151.78    6.00
  -3   1  -4  136.59    6.00
  -3   1  -4  153.98    6.00
   3  -1   4  145.09    6.00
   3  -1   4  139.69    6.00
  -4   1  -4  218.28    9.00
  -4   1  -4  225.28    9.00
  -4   1  -4  222.88    9.00
  -4   1  -4  225.58    8.90
   4  -1   4  211.98    9.00
   4  -1   4  226.68    9.00
  -5   1  -4 1266.57   54.69
  -5   1  -4 1412.26   54.39
   5  -1   4 1462.25   54.49
   5  -1   4 1395.66   54.39
   5  -1   4 1381.96   54.39
  -6   1  -4    7.20    0.80
  -6   1  -4    5.70    0.70
   6  -1   4    8.80    0.70
   6  -1   4    9.70    0.80
   6  -1   4    8.40    0.90
  -7   1  -4   16.00    1.10
  -7   1  -4   14.20    0.90
   7  -1   4   13.70    1.20
   7  -1   4   13.60    1.00
   7  -1   4   11.00    0.90
  -8   1  -4    1.00    0.50
  -8   1  -4    0.50    0.50
   8  -1   4    0.40    0.60
   8  -1   4    0.90    0.40
  -9   1  -4    0.40    0.50
  -9   1  -4    1.30    0.60
   9  -1   4    0.60    0.70
   9  -1   4    0.10    0.50
 -10   1  -4    2.30    0.80
 -10   1  -4    1.10    0.50
  10  -1   4    1.90    0.80
  10  -1   4    2.30    0.60
 -11   1  -4    1.50    0.80
 -11   1  -4    1.50    0.60
  11  -1   4    0.80    0.90
  11  -1   4    0.90    0.60
 -12   1  -4    0.90    0.80
 -12   1  -4   -0.20    0.50
  12  -1   4    0.70    1.00
  12  -1   4   -0.40    0.70
 -13   1  -4    0.60    0.90
 -13   1  -4    0.90    0.60
  13  -1   4   -0.10    1.10
  13  -1   4   -0.10    0.70
 -14   1  -4    4.40    1.30
  14  -1   4    6.10    1.60
 -15   1  -4    2.60    1.40
  15  -1   4    3.60    1.70
 -16   1  -4   -0.70    1.40
  16  -1   4   -0.50    1.50
 -15   0   4    7.10    1.50
  14   0  -4   18.00    2.10
 -14   0   4   19.00    2.00
  13   0  -4   28.30    2.30
 -13   0   4   27.10    2.20
  12   0  -4   24.90    2.10
 -12   0   4   25.40    2.00
  11   0  -4   26.50    2.00
 -11   0   4   26.00    1.90
  10   0  -4   27.60    2.00
 -10   0   4   28.30    1.90
   9   0  -4    9.20    0.70
   9   0  -4    9.30    1.20
  -9   0   4   10.40    1.10
   8   0  -4   10.00    1.10
   8   0  -4    9.40    0.70
  -8   0   4    8.90    1.00
   7   0  -4   51.59    2.20
   7   0  -4   51.49    2.60
  -7   0   4   50.89    2.50
  -7   0   4   50.79    2.30
  -7   0   4   48.50    2.60
   6   0  -4   16.00    0.90
   6   0  -4   14.00    1.10
  -6   0   4   16.20    0.90
  -6   0   4   16.50    1.10
  -6   0   4   13.40    1.10
   5   0  -4   15.60    1.00
   5   0  -4   16.90    0.90
  -5   0   4   14.00    1.10
  -5   0   4   13.90    0.90
  -5   0   4   12.60    1.10
  -5   0   4   16.50    1.00
   4   0  -4    2.30    0.40
   4   0  -4    2.20    0.40
  -4   0   4    0.90    0.40
  -4   0   4    1.40    0.40
  -4   0   4    1.10    0.30
  -4   0   4    1.40    0.40
   3   0  -4  196.68    7.70
   3   0  -4  186.08    7.70
  -3   0   4  191.78    7.70
  -3   0   4  185.58    7.80
  -3   0   4  190.18    7.70
  -3   0   4  186.48    7.80
   2   0  -4   65.29    2.70
   2   0  -4   64.99    2.80
   2   0  -4   64.39    2.80
  -2   0   4   62.89    2.80
  -2   0   4   63.09    2.80
  -2   0   4   65.29    2.70
   1   0  -4   63.79    2.60
   1   0  -4   63.29    2.70
   1   0  -4   64.59    2.70
  -1   0   4   62.39    2.70
  -1   0   4   60.99    2.60
  -1   0   4   60.49    2.70
   0   0  -4  185.38    7.40
   0   0  -4  188.18    7.40
   0   0  -4  180.88    7.30
   0   0   4  178.18    7.40
   0   0   4  192.78    7.40
   0   0   4  179.38    7.30
  -1   0  -4    4.10    0.30
  -1   0  -4    4.20    0.50
  -1   0  -4    4.00    0.40
   1   0   4    4.30    0.40
   1   0   4    5.40    0.40
   1   0   4    4.70    0.30
  -2   0  -4   27.60    1.20
  -2   0  -4   23.40    1.20
   2   0   4   27.30    1.30
  -3   0  -4   67.39    3.00
   3   0   4   69.89    3.00
   3   0   4   72.69    3.00
  -4   0  -4    2.30    0.40
  -4   0  -4    2.10    0.40
  -4   0  -4    1.90    0.40
   4   0   4    3.90    0.40
   4   0   4    3.60    0.50
  -5   0  -4   79.09    3.60
  -5   0  -4   87.39    3.60
  -5   0  -4   88.69    3.60
   5   0   4   88.29    3.70
   5   0   4   79.69    3.60
   5   0   4   80.79    3.60
  -6   0  -4  480.95   19.20
  -6   0  -4  489.35   19.30
  -6   0  -4  461.35   19.20
   6   0   4  475.05   19.20
   6   0   4  515.95   19.40
   6   0   4  483.85   19.30
  -7   0  -4    2.20    0.60
  -7   0  -4    3.40    0.50
  -7   0  -4    1.90    0.60
   7   0   4    4.90    0.80
   7   0   4    4.10    0.60
   7   0   4    3.50    0.60
  -8   0  -4   40.00    2.10
  -8   0  -4   39.60    1.90
   8   0   4   41.50    2.20
   8   0   4   37.40    2.40
   8   0   4   38.10    1.90
  -9   0  -4   37.00    2.10
  -9   0  -4   30.00    1.70
   9   0   4   29.70    1.60
   9   0   4   33.30    2.00
 -10   0  -4   97.09    4.40
 -10   0  -4   96.09    4.20
  10   0   4   96.49    4.50
  10   0   4   90.49    4.10
 -11   0  -4   47.60    2.30
 -11   0  -4   46.30    2.60
  11   0   4   47.90    2.80
  11   0   4   41.30    2.20
 -12   0  -4   56.59    2.70
 -12   0  -4   64.39    3.20
  12   0   4   61.79    3.40
  12   0   4   48.40    2.60
 -13   0  -4   35.00    2.30
 -13   0  -4   32.60    1.80
  13   0   4   34.10    2.60
  13   0   4   25.30    1.70
 -14   0  -4    5.00    1.30
  14   0   4    7.60    2.10
 -15   0  -4   -1.00    1.20
  15   0   4    1.20    1.50
 -16   0  -4    2.00    1.30
  16   0   4    1.30    1.70
  15  -1  -4    3.30    1.60
 -15   1   4    5.30    1.30
  14  -1  -4    0.60    1.20
 -14   1   4    1.40    1.10
  13  -1  -4    7.60    1.50
 -13   1   4   11.30    1.60
  12  -1  -4    0.70    0.90
 -12   1   4    2.00    0.90
  11  -1  -4   26.30    2.10
 -11   1   4   27.10    2.00
  10  -1  -4   27.30    2.00
 -10   1   4   28.20    1.90
   9  -1  -4    2.00    0.80
  -9   1   4    2.80    0.80
  -8   1   4   18.00    1.30
   7  -1  -4   36.20    2.10
   7  -1  -4   38.70    1.60
  -7   1   4   37.10    2.00
  -7   1   4   35.70    1.70
   6  -1  -4    6.40    0.50
   6  -1  -4    6.50    0.90
   6  -1  -4    7.30    0.80
  -6   1   4    7.80    0.60
  -6   1   4    8.30    0.90
  -6   1   4    8.90    0.80
   5  -1  -4  134.09    5.80
   5  -1  -4  134.39    5.70
  -5   1   4  135.29    5.50
  -5   1   4  133.29    5.80
  -5   1   4  143.49    5.70
   4  -1  -4  302.07   11.40
   4  -1  -4  281.07   11.40
  -4   1   4  286.07   11.50
  -4   1   4  284.97   11.40
  -4   1   4  278.47   11.30
  -4   1   4  269.77   11.50
   3  -1  -4 1385.16   53.69
   3  -1  -4 1332.67   53.79
  -3   1   4 1393.26   53.89
  -3   1   4 1405.66   53.89
  -3   1   4 1362.66   53.79
  -3   1   4 1346.77   53.69
   2  -1  -4  264.07   10.50
   2  -1  -4  260.07   10.40
  -2   1   4  260.67   10.60
  -2   1   4  259.77   10.50
  -2   1   4  268.67   10.60
   1  -1  -4   42.90    1.90
   1  -1  -4   42.90    1.70
   1  -1  -4   38.90    1.90
  -1   1   4   41.90    1.70
  -1   1   4   42.40    1.80
  -1   1   4   40.60    1.90
   0  -1  -4  116.99    4.70
   0  -1  -4  116.89    4.50
   0  -1  -4  113.29    4.70
   0   1   4  114.99    4.70
   0   1   4  108.59    4.50
   0   1   4  112.59    4.70
  -1  -1  -4  183.48    7.60
  -1  -1  -4  191.18    7.60
   1   1   4  189.48    7.50
   1   1   4  186.78    7.60
  -2  -1  -4   60.89    2.60
  -2  -1  -4   61.19    2.60
  -2  -1  -4   61.99    2.50
   2   1   4   60.49    2.50
   2   1   4   60.99    2.60
  -3  -1  -4  173.58    6.90
  -3  -1  -4  166.78    6.90
  -3  -1  -4  170.18    6.80
   3   1   4  175.38    6.80
   3   1   4  162.28    6.90
  -4  -1  -4   72.59    3.00
  -4  -1  -4   70.89    3.00
  -4  -1  -4   69.49    3.10
   4   1   4   70.29    3.10
   4   1   4   69.19    3.00
   4   1   4   77.39    3.10
  -5  -1  -4  114.69    4.70
  -5  -1  -4  110.39    4.60
  -5  -1  -4  111.39    4.70
   5   1   4  118.29    4.70
   5   1   4  109.69    4.70
   5   1   4  106.79    4.60
  -6  -1  -4    0.70    0.40
  -6  -1  -4    0.60    0.40
  -6  -1  -4    0.60    0.40
   6   1   4    0.40    0.40
   6   1   4    1.10    0.50
   6   1   4    0.10    0.30
  -7  -1  -4   40.70    2.10
  -7  -1  -4   43.40    2.10
  -7  -1  -4   43.10    2.10
   7   1   4   42.10    2.00
   7   1   4   48.00    2.70
   7   1   4   44.30    2.20
  -8  -1  -4    1.90    0.60
  -8  -1  -4    1.70    0.50
  -8  -1  -4    2.70    0.60
   8   1   4    1.20    0.60
   8   1   4    1.90    0.50
   8   1   4    1.30    0.50
  -9  -1  -4    0.70    0.50
   9   1   4    1.10    0.70
   9   1   4    0.40    0.50
 -10  -1  -4   23.70    1.70
 -10  -1  -4   23.80    1.50
  10   1   4   23.20    1.70
  10   1   4   20.40    1.30
 -11  -1  -4   31.90    1.80
 -11  -1  -4   33.70    2.10
  11   1   4   28.90    1.70
  11   1   4   35.60    2.30
 -12  -1  -4    3.10    0.80
 -12  -1  -4    4.10    1.00
  12   1   4    1.50    0.80
  12   1   4    4.20    1.10
 -13  -1  -4   12.10    1.60
  13   1   4   10.80    1.10
  13   1   4   11.30    1.60
 -14  -1  -4    3.20    1.10
  14   1   4    1.60    1.20
  14   1   4    1.10    0.80
 -15  -1  -4    6.20    1.60
  15   1   4    6.10    0.90
  15   1   4    7.90    1.70
 -16  -1  -4    1.80    1.40
  16   1   4    2.80    1.70
  15  -2  -4   -0.10    1.30
 -15   2   4   -1.10    1.10
  14  -2  -4    3.00    1.40
 -14   2   4    3.10    1.20
 -13   2   4   19.10    1.90
  12  -2  -4   11.90    1.70
 -12   2   4   12.50    1.60
  11  -2  -4   43.70    2.80
 -11   2   4   45.60    2.70
  10  -2  -4   65.79    3.50
 -10   2   4   65.39    3.40
   9  -2  -4    9.20    1.20
  -9   2   4    8.10    1.10
   8  -2  -4    2.40    0.70
  -8   2   4    2.20    0.60
   7  -2  -4    1.90    0.70
  -7   2   4    2.30    0.60
   6  -2  -4    0.20    0.20
   6  -2  -4    0.00    0.40
   6  -2  -4    0.10    0.40
  -6   2   4   -0.40    0.50
  -6   2   4    0.30    0.40
  -6   2   4    0.10    0.20
   5  -2  -4  140.09    6.00
   5  -2  -4  142.69    6.20
   5  -2  -4  143.69    5.80
  -5   2   4  153.28    6.40
  -5   2   4  149.99    6.10
  -5   2   4  142.89    5.80
   4  -2  -4   68.99    3.10
   4  -2  -4   75.89    3.30
   4  -2  -4   71.99    3.00
  -4   2   4   72.59    3.30
  -4   2   4   70.59    3.10
   3  -2  -4    5.40    0.60
   3  -2  -4    5.10    0.50
   3  -2  -4    4.20    0.40
  -3   2   4    4.60    0.40
  -3   2   4    6.50    0.60
   2  -2  -4  223.58    9.00
   2  -2  -4  225.78    9.10
  -2   2   4  226.78    9.20
  -2   2   4  223.38    9.20
  -2   2   4  237.28    9.10
  -2   2   4  225.28    9.00
   1  -2  -4  183.98    7.30
   1  -2  -4  177.38    7.40
   1  -2  -4  183.18    7.20
  -1   2   4  181.28    7.40
  -1   2   4  183.68    7.20
  -1   2   4  181.48    7.30
   0  -2  -4   71.49    3.00
   0  -2  -4   66.29    3.00
   0   2   4   68.29    2.90
   0   2   4   70.69    2.80
   0   2   4   71.29    3.00
   0   2   4   70.89    2.80
  -1  -2  -4  208.98    8.50
  -1  -2  -4  208.78    8.50
   1   2   4  209.38    8.50
   1   2   4  217.18    8.30
   1   2   4  211.78    8.50
  -2  -2  -4    9.30    0.60
  -2  -2  -4    9.00    0.60
  -2  -2  -4    8.60    0.40
   2   2   4    7.30    0.40
   2   2   4    7.80    0.60
   2   2   4    7.20    0.50
  -3  -2  -4  175.98    6.90
  -3  -2  -4  172.28    7.00
  -3  -2  -4  164.88    6.90
   3   2   4  177.28    6.90
   3   2   4  170.88    7.00
  -4  -2  -4  114.19    4.70
  -4  -2  -4  116.19    4.70
  -4  -2  -4  113.59    4.80
   4   2   4  113.49    4.80
   4   2   4  117.29    4.70
   4   2   4  112.09    4.70
  -5  -2  -4  390.06   15.70
  -5  -2  -4  414.36   15.80
  -5  -2  -4  390.56   15.80
   5   2   4  395.56   15.80
   5   2   4  399.26   15.80
   5   2   4  388.76   15.70
  -6  -2  -4  271.57   11.10
  -6  -2  -4  278.07   11.10
  -6  -2  -4  271.17   11.00
   6   2   4  282.77   11.10
   6   2   4  267.27   11.10
   6   2   4  278.97   11.10
  -7  -2  -4   15.60    1.00
  -7  -2  -4   15.10    1.10
  -7  -2  -4   15.50    1.00
   7   2   4   12.80    1.10
   7   2   4   13.70    1.00
   7   2   4   14.70    1.10
  -8  -2  -4   13.20    1.00
  -8  -2  -4   12.30    1.00
  -8  -2  -4   11.50    1.00
   8   2   4   11.20    1.00
   8   2   4   14.30    0.90
   8   2   4   11.90    1.10
  -9  -2  -4   38.50    2.00
   9   2   4   39.20    2.20
   9   2   4   37.40    1.90
 -10  -2  -4   15.30    1.20
 -10  -2  -4   15.80    1.40
 -11  -2  -4    4.20    0.90
 -11  -2  -4    6.20    0.90
  11   2   4    5.50    1.10
  11   2   4    4.10    0.80
 -12  -2  -4    5.00    0.90
 -12  -2  -4    4.20    1.10
  12   2   4    5.90    0.90
  12   2   4    6.00    1.20
 -13  -2  -4    4.10    1.10
  13   2   4    2.80    0.90
  13   2   4    2.70    0.90
  13   2   4    1.50    1.10
  14   2   4   -0.50    0.80
  14   2   4   -0.20    1.20
 -15  -2  -4    1.30    1.20
  15   2   4    1.30    1.70
  15   2   4    0.50    0.90
 -16  -2  -4   11.30    1.80
  16   2   4   15.30    2.20
  15  -3  -4    4.40    1.70
 -15   3   4    4.50    1.40
  14  -3  -4    3.00    1.40
 -14   3   4    3.90    1.20
  13  -3  -4   36.10    2.70
 -13   3   4   34.70    2.50
  12  -3  -4    6.30    1.40
 -12   3   4    4.10    1.10
  11  -3  -4   -0.20    0.90
 -11   3   4    0.10    0.80
  10  -3  -4    1.30    0.80
 -10   3   4    2.50    0.80
   9  -3  -4    7.30    1.20
  -9   3   4    7.60    1.00
   8  -3  -4   51.49    2.80
  -8   3   4   47.10    2.50
   7  -3  -4   61.89    4.00
  -7   3   4   61.59    3.00
   6  -3  -4    0.30    0.50
   6  -3  -4    0.40    0.50
  -6   3   4    1.50    0.50
  -6   3   4    1.00    0.50
   5  -3  -4   37.80    1.90
   5  -3  -4   39.90    1.70
   5  -3  -4   39.80    2.10
  -5   3   4   42.00    2.10
  -5   3   4   39.90    1.70
  -5   3   4   40.50    2.00
   4  -3  -4  382.06   15.50
   4  -3  -4  389.66   15.20
   4  -3  -4  370.36   15.30
  -4   3   4  388.56   15.50
  -4   3   4  384.96   15.30
  -4   3   4  389.76   15.20
   3  -3  -4  219.08    8.90
   3  -3  -4  215.08    8.80
   3  -3  -4  217.18    9.00
  -3   3   4  227.98    8.90
  -3   3   4  219.68    8.70
  -3   3   4  218.18    9.00
   2  -3  -4  191.48    7.80
   2  -3  -4  194.88    7.80
   2  -3  -4  192.98    7.90
  -2   3   4  196.38    8.00
  -2   3   4  196.98    7.80
  -2   3   4  191.18    7.80
   1  -3  -4    2.40    0.40
  -1   3   4    1.30    0.20
  -1   3   4    1.20    0.30
  -1   3   4    1.50    0.30
  -1   3   4    1.30    0.30
   0  -3  -4    0.90    0.30
   0  -3  -4    0.80    0.20
   0  -3  -4    0.30    0.20
   0   3   4    0.40    0.20
   0   3   4    0.30    0.20
   0   3   4    0.40    0.20
  -1  -3  -4    1.90    0.30
  -1  -3  -4    1.90    0.40
  -1  -3  -4    2.40    0.20
   1   3   4    2.20    0.40
   1   3   4    2.20    0.20
   1   3   4    2.10    0.30
  -2  -3  -4   53.99    2.30
  -2  -3  -4   55.09    2.40
  -2  -3  -4   54.59    2.30
   2   3   4   54.79    2.40
   2   3   4   55.09    2.30
   2   3   4   53.79    2.30
  -3  -3  -4    1.80    0.40
  -3  -3  -4    1.90    0.30
  -3  -3  -4    1.70    0.30
   3   3   4    1.60    0.30
   3   3   4    2.10    0.30
   3   3   4    1.40    0.30
  -4  -3  -4    4.40    0.40
  -4  -3  -4    5.20    0.60
  -4  -3  -4    5.50    0.50
   4   3   4    3.70    0.40
   4   3   4    5.10    0.50
   4   3   4    4.70    0.50
  -5  -3  -4    0.80    0.30
  -5  -3  -4    0.50    0.30
  -5  -3  -4    0.80    0.30
   5   3   4    0.80    0.30
   5   3   4    1.10    0.40
   5   3   4    1.40    0.30
  -6  -3  -4   65.99    2.80
  -6  -3  -4   60.39    2.90
  -6  -3  -4   60.09    2.70
   6   3   4   64.09    2.80
   6   3   4   60.09    2.80
   6   3   4   63.19    2.80
  -7  -3  -4   27.10    1.40
  -7  -3  -4   30.30    1.60
  -7  -3  -4   26.70    1.50
   7   3   4   26.70    1.50
   7   3   4   25.10    1.50
   7   3   4   26.00    1.50
  -8  -3  -4   40.60    2.00
  -8  -3  -4   39.20    2.00
  -8  -3  -4   36.20    2.00
   8   3   4   35.20    2.10
   8   3   4   41.00    2.00
  -9  -3  -4   56.79    2.90
  -9  -3  -4   64.79    3.20
  -9  -3  -4   67.09    3.10
   9   3   4   65.99    3.10
   9   3   4   63.89    2.90
 -10  -3  -4   47.40    2.60
 -10  -3  -4   50.89    2.50
  10   3   4   47.30    2.40
  10   3   4   52.99    2.70
 -11  -3  -4   12.50    1.30
 -11  -3  -4   11.20    1.20
  11   3   4   10.70    1.10
  11   3   4   13.90    1.40
 -12  -3  -4    9.70    1.30
  12   3   4   11.20    1.40
  12   3   4    9.70    1.10
  12   3   4    9.10    1.10
 -13  -3  -4    9.40    1.40
  13   3   4   10.90    1.20
  13   3   4   11.30    1.60
 -14  -3  -4   18.40    2.00
  14   3   4   19.40    1.60
  14   3   4   14.70    1.90
 -15  -3  -4    1.70    1.30
  15   3   4    5.10    1.50
  15   3   4    1.30    1.00
 -16  -3  -4    0.60    1.20
  16   3   4    1.40    1.60
  15  -4  -4    2.60    1.50
 -15   4   4    0.60    1.30
  14  -4  -4    1.40    1.20
 -14   4   4   -0.50    1.10
  13  -4  -4    0.90    1.20
 -13   4   4    2.50    1.10
  12  -4  -4    3.30    1.10
  11  -4  -4    0.80    0.90
 -11   4   4    0.30    0.70
  10  -4  -4   31.00    2.30
 -10   4   4   30.30    2.00
   9  -4  -4   46.70    2.80
  -9   4   4   47.40    2.60
   8  -4  -4   66.39    3.50
  -8   4   4   66.69    3.30
   7  -4  -4   56.09    2.90
   6  -4  -4   57.89    2.90
   6  -4  -4   61.39    3.10
  -6   4   4   62.39    2.90
   5  -4  -4   59.39    2.90
   5  -4  -4   56.99    2.70
  -5   4   4   56.69    2.40
  -5   4   4   58.09    2.70
  -5   4   4   56.19    2.80
   4  -4  -4    6.20    0.70
   4  -4  -4    8.20    0.70
   4  -4  -4    7.70    0.80
  -4   4   4    7.40    0.50
  -4   4   4    7.70    1.00
  -4   4   4    6.60    0.70
   3  -4  -4   69.49    3.10
   3  -4  -4   69.79    2.90
  -3   4   4   69.39    3.00
  -3   4   4   67.59    2.90
  -3   4   4   68.69    3.00
  -3   4   4   65.89    3.10
   2  -4  -4    5.30    0.60
   2  -4  -4    5.40    0.60
  -2   4   4    4.20    0.50
  -2   4   4    3.80    0.50
  -2   4   4    3.60    0.60
  -2   4   4    4.80    0.50
   1  -4  -4  605.04   24.20
  -1   4   4  623.64   24.20
  -1   4   4  615.34   24.10
  -1   4   4  603.94   24.20
   0  -4  -4  190.98    7.60
   0  -4  -4  189.48    7.50
   0   4   4  182.98    7.60
   0   4   4  187.98    7.60
   0   4   4  182.58    7.50
   0   4   4  190.28    7.60
  -1  -4  -4  204.78    8.20
  -1  -4  -4  204.98    8.30
   1   4   4  204.58    8.30
   1   4   4  206.08    8.20
   1   4   4  200.78    8.10
  -2  -4  -4  462.45   18.50
  -2  -4  -4  468.25   18.30
  -2  -4  -4  482.25   18.40
   2   4   4  453.75   18.50
   2   4   4  439.06   18.30
   2   4   4  482.75   18.30
  -3  -4  -4    2.40    0.40
  -3  -4  -4    2.40    0.30
  -3  -4  -4    2.00    0.40
   3   4   4    2.10    0.30
   3   4   4    2.30    0.30
   3   4   4    1.90    0.40
  -4  -4  -4   62.99    2.70
  -4  -4  -4   65.79    2.80
  -4  -4  -4   62.29    2.90
   4   4   4   64.69    2.80
   4   4   4   63.89    2.90
   4   4   4   67.89    2.70
  -5  -4  -4    8.20    0.80
  -5  -4  -4    7.10    0.50
  -5  -4  -4    7.30    0.70
   5   4   4    7.30    0.70
   5   4   4    7.70    0.60
   5   4   4    7.20    0.60
  -6  -4  -4   89.59    3.70
  -6  -4  -4   89.59    4.00
  -6  -4  -4   93.59    3.90
   6   4   4   85.29    3.90
   6   4   4   90.39    3.80
   6   4   4   83.29    3.80
  -7  -4  -4   40.00    1.90
  -7  -4  -4   42.00    2.10
  -7  -4  -4   40.80    2.10
   7   4   4   36.70    2.00
   7   4   4   38.80    2.00
   7   4   4   42.60    2.00
  -8  -4  -4   41.00    2.10
  -8  -4  -4   35.70    1.80
  -8  -4  -4   37.10    2.00
   8   4   4   39.90    2.00
   8   4   4   39.00    2.00
  -9  -4  -4   18.80    1.70
  -9  -4  -4   22.10    1.50
  -9  -4  -4   19.70    1.50
   9   4   4   22.00    1.40
   9   4   4   20.10    1.40
 -10  -4  -4    2.90    0.80
 -10  -4  -4    1.90    0.70
 -10  -4  -4    1.20    0.60
  10   4   4    1.60    0.70
  10   4   4    0.90    0.80
 -11  -4  -4    0.90    0.80
  11   4   4    1.20    0.80
  11   4   4    1.30    0.80
 -12  -4  -4    1.10    0.80
  12   4   4    1.30    0.90
  12   4   4   -0.10    0.90
 -13  -4  -4    3.20    1.10
  13   4   4    3.30    1.10
  13   4   4    3.10    1.20
 -14  -4  -4    0.50    1.10
  14   4   4    1.30    1.20
 -15  -4  -4    1.50    1.30
  15   4   4   -0.70    1.30
 -16  -4  -4    2.00    1.50
  16   4   4    3.20    1.80
  15  -5  -4    8.90    1.90
 -15   5   4    8.70    1.70
  14  -5  -4    4.70    1.50
 -14   5   4    6.30    1.40
  13  -5  -4   10.20    1.80
 -13   5   4   11.60    1.60
  12  -5  -4   32.90    2.70
 -12   5   4   34.60    2.40
  11  -5  -4   44.60    3.00
 -11   5   4   43.00    2.70
  10  -5  -4    2.70    1.00
 -10   5   4    1.40    0.70
   9  -5  -4   88.99    4.40
  -9   5   4   83.29    4.10
   8  -5  -4   21.00    1.80
  -8   5   4   21.40    1.60
   7  -5  -4   13.40    1.30
  -7   5   4   12.40    1.10
  -6   5   4   26.30    1.20
  -6   5   4   26.50    1.50
  -6   5   4   23.70    1.10
   5  -5  -4   22.80    1.50
  -5   5   4   22.90    1.10
  -5   5   4   22.80    1.10
  -5   5   4   22.80    1.40
  -5   5   4   22.30    1.40
  -5   5   4   21.80    2.10
   4  -5  -4  173.18    7.30
  -4   5   4  168.38    6.90
  -4   5   4  169.48    7.20
  -4   5   4  176.18    7.10
  -4   5   4  168.08    7.00
   3  -5  -4   24.30    1.30
   3  -5  -4   27.20    1.50
  -3   5   4   25.80    1.30
  -3   5   4   23.50    1.30
  -3   5   4   24.90    1.30
  -3   5   4   23.50    1.50
   2  -5  -4  299.37   12.10
   2  -5  -4  298.07   12.20
  -2   5   4  308.57   12.10
  -2   5   4  306.47   12.10
  -2   5   4  297.77   12.20
  -2   5   4  305.57   12.10
   1  -5  -4  139.69    5.90
   1  -5  -4  141.79    5.80
   1  -5  -4  142.89    5.90
  -1   5   4  142.49    5.80
  -1   5   4  139.59    5.90
  -1   5   4  144.89    5.90
   0  -5  -4  141.79    5.80
   0  -5  -4  136.29    5.70
   0   5   4  137.19    5.70
   0   5   4  137.99    5.70
   0   5   4  140.09    5.80
   0   5   4  141.19    5.80
  -1  -5  -4  111.99    4.60
  -1  -5  -4  112.29    4.80
   1   5   4  111.89    4.70
   1   5   4  112.19    4.60
   1   5   4  113.69    4.60
   1   5   4  113.89    4.80
  -2  -5  -4  187.78    7.50
  -2  -5  -4  181.78    7.60
   2   5   4  195.98    7.50
   2   5   4  179.68    7.60
   2   5   4  182.58    7.40
   2   5   4  178.88    7.40
  -3  -5  -4   66.89    2.80
  -3  -5  -4   68.89    2.90
  -3  -5  -4   64.19    3.00
   3   5   4   63.99    3.00
   3   5   4   71.09    2.80
   3   5   4   62.69    2.90
  -4  -5  -4    3.40    0.50
  -4  -5  -4    3.40    0.40
  -4  -5  -4    2.60    0.60
   4   5   4    4.00    0.40
   4   5   4    4.00    0.50
   4   5   4    2.80    0.60
  -5  -5  -4  211.58    8.20
  -5  -5  -4  202.58    8.40
  -5  -5  -4  196.28    8.00
   5   5   4  187.08    8.20
   5   5   4  201.48    8.40
   5   5   4  206.58    8.00
  -6  -5  -4  153.78    6.30
  -6  -5  -4  160.58    6.70
  -6  -5  -4  160.98    6.60
   6   5   4  159.48    6.70
   6   5   4  148.49    6.60
   6   5   4  162.48    6.40
  -7  -5  -4   59.29    2.70
  -7  -5  -4   52.29    2.40
  -7  -5  -4   59.29    2.80
   7   5   4   57.59    2.50
   7   5   4   54.89    2.70
   7   5   4   51.79    2.70
  -8  -5  -4   70.39    3.30
  -8  -5  -4   66.69    3.00
   8   5   4   70.09    3.10
   8   5   4   68.09    3.50
  -9  -5  -4   43.70    2.30
  -9  -5  -4   38.90    2.00
   9   5   4   43.50    2.10
 -10  -5  -4   55.59    2.90
 -10  -5  -4   50.59    2.70
  10   5   4   55.79    2.90
  10   5   4   54.49    2.70
 -11  -5  -4    6.70    0.90
 -11  -5  -4   10.00    1.30
  11   5   4    9.50    1.30
  11   5   4    8.10    1.10
 -12  -5  -4    5.00    1.10
  12   5   4    4.20    1.00
  12   5   4    3.30    1.00
 -13  -5  -4    7.50    1.60
  13   5   4    8.60    1.20
  13   5   4    8.00    1.30
 -14  -5  -4    6.90    1.40
  14   5   4   10.20    1.40
  14   5   4   10.20    1.50
 -15  -5  -4    9.00    1.70
  15   5   4   13.00    1.80
  15   5   4   11.40    1.60
 -16  -5  -4    1.70    1.60
  16   5   4   -1.80    1.60
  16   5   4    3.90    1.70
  14  -6  -4    3.60    1.40
 -14   6   4    3.40    1.40
  13  -6  -4    2.50    1.30
 -13   6   4    0.30    1.10
  12  -6  -4    5.90    1.40
 -12   6   4    8.40    1.40
  11  -6  -4    2.60    1.10
 -11   6   4    2.90    1.10
  10  -6  -4    3.50    1.00
 -10   6   4    5.00    1.00
   9  -6  -4   74.69    3.90
  -9   6   4   72.99    3.70
   8  -6  -4   43.60    2.70
  -8   6   4   44.20    2.50
   7  -6  -4   46.60    2.70
  -7   6   4   49.70    2.00
  -7   6   4   42.70    2.10
  -7   6   4   48.90    2.50
   6  -6  -4  182.58    7.90
  -6   6   4  185.68    7.40
  -6   6   4  185.18    8.00
  -6   6   4  177.98    7.40
   5  -6  -4  115.69    5.20
  -5   6   4  112.39    4.70
  -5   6   4  113.19    5.00
  -5   6   4  112.79    4.70
   4  -6  -4   60.49    3.00
  -4   6   4   62.39    2.70
  -4   6   4   56.79    2.90
  -4   6   4   60.99    2.80
  -4   6   4   62.09    2.70
  -4   6   4   58.39    2.80
   3  -6  -4  411.56   16.90
  -3   6   4  427.66   16.70
  -3   6   4  421.36   16.70
  -3   6   4  422.56   16.80
  -3   6   4  407.76   16.80
   2  -6  -4   72.09    3.20
  -2   6   4   67.69    3.20
  -2   6   4   69.09    3.10
  -2   6   4   70.99    3.20
  -2   6   4   70.29    3.10
   1  -6  -4   58.49    2.60
   1  -6  -4   55.59    2.70
   1  -6  -4   59.99    2.70
  -1   6   4   57.99    2.70
  -1   6   4   56.29    2.70
  -1   6   4   58.39    2.60
   0  -6  -4   78.19    3.50
   0  -6  -4   78.89    3.40
   0   6   4   76.19    3.30
   0   6   4   76.69    3.40
   0   6   4   80.79    3.50
  -1  -6  -4   58.49    2.50
  -1  -6  -4   56.09    2.70
   1   6   4   54.19    2.50
   1   6   4   56.79    2.70
   1   6   4   57.99    2.50
   1   6   4   56.49    2.50
  -2  -6  -4   86.49    4.00
  -2  -6  -4   89.89    3.80
   2   6   4   98.09    3.80
   2   6   4   88.09    3.80
   2   6   4   86.69    3.80
  -3  -6  -4    5.80    0.60
  -3  -6  -4    5.80    0.80
   3   6   4    5.20    0.60
   3   6   4    5.20    0.40
   3   6   4    5.10    0.70
   3   6   4    6.30    0.60
  -4  -6  -4   14.70    1.10
  -4  -6  -4   14.90    1.00
   4   6   4   15.40    1.00
   4   6   4   14.90    1.10
   4   6   4   17.10    0.80
  -5  -6  -4  256.87   10.20
  -5  -6  -4  265.67   10.50
  -5  -6  -4  262.07   10.70
   5   6   4  245.28   10.60
   5   6   4  253.17   10.50
   5   6   4  266.17   10.20
  -6  -6  -4   88.99    4.00
  -6  -6  -4  104.99    4.00
  -6  -6  -4   89.99    4.20
   6   6   4   82.09    4.00
   6   6   4   90.79    3.80
  -7  -6  -4   53.69    2.40
  -7  -6  -4   57.29    2.80
   7   6   4   57.19    2.40
  -8  -6  -4    3.40    0.50
  -8  -6  -4    3.00    0.70
   8   6   4    2.40    0.50
   8   6   4    3.50    0.90
  -9  -6  -4    2.10    0.50
  -9  -6  -4    2.00    0.70
   9   6   4    2.40    0.60
   9   6   4    1.10    0.80
 -10  -6  -4    3.20    0.70
 -10  -6  -4    3.00    0.80
  10   6   4    3.60    0.70
  10   6   4    2.80    0.90
 -11  -6  -4   14.50    1.50
  11   6   4   13.60    1.50
  11   6   4   13.40    1.30
 -12  -6  -4   11.00    1.20
 -12  -6  -4   15.40    1.70
  12   6   4   19.20    1.80
  12   6   4   14.60    1.50
 -13  -6  -4   20.30    2.00
  13   6   4   19.80    2.00
  13   6   4   18.80    1.80
 -14  -6  -4    6.80    1.40
  14   6   4    3.60    1.30
  14   6   4    6.00    1.30
 -15  -6  -4    3.20    1.40
  15   6   4    3.60    1.40
  15   6   4    1.30    1.40
  14  -7  -4    4.10    1.60
 -14   7   4    8.00    1.60
  13  -7  -4    0.80    1.20
 -13   7   4    1.70    1.20
  12  -7  -4    6.80    1.60
 -12   7   4    4.00    1.10
  11  -7  -4   27.20    2.20
 -11   7   4   21.40    2.10
  10  -7  -4   38.30    2.70
 -10   7   4   34.20    2.40
   9  -7  -4    4.60    1.10
  -9   7   4    3.50    0.90
   8  -7  -4    4.40    1.10
  -8   7   4    3.50    0.90
  -8   7   4    2.30    0.40
  -8   7   4    2.90    0.40
   7  -7  -4    7.50    1.20
  -7   7   4    6.70    1.00
  -7   7   4    5.70    0.60
  -7   7   4    7.20    0.70
   6  -7  -4    2.80    0.90
  -6   7   4    4.20    0.80
  -6   7   4    3.10    0.50
  -6   7   4    3.10    0.50
   5  -7  -4    6.40    1.10
  -5   7   4    6.20    0.70
  -5   7   4    9.60    1.30
  -5   7   4    5.80    0.70
   4  -7  -4   15.70    1.30
  -4   7   4   14.80    1.00
  -4   7   4   13.10    1.00
  -4   7   4   15.80    1.20
   3  -7  -4   16.20    1.20
  -3   7   4   15.90    1.10
  -3   7   4   15.30    1.20
  -3   7   4   15.40    1.10
  -3   7   4   12.70    1.00
  -3   7   4   15.70    1.10
   2  -7  -4    2.10    0.60
   2  -7  -4    2.90    0.60
  -2   7   4    3.20    0.60
  -2   7   4    2.20    0.50
  -2   7   4    4.10    0.70
  -2   7   4    3.60    0.60
   1  -7  -4  126.99    5.50
   1  -7  -4  132.39    5.40
  -1   7   4  129.99    5.50
  -1   7   4  121.99    5.40
  -1   7   4  132.19    5.60
   0  -7  -4    3.50    0.60
   0  -7  -4    2.60    0.50
   0   7   4    0.30    0.50
   0   7   4    0.90    0.30
   0   7   4    0.70    0.40
   0   7   4    1.60    0.50
  -1  -7  -4   15.60    1.00
   1   7   4   14.80    1.00
   1   7   4   17.70    1.20
   1   7   4   15.70    1.00
   1   7   4   14.60    1.00
   1   7   4   18.50    1.20
  -2  -7  -4   72.69    3.20
   2   7   4   72.79    3.40
   2   7   4   73.39    3.00
   2   7   4   69.49    3.00
   2   7   4   68.89    3.30
  -3  -7  -4   48.40    2.20
   3   7   4   45.40    2.40
   3   7   4   45.40    2.20
   3   7   4   46.30    2.40
   3   7   4   46.80    1.90
   3   7   4   45.70    2.00
  -4  -7  -4    7.90    0.80
   4   7   4    7.70    1.00
   4   7   4    8.20    0.50
   4   7   4    7.10    0.80
  -5  -7  -4   20.60    1.30
   5   7   4   18.70    1.40
   5   7   4   17.80    1.40
  -6  -7  -4   91.99    4.10
  -7  -7  -4   87.39    4.00
   7   7   4   85.69    4.20
  -8  -7  -4   87.39    3.80
  -8  -7  -4   68.29    3.30
   8   7   4   82.29    3.90
   8   7   4   78.49    3.30
  -9  -7  -4   17.60    1.10
  -9  -7  -4   22.60    1.70
   9   7   4   22.10    1.20
   9   7   4   21.70    1.80
 -10  -7  -4    2.80    0.90
 -10  -7  -4    2.10    0.50
  10   7   4    2.00    1.00
  10   7   4    1.70    0.60
 -11  -7  -4    9.60    0.90
 -11  -7  -4    9.80    1.40
  11   7   4   10.30    1.40
  11   7   4   11.70    1.10
 -12  -7  -4    2.20    1.00
 -12  -7  -4    1.70    0.80
  12   7   4    1.90    1.10
  12   7   4    2.40    0.80
 -13  -7  -4   14.30    1.80
  13   7   4   17.10    1.60
  13   7   4   19.10    2.00
 -14  -7  -4   11.30    1.70
  14   7   4   13.20    1.40
  14   7   4   14.30    1.80
 -15  -7  -4    3.90    1.60
  15   7   4    3.70    1.60
  13  -8  -4    6.90    1.70
 -13   8   4   10.20    1.80
  12  -8  -4    1.50    1.30
 -12   8   4    2.10    1.20
  11  -8  -4   13.60    1.90
 -11   8   4   15.00    1.70
 -10   8   4    9.50    1.70
   9  -8  -4   12.30    1.70
  -9   8   4   10.30    1.40
   8  -8  -4   34.60    2.40
  -8   8   4   32.80    2.10
  -8   8   4   26.60    1.50
  -8   8   4   30.30    1.50
   7  -8  -4   64.09    3.50
  -7   8   4   64.69    3.30
  -7   8   4   62.19    2.80
  -7   8   4   60.39    2.80
   6  -8  -4   62.69    3.40
  -6   8   4   63.79    2.90
  -6   8   4   64.39    3.20
  -6   8   4   65.59    2.90
   5  -8  -4   29.00    1.90
  -5   8   4   27.40    1.60
  -5   8   4   27.90    1.80
  -5   8   4   26.50    1.60
   4  -8  -4   28.30    1.80
  -4   8   4   26.40    1.60
  -4   8   4   28.30    1.70
   3  -8  -4   50.19    2.60
  -3   8   4   55.59    2.70
  -3   8   4   47.80    2.60
  -3   8   4   51.09    2.50
  -3   8   4   50.79    2.50
   2  -8  -4   32.90    1.80
   2  -8  -4   33.60    1.80
  -2   8   4   30.90    1.80
  -2   8   4   32.10    1.80
  -2   8   4   30.00    1.80
   1  -8  -4   46.20    2.30
   1  -8  -4   47.70    2.30
  -1   8   4   43.20    2.20
  -1   8   4   46.90    2.40
  -1   8   4   46.20    2.40
  -1   8   4   43.90    2.30
   0  -8  -4    8.50    0.80
   0  -8  -4    9.10    0.90
   0   8   4    7.90    0.80
   0   8   4    8.60    1.00
   0   8   4    9.10    0.90
   0   8   4    8.60    0.80
  -1  -8  -4  148.29    6.20
   1   8   4  146.69    6.40
   1   8   4  143.29    6.20
   1   8   4  142.99    6.00
   1   8   4  151.98    6.10
  -2  -8  -4    0.90    0.50
   2   8   4    0.10    0.50
   2   8   4    0.90    0.30
   2   8   4    1.00    0.40
   2   8   4    0.90    0.30
  -3  -8  -4    4.10    0.70
   3   8   4    2.90    0.40
   3   8   4    2.60    0.30
   3   8   4    1.60    0.70
  -4  -8  -4   10.30    1.00
   4   8   4   11.40    1.10
   5   8   4   15.70    1.40
  -6  -8  -4   24.60    1.60
   6   8   4   20.60    1.70
  -7  -8  -4   58.89    3.00
   7   8   4   58.39    3.20
  -8  -8  -4    8.80    1.20
   8   8   4    9.40    1.30
  -9  -8  -4    8.80    1.20
   9   8   4    9.90    1.40
 -10  -8  -4    3.00    1.10
  10   8   4    2.90    1.00
 -11  -8  -4   34.80    2.40
  11   8   4   34.10    2.40
 -12  -8  -4   16.30    1.90
  12   8   4   14.60    1.80
 -13  -8  -4    0.30    1.10
  13   8   4   -0.30    1.10
 -14  -8  -4    4.10    1.50
  14   8   4    4.60    1.50
 -15  -8  -4    9.20    1.80
  15   8   4    9.10    1.80
  13  -9  -4    0.90    1.50
 -13   9   4    0.90    1.30
  12  -9  -4    0.60    1.30
 -12   9   4    0.10    1.10
  11  -9  -4   13.70    2.10
 -11   9   4   15.50    1.80
  10  -9  -4    2.90    1.20
 -10   9   4   -0.30    1.00
   9  -9  -4   12.30    1.80
  -9   9   4    9.80    0.80
  -9   9   4   11.00    1.50
  -9   9   4    8.80    0.90
   8  -9  -4    1.70    1.00
  -8   9   4    1.80    0.50
  -8   9   4    2.80    1.00
  -8   9   4    2.00    0.60
   7  -9  -4   12.40    1.60
  -7   9   4   12.80    1.50
  -7   9   4   12.90    1.10
  -7   9   4   12.20    1.10
   6  -9  -4    0.40    0.70
  -6   9   4    0.80    0.50
  -6   9   4   -0.10    0.60
  -6   9   4    1.40    0.80
   5  -9  -4   10.40    1.40
  -5   9   4   11.40    1.00
  -5   9   4   10.50    1.10
  -5   9   4   12.00    1.30
   4  -9  -4   39.30    2.40
  -4   9   4   45.90    2.50
  -4   9   4   44.50    2.30
  -4   9   4   43.40    2.30
   3  -9  -4  166.68    7.20
  -3   9   4  168.98    7.20
   2  -9  -4  186.08    7.80
   2  -9  -4  185.88    7.80
  -2   9   4  190.88    7.80
  -2   9   4  171.08    7.70
   1  -9  -4  111.39    5.00
   1  -9  -4  106.09    4.80
  -1   9   4  103.29    4.90
  -1   9   4  114.49    5.00
   0  -9  -4  148.19    6.00
   0   9   4  137.39    7.10
   0   9   4  137.79    5.90
   1   9   4  161.78    6.90
   1   9   4  177.08    7.40
   2   9   4   33.90    1.60
   2   9   4   35.60    1.60
   2   9   4   35.50    2.10
  -3  -9  -4   39.20    2.10
   3   9   4   35.80    1.60
   3   9   4   40.10    2.30
  -4  -9  -4   23.30    1.50
   4   9   4   21.30    1.70
  -5  -9  -4    2.10    0.70
   5   9   4    1.70    0.70
  -6  -9  -4   35.50    2.10
   6   9   4   36.00    2.30
  -7  -9  -4   29.60    2.00
   7   9   4   30.20    2.20
  -8  -9  -4    0.20    0.60
   8   9   4    0.70    0.90
  -9  -9  -4   14.80    1.70
   9   9   4   13.50    1.70
 -10  -9  -4    0.50    1.00
  10   9   4    1.10    1.10
 -11  -9  -4   -0.10    1.00
  11   9   4    0.80    1.20
 -12  -9  -4    0.80    1.10
  12   9   4   -0.50    1.20
 -13  -9  -4    1.40    1.20
  13   9   4    4.30    1.70
 -14  -9  -4    1.50    1.40
  14   9   4   -0.90    1.50
  12 -10  -4    7.20    1.80
 -12  10   4    9.10    1.70
  11 -10  -4   12.60    2.10
 -11  10   4   16.40    2.00
  10 -10  -4   17.70    2.20
 -10  10   4   17.90    2.00
   9 -10  -4    1.70    1.20
  -9  10   4   -0.40    1.10
  -9  10   4   -0.50    0.50
   8 -10  -4   23.80    2.20
  -8  10   4   20.10    1.50
  -8  10   4   19.90    1.40
  -8  10   4   19.70    2.00
   7 -10  -4   26.40    2.10
  -7  10   4   24.50    2.00
  -7  10   4   25.20    1.60
  -7  10   4   18.70    1.60
   6 -10  -4    1.00    0.90
  -6  10   4   -0.20    0.80
  -6  10   4   -0.60    0.60
   5 -10  -4    7.70    1.20
  -5  10   4    7.80    1.20
  -5  10   4    7.50    1.20
   4 -10  -4    0.40    0.70
  -4  10   4    0.70    0.70
  -4  10   4    1.20    0.60
   3 -10  -4   18.20    1.50
   3 -10  -4   15.80    1.60
  -3  10   4   16.60    1.40
   2 -10  -4   54.29    2.80
   2 -10  -4   55.19    2.90
  -2  10   4   53.69    2.90
   1 -10  -4   18.00    1.30
   1 -10  -4   16.60    1.40
  -1  10   4   15.20    1.40
  -1  10   4   15.90    1.30
   0 -10  -4   74.39    3.40
   0 -10  -4   67.69    3.20
   0  10   4   59.89    3.10
   0  10   4   73.99    3.50
  -1 -10  -4   98.19    4.50
   1  10   4   96.59    4.10
   1  10   4   97.89    4.70
  -2 -10  -4    2.30    0.80
   2  10   4    0.10    0.80
   2  10   4    0.90    0.40
   2  10   4    1.30    0.40
  -3 -10  -4   63.39    3.20
   3  10   4   64.19    3.40
  -4 -10  -4   19.90    1.60
   4  10   4   24.50    1.80
  -5 -10  -4   60.09    3.10
   5  10   4   56.39    3.20
  -6 -10  -4   47.60    2.60
   6  10   4   42.00    2.70
  -7 -10  -4   69.59    3.50
   7  10   4   67.29    3.80
  -8 -10  -4   26.90    2.00
   8  10   4   24.60    2.10
  -9 -10  -4   23.80    2.00
   9  10   4   25.40    2.30
 -10 -10  -4   -1.20    1.70
  10  10   4   -0.10    1.10
 -11 -10  -4    2.50    1.30
  11  10   4    2.40    1.50
 -12 -10  -4    7.40    1.50
  12  10   4    5.20    1.50
 -13 -10  -4    1.60    1.40
  13  10   4   -1.40    1.30
  11 -11  -4    8.60    2.00
 -11  11   4    8.00    1.60
  10 -11  -4    7.40    1.60
 -10  11   4    9.70    1.50
 -10  11   4    8.10    1.60
   9 -11  -4   11.10    1.80
  -9  11   4   11.50    1.70
  -9  11   4   10.50    1.10
   8 -11  -4   25.00    2.80
  -8  11   4   18.70    1.60
  -8  11   4   24.50    2.20
   7 -11  -4    9.20    1.50
  -7  11   4    9.90    1.20
   6 -11  -4   49.30    3.00
  -6  11   4   45.20    2.80
  -6  11   4   46.00    2.60
   5 -11  -4   19.30    1.80
  -5  11   4   17.30    1.50
  -5  11   4   17.50    1.70
   4 -11  -4   10.10    1.40
  -4  11   4   11.40    1.50
  -4  11   4   12.30    1.40
   3 -11  -4   17.40    1.60
   3 -11  -4   17.80    1.60
  -3  11   4   19.80    1.60
   2 -11  -4    8.50    1.10
   2 -11  -4   10.00    1.30
  -2  11   4    7.40    1.20
   1 -11  -4   20.80    1.70
   1 -11  -4   20.80    1.50
  -1  11   4   23.00    1.70
  -1  11   4   18.90    1.50
   0 -11  -4   14.60    1.20
   0 -11  -4   14.80    1.40
   0  11   4   14.50    1.50
   0  11   4   13.70    1.30
  -1 -11  -4   58.19    3.00
   1  11   4   56.29    2.60
   1  11   4   57.19    3.20
  -2 -11  -4    4.90    1.00
   2  11   4    5.40    0.60
   2  11   4    4.70    0.50
   2  11   4    4.50    1.20
  -3 -11  -4    1.20    0.80
   3  11   4    1.10    0.80
  -4 -11  -4    0.60    0.80
   4  11   4    1.60    1.00
  -5 -11  -4    4.20    1.10
   5  11   4    5.40    1.20
  -6 -11  -4   26.90    2.10
   6  11   4   31.00    2.30
  -7 -11  -4   14.40    1.60
   7  11   4   15.80    2.00
  -8 -11  -4   -1.00    0.90
   8  11   4    0.90    1.00
  -9 -11  -4   -0.10    1.00
 -10 -11  -4   -0.40    1.10
  10  11   4   -1.20    1.10
 -11 -11  -4    0.60    1.10
  11  11   4    0.20    1.20
 -12 -11  -4    3.20    1.40
  12  11   4    2.10    1.60
 -13 -11  -4    3.70    1.60
  13  11   4    1.40    1.60
  10 -12  -4    1.00    1.40
 -10  12   4   -1.10    1.20
   9 -12  -4    1.80    1.30
  -9  12   4   -0.20    1.20
  -9  12   4    0.40    0.80
   8 -12  -4    0.30    1.20
  -8  12   4    0.30    0.90
  -8  12   4   -0.40    1.20
  -7  12   4   32.30    2.10
  -7  12   4   31.50    2.50
   6 -12  -4    5.20    1.20
  -6  12   4    4.50    1.00
  -6  12   4    5.90    1.30
   5 -12  -4    3.10    1.00
  -5  12   4    5.80    1.10
  -5  12   4    4.30    1.30
   4 -12  -4    3.80    1.00
  -4  12   4    4.10    1.00
  -4  12   4    3.90    1.00
   3 -12  -4    9.10    1.50
   3 -12  -4    9.40    1.30
  -3  12   4    9.00    1.30
   2 -12  -4   32.60    2.10
   2 -12  -4   33.80    2.30
  -2  12   4   30.70    2.30
   1 -12  -4   31.70    2.20
   1 -12  -4   32.70    1.90
  -1  12   4   29.00    2.20
   0 -12  -4   60.09    3.00
   0 -12  -4   61.09    3.30
   0  12   4   65.29    3.40
   0  12   4   59.69    2.90
  -1 -12  -4   18.50    1.70
   1  12   4   16.30    1.20
   1  12   4   16.80    1.70
   1  12   4   13.90    1.10
  -2 -12  -4   36.80    2.30
   2  12   4   37.70    2.50
   2  12   4   39.30    1.70
   2  12   4   31.20    1.60
  -3 -12  -4    3.80    1.10
   3  12   4    1.70    0.90
  -4 -12  -4   17.40    1.70
   4  12   4   22.00    1.90
  -5 -12  -4    7.00    1.30
   5  12   4    6.80    1.40
  -6 -12  -4   10.20    1.60
   6  12   4   11.60    1.80
   7  12   4   32.00    2.50
  -8 -12  -4   27.80    2.30
   8  12   4   26.80    2.50
  -9 -12  -4   15.70    1.80
   9  12   4   16.50    2.00
 -10 -12  -4   15.30    1.90
  10  12   4   10.10    1.70
 -11 -12  -4   13.40    2.00
  11  12   4   13.50    2.00
 -12 -12  -4    2.60    1.60
  12  12   4    4.20    1.80
   9 -13  -4    3.00    1.40
  -9  13   4    4.30    1.50
  -9  13   4    3.20    1.20
   8 -13  -4   11.60    1.70
  -8  13   4   11.90    1.90
  -8  13   4   16.30    1.80
   7 -13  -4    8.50    1.70
  -7  13   4   10.00    1.50
  -7  13   4    6.30    1.40
   6 -13  -4   49.30    3.30
  -6  13   4   52.69    3.10
  -6  13   4   57.29    3.40
   5 -13  -4   36.90    2.80
  -5  13   4   41.20    2.60
  -5  13   4   37.90    2.80
   4 -13  -4   16.90    1.90
  -4  13   4   12.00    1.60
  -4  13   4   17.30    1.80
   3 -13  -4    9.70    2.60
   3 -13  -4   12.80    1.50
  -3  13   4   13.80    1.60
   2 -13  -4    3.90    1.20
   2 -13  -4    5.20    1.10
  -2  13   4    6.30    1.30
   1 -13  -4   17.30    1.50
   1 -13  -4   18.20    2.00
  -1  13   4   19.50    1.80
   0 -13  -4    5.50    1.20
   0  13   4    3.50    0.80
   0  13   4    5.50    1.20
  -1 -13  -4   16.00    1.80
   1  13   4   12.60    1.20
   1  13   4   16.10    1.70
   1  13   4   10.10    1.00
  -2 -13  -4   30.00    2.20
   2  13   4   29.30    2.30
  -3 -13  -4    7.80    1.40
   4  13   4    2.90    1.00
  -5 -13  -4    0.70    1.00
   5  13   4   -0.30    0.90
  -6 -13  -4   -0.30    1.00
   6  13   4    0.40    1.00
  -7 -13  -4    2.80    1.20
   7  13   4    0.40    1.30
  -8 -13  -4    5.20    1.40
   8  13   4    2.10    1.20
  -9 -13  -4    4.80    1.50
   9  13   4    5.70    1.70
 -10 -13  -4    6.50    1.60
  10  13   4    4.40    1.80
   8 -14  -4   -0.40    1.50
  -8  14   4   -0.60    1.40
  -8  14   4   -0.80    1.20
   7 -14  -4   -0.90    1.30
  -7  14   4   -1.60    1.30
  -7  14   4   -1.30    1.20
   6 -14  -4   -0.10    1.20
  -6  14   4    0.70    1.10
  -6  14   4   -0.90    1.30
   5 -14  -4    9.40    1.40
  -5  14   4    9.70    1.60
  -5  14   4   12.30    1.60
   4 -14  -4   -0.60    1.00
  -4  14   4    1.50    1.20
  -4  14   4    0.50    1.60
   3 -14  -4    0.80    1.00
   2 -14  -4    6.10    1.20
   2 -14  -4    5.90    1.30
  -2  14   4    7.10    1.50
   1 -14  -4   18.00    1.90
   1 -14  -4   17.60    1.70
  -1  14   4   19.10    2.20
   0 -14  -4   10.20    1.60
   0  14   4   11.30    1.70
  -1 -14  -4    4.20    1.30
   1  14   4    5.10    0.80
   1  14   4    5.50    1.30
  -2 -14  -4   33.40    2.50
   2  14   4   33.20    2.70
  -3 -14  -4    3.80    1.20
   3  14   4    1.50    1.20
  -4 -14  -4   20.50    2.10
   4  14   4   18.50    2.10
  -5 -14  -4   14.90    2.00
   5  14   4   19.00    2.30
  -6 -14  -4   11.40    1.70
   6  14   4   12.80    2.00
  -7 -14  -4   10.10    1.60
   7  14   4   17.70    2.20
  -8 -14  -4   16.00    2.10
   8  14   4   14.00    2.20
  -9 -14  -4    4.80    1.70
   9  14   4    7.20    1.90
   6 -15  -4    2.90    1.40
  -6  15   4    3.40    1.50
  -6  15   4    1.80    1.90
   5 -15  -4   24.00    2.60
  -5  15   4   27.40    2.50
  -5  15   4   34.50    2.90
   4 -15  -4   -0.20    1.20
  -4  15   4    0.90    1.40
  -4  15   4    3.20    1.20
   3 -15  -4   -1.20    1.10
  -3  15   4    0.70    1.10
  -3  15   4    0.80    1.30
   2 -15  -4    0.90    1.10
   2 -15  -4    1.90    1.20
  -2  15   4    2.00    1.30
   1 -15  -4    1.20    1.20
  -1  15   4   -0.70    1.10
   0 -15  -4    0.80    1.20
   0  15   4   -0.30    1.10
   0  15   4    0.50    1.00
  -1 -15  -4    2.60    1.30
   1  15   4    1.40    1.20
  -2 -15  -4    0.70    1.10
   2  15   4    1.70    1.30
  -3 -15  -4    4.50    1.40
   3  15   4    3.60    1.50
  -4 -15  -4    7.30    1.50
   4  15   4    2.70    1.30
  -5 -15  -4    2.40    1.30
   5  15   4    1.50    1.50
  -6 -15  -4    4.90    1.60
   6  15   4    6.30    1.70
  -7 -15  -4    3.70    1.50
   7  15   4    4.40    1.70
   3 -16  -4    7.00    1.60
  -3  16   4    7.30    1.80
   2 -16  -4   13.40    2.10
  -2  16   4   16.50    2.20
   1 -16  -4    9.70    1.80
  -1  16   4    9.20    1.90
   0 -16  -4   17.70    2.30
   0  16   4   19.50    2.50
  -1 -16  -4   21.90    2.40
   1  16   4   18.80    2.50
  -2 -16  -4   19.40    2.30
   2  16   4   23.80    2.70
  -3 -16  -4    8.40    1.80
   3  16   4    9.90    1.90
  -4 -16  -4    2.80    1.40
   4  16   4    1.20    2.10
   4  12  -5    7.80    1.90
  -4 -12   5    9.00    1.80
   3  12  -5    2.20    1.50
  -3 -12   5    1.80    1.40
   2  12  -5   -0.80    1.40
  -2 -12   5    0.20    1.20
  -2 -12   5    0.60    1.50
   1  12  -5    3.50    1.40
  -1 -12   5    0.60    1.30
  -1 -12   5   -0.10    1.20
   0  12  -5    3.40    1.50
   0 -12   5    1.90    1.50
   0 -12   5    2.10    1.30
  -1  12  -5    0.70    1.20
   1 -12   5    0.80    1.40
   1 -12   5    1.10    1.40
  -2  12  -5    2.90    1.50
   2 -12   5    3.50    1.40
   2 -12   5   -0.10    1.50
  -3  12  -5    0.60    1.30
   3 -12   5    2.70    1.50
   3 -12   5    2.00    1.50
  -4  12  -5    2.40    1.80
  -4  12  -5    0.50    1.40
   4 -12   5    0.00    1.60
  -5  12  -5   -1.00    1.40
  -5  12  -5    0.40    1.90
   5 -12   5   -0.10    1.50
   7  11  -5    1.60    1.60
  -7 -11   5   -2.70    1.30
   6  11  -5    0.70    1.50
  -6 -11   5   -2.10    1.20
   5  11  -5    1.70    1.40
  -5 -11   5   -0.90    1.20
   4  11  -5    4.30    1.40
  -4 -11   5    1.70    1.20
  -4 -11   5    4.60    1.20
   3  11  -5    4.10    1.40
  -3 -11   5    5.90    1.10
  -3 -11   5    4.80    1.30
   2  11  -5    0.00    1.20
  -2 -11   5    3.00    1.20
  -2 -11   5    1.40    1.20
   1  11  -5   18.00    2.00
  -1 -11   5   22.50    2.20
  -1 -11   5   23.50    2.00
   0  11  -5    9.60    1.70
   0 -11   5   10.50    1.40
   0 -11   5    9.00    1.40
  -1  11  -5   13.70    1.90
   1 -11   5   14.20    1.70
   1 -11   5   13.40    1.60
  -2  11  -5    9.10    1.60
   2 -11   5    7.20    1.50
   2 -11   5    6.70    1.40
  -3  11  -5   -0.90    1.10
   3 -11   5    1.80    1.30
   3 -11   5   -0.40    1.10
  -4  11  -5    5.50    1.40
   4 -11   5    3.40    1.30
   4 -11   5    2.10    1.40
  -5  11  -5    1.90    1.20
  -5  11  -5    2.60    1.60
   5 -11   5    0.10    1.40
  -6  11  -5    1.40    1.60
  -6  11  -5    2.60    1.30
   6 -11   5    3.30    1.70
  -7  11  -5    1.00    1.80
  -7  11  -5    0.70    1.30
   7 -11   5    1.30    1.70
  -8  11  -5    2.90    1.40
  -8  11  -5    4.70    2.00
   8 -11   5    1.50    1.70
   8  10  -5    6.70    1.70
  -8 -10   5    6.30    1.50
   7  10  -5    7.90    1.60
  -7 -10   5    8.50    1.60
   6  10  -5    0.30    1.20
  -6 -10   5   -0.30    1.20
   5  10  -5   11.80    1.90
  -5 -10   5   10.70    1.60
  -5 -10   5    9.50    0.90
   4  10  -5   20.90    2.20
  -4 -10   5   18.50    1.60
  -4 -10   5   19.60    2.10
   3  10  -5    1.60    1.10
  -3 -10   5    0.40    1.00
  -3 -10   5    1.50    0.90
   2  10  -5    1.20    1.10
  -2 -10   5   -0.40    0.80
  -2 -10   5    0.00    1.00
   1  10  -5    3.10    1.10
  -1 -10   5    3.70    1.00
   0  10  -5    3.60    1.20
   0 -10   5    2.20    1.00
  -1  10  -5    1.90    1.10
   1 -10   5    1.20    1.30
   1 -10   5    2.40    1.10
  -2  10  -5    1.80    1.10
   2 -10   5    3.20    1.10
  -3  10  -5    8.00    1.40
   3 -10   5    6.60    1.40
   3 -10   5    5.20    1.90
  -4  10  -5   -0.10    1.00
   4 -10   5   -1.80    1.20
   4 -10   5    0.30    1.10
  -5  10  -5    0.90    1.10
  -5  10  -5    1.10    1.30
   5 -10   5    1.60    1.30
  -6  10  -5   -0.50    1.30
  -6  10  -5    0.60    1.10
   6 -10   5    0.80    1.40
  -7  10  -5    1.20    1.50
  -7  10  -5    1.10    1.20
   7 -10   5    1.10    1.40
  -8  10  -5    0.00    1.50
  -8  10  -5    3.20    1.30
   8 -10   5    3.70    1.70
  -9  10  -5    8.50    1.90
  -9  10  -5   10.10    1.70
   9 -10   5    7.90    2.00
  10   9  -5   -0.60    1.30
 -10  -9   5   -1.80    1.40
   9   9  -5    1.10    1.40
  -9  -9   5    1.60    1.40
   8   9  -5    2.60    1.30
  -8  -9   5    2.80    1.20
   7   9  -5    3.10    1.20
  -7  -9   5    4.70    1.20
  -7  -9   5    4.30    0.80
   6   9  -5    1.30    1.10
  -6  -9   5    1.20    1.10
  -6  -9   5    2.20    0.70
   5   9  -5   11.60    1.70
  -5  -9   5    9.30    1.20
  -5  -9   5    9.20    1.00
  -5  -9   5    9.80    1.60
  -4  -9   5    1.60    0.70
  -4  -9   5    1.00    1.00
   3   9  -5   17.00    1.60
   3   9  -5   19.30    2.10
  -3  -9   5   19.50    1.90
  -3  -9   5   17.00    1.50
   2   9  -5    3.20    1.10
  -2  -9   5    4.60    0.90
  -2  -9   5    4.80    1.10
   1   9  -5   17.00    1.90
  -1  -9   5   16.80    1.70
  -1  -9   5   16.10    1.60
   0   9  -5   48.90    3.00
   0  -9   5   49.70    2.90
   0  -9   5   49.60    2.80
  -1   9  -5   35.00    2.40
   1  -9   5   36.50    2.40
   1  -9   5   30.60    2.30
  -2   9  -5   65.69    3.40
   2  -9   5   59.59    3.40
   2  -9   5   60.59    3.30
  -3   9  -5    9.50    1.40
   3  -9   5    8.10    1.40
   3  -9   5    8.40    1.40
  -4   9  -5   41.00    2.60
   4  -9   5   37.00    2.70
   4  -9   5   42.10    2.60
  -5   9  -5   20.30    1.90
  -5   9  -5   19.30    2.00
   5  -9   5   14.70    1.80
  -6   9  -5    8.40    1.90
  -6   9  -5    8.20    1.30
   6  -9   5    5.70    1.60
  -7   9  -5    5.40    1.50
  -7   9  -5    6.70    1.30
   7  -9   5    9.00    1.80
  -8   9  -5    4.50    1.60
  -8   9  -5    7.00    1.40
   8  -9   5    3.80    1.50
  -9   9  -5    2.50    1.50
  -9   9  -5    0.80    1.20
   9  -9   5    1.80    1.60
 -10   9  -5   -0.20    1.40
 -10   9  -5   -0.70    1.40
  10  -9   5   -1.40    1.40
 -11   9  -5    2.80    1.40
 -11   9  -5   -2.60    1.50
  11  -9   5   -2.10    1.60
  11   8  -5    5.00    1.50
 -11  -8   5    5.20    1.60
  10   8  -5    5.80    1.40
 -10  -8   5    5.30    1.60
   9   8  -5   11.90    1.70
  -9  -8   5    9.60    0.90
  -9  -8   5   12.30    1.80
   8   8  -5   11.20    2.60
  -8  -8   5   10.00    1.50
  -8  -8   5    8.90    0.90
   7   8  -5    9.50    1.50
  -7  -8   5    7.70    1.20
  -7  -8   5    8.70    1.40
  -7  -8   5    8.10    0.90
   6   8  -5    1.40    1.00
  -6  -8   5    0.70    0.90
  -6  -8   5    0.40    0.60
  -6  -8   5   -0.40    0.90
   5   8  -5    8.60    1.40
  -5  -8   5    8.70    0.90
  -5  -8   5   10.20    1.50
  -5  -8   5    7.00    1.20
   4   8  -5   11.90    1.60
  -4  -8   5   11.50    1.10
  -4  -8   5   12.70    1.60
   3   8  -5    1.50    1.00
   3   8  -5    0.90    0.80
  -3  -8   5    2.70    0.70
  -3  -8   5    1.20    0.90
   2   8  -5    5.60    0.90
   2   8  -5    5.90    1.20
  -2  -8   5    6.30    1.10
  -2  -8   5    6.40    0.90
   1   8  -5    8.50    1.30
  -1  -8   5    7.30    1.20
  -1  -8   5    6.60    1.00
   0   8  -5    5.50    1.10
   0  -8   5    5.60    1.20
   0  -8   5    7.60    1.20
  -1   8  -5    4.00    1.00
   1  -8   5    2.30    0.80
   1  -8   5    1.90    0.80
  -2   8  -5   13.40    1.50
   2  -8   5   13.20    1.50
   2  -8   5   13.50    1.50
  -3   8  -5    5.80    1.20
   3  -8   5    4.60    1.00
   3  -8   5    4.80    1.10
  -4   8  -5    3.30    0.90
   4  -8   5    2.40    1.00
   4  -8   5    3.90    1.10
  -5   8  -5   20.50    2.00
  -5   8  -5   21.40    1.80
   5  -8   5   20.10    2.00
  -6   8  -5    4.60    1.30
  -6   8  -5    6.30    1.30
   6  -8   5    7.30    1.40
  -7   8  -5    4.70    1.40
  -7   8  -5    4.40    1.10
   7  -8   5    6.30    1.50
  -8   8  -5   12.20    1.60
  -8   8  -5    9.80    2.10
   8  -8   5   12.20    2.00
  -9   8  -5   12.50    1.80
  -9   8  -5    9.40    1.50
   9  -8   5   11.90    1.80
 -10   8  -5    4.70    1.60
 -10   8  -5    8.20    1.50
  10  -8   5    7.70    1.70
 -11   8  -5    2.40    1.50
 -11   8  -5    4.10    1.30
  11  -8   5    2.40    1.60
 -12   8  -5   -2.70    1.40
 -12   8  -5    1.10    1.30
  12  -8   5   -3.30    1.60
  12   7  -5    8.30    1.50
 -12  -7   5    4.10    1.60
  11   7  -5    0.40    1.80
 -11  -7   5    1.30    1.30
 -11  -7   5    0.50    1.10
  10   7  -5    0.20    1.00
 -10  -7   5   -0.10    1.20
 -10  -7   5    0.40    0.80
   9   7  -5    1.30    1.10
  -9  -7   5    1.90    1.20
  -9  -7   5    1.20    0.70
   8   7  -5   10.20    1.50
  -8  -7   5   10.70    1.10
   7   7  -5   35.60    2.40
  -7  -7   5   43.30    3.10
  -7  -7   5   42.10    2.50
  -7  -7   5   32.40    1.90
   6   7  -5   17.60    1.70
  -6  -7   5   18.50    1.70
  -6  -7   5   16.30    1.20
  -6  -7   5   16.40    1.70
   5   7  -5   48.70    2.80
  -5  -7   5   47.60    2.80
  -5  -7   5   57.59    3.30
  -5  -7   5   48.30    2.40
   4   7  -5   82.59    4.40
   4   7  -5  101.19    4.70
  -4  -7   5   99.69    4.50
  -4  -7   5   97.89    4.10
   3   7  -5   90.19    4.30
   3   7  -5   78.09    3.90
  -3  -7   5   91.29    4.10
  -3  -7   5   84.69    3.80
   2   7  -5   85.19    4.10
   2   7  -5   76.19    3.70
  -2  -7   5   88.99    4.00
  -2  -7   5   83.89    3.80
   1   7  -5    2.70    0.70
   1   7  -5    5.20    0.90
  -1  -7   5    4.80    0.90
  -1  -7   5    3.70    0.90
   0   7  -5    1.90    0.80
   0  -7   5    0.10    0.60
   0  -7   5    0.80    0.60
  -1   7  -5    4.30    0.90
   1  -7   5    5.30    0.90
   1  -7   5    3.60    0.90
  -2   7  -5    0.20    0.60
   2  -7   5   -0.40    0.70
   2  -7   5    0.90    0.70
  -3   7  -5    6.10    1.10
   3  -7   5    4.20    0.90
   3  -7   5    6.30    1.10
  -4   7  -5   -0.30    0.70
   4  -7   5    1.50    0.90
   4  -7   5    0.00    0.60
  -5   7  -5   36.30    2.20
  -5   7  -5   38.40    2.40
   5  -7   5   32.10    2.40
  -6   7  -5    4.80    1.00
  -6   7  -5    3.80    1.10
   6  -7   5    3.50    1.20
  -7   7  -5    5.00    1.30
  -7   7  -5    5.10    1.00
   7  -7   5    7.50    1.50
  -8   7  -5    1.20    0.90
  -8   7  -5    0.20    1.10
   8  -7   5    0.60    1.10
  -9   7  -5   -0.40    0.90
  -9   7  -5    0.90    1.10
   9  -7   5   -1.30    1.20
 -10   7  -5    2.20    1.30
 -10   7  -5    1.50    1.00
  10  -7   5    3.40    1.50
 -11   7  -5    0.80    1.00
 -11   7  -5    0.40    1.30
  11  -7   5    0.70    1.50
 -12   7  -5   -0.40    1.30
 -12   7  -5   -0.20    1.10
  12  -7   5   -1.60    1.40
 -13   7  -5   -1.60    1.40
 -13   7  -5    1.10    1.40
  13  -7   5   -0.80    1.60
  12   6  -5    9.60    1.60
 -12  -6   5   10.40    1.60
 -12  -6   5    8.10    1.30
  11   6  -5    0.70    1.10
 -11  -6   5    1.00    1.10
 -11  -6   5    0.70    1.30
  10   6  -5    1.10    1.00
 -10  -6   5    1.30    0.80
 -10  -6   5    2.90    1.20
   9   6  -5    3.60    1.10
  -9  -6   5    4.50    0.80
  -9  -6   5    3.70    1.30
   8   6  -5    9.70    1.30
  -8  -6   5    9.40    1.40
  -8  -6   5    9.60    1.20
  -8  -6   5    8.90    0.90
   7   6  -5    5.80    1.10
  -7  -6   5    4.20    0.70
  -7  -6   5    4.20    0.90
  -7  -6   5    5.40    1.10
   6   6  -5    3.00    0.80
  -6  -6   5    1.60    0.80
  -6  -6   5    1.60    0.60
   5   6  -5    3.40    0.90
  -5  -6   5    4.50    0.70
  -5  -6   5    4.60    0.90
   4   6  -5   99.49    4.70
  -4  -6   5  101.29    4.60
  -4  -6   5  100.19    4.30
   3   6  -5    0.00    0.70
   3   6  -5    1.50    0.70
  -3  -6   5    1.30    0.70
  -3  -6   5    1.60    0.60
   2   6  -5    2.50    0.80
   2   6  -5    1.30    0.50
  -2  -6   5    1.30    0.60
  -2  -6   5    1.80    0.70
   1   6  -5   12.80    1.20
   1   6  -5    8.10    0.90
  -1  -6   5   11.20    1.10
  -1  -6   5   11.20    1.10
   0   6  -5   10.00    1.20
   0  -6   5    9.50    1.10
   0  -6   5   10.00    1.00
  -1   6  -5   37.10    2.10
   1  -6   5   39.00    2.10
   1  -6   5   33.80    2.00
  -2   6  -5   19.70    1.50
   2  -6   5   18.40    1.50
   2  -6   5   20.90    1.50
  -3   6  -5   13.90    1.30
   3  -6   5   14.40    1.30
   3  -6   5   14.80    1.40
  -4   6  -5   57.09    2.90
   4  -6   5   52.29    2.80
   4  -6   5   56.69    3.00
  -5   6  -5   75.69    3.60
  -5   6  -5   75.09    3.70
   5  -6   5   73.49    3.80
  -6   6  -5   52.89    2.90
  -6   6  -5   54.19    2.80
   6  -6   5   52.49    3.10
  -7   6  -5   13.60    1.50
  -7   6  -5   13.10    1.40
   7  -6   5   15.00    1.70
  -8   6  -5   11.80    1.30
  -8   6  -5   14.90    1.70
   8  -6   5   13.40    1.70
  -9   6  -5   10.50    1.30
  -9   6  -5   12.40    1.50
   9  -6   5   10.40    1.80
 -10   6  -5    3.90    1.20
 -10   6  -5    3.50    1.00
  10  -6   5    5.10    1.40
 -11   6  -5    3.70    1.30
  11  -6   5    2.90    1.30
 -12   6  -5    4.70    1.00
 -12   6  -5    8.70    1.80
  12  -6   5    9.50    1.80
 -13   6  -5    0.90    1.00
 -13   6  -5    0.00    1.30
  13  -6   5   -2.80    1.50
 -14   6  -5    3.80    1.70
  13   5  -5    1.80    1.20
 -13  -5   5   -1.70    1.20
 -13  -5   5   -1.10    1.30
  12   5  -5   14.20    1.60
 -12  -5   5   11.90    1.50
 -12  -5   5   14.00    1.80
  11   5  -5   12.10    1.50
 -11  -5   5   14.20    1.70
 -11  -5   5   11.30    1.30
  10   5  -5   10.00    1.30
 -10  -5   5   16.50    2.10
   9   5  -5   16.60    1.60
  -9  -5   5   16.80    1.70
  -9  -5   5   16.70    1.40
   8   5  -5   14.20    1.40
  -8  -5   5   14.00    1.60
  -8  -5   5   13.50    1.50
  -8  -5   5   15.50    1.30
   7   5  -5   24.20    1.70
  -7  -5   5   23.40    1.70
  -7  -5   5   25.60    1.80
  -7  -5   5   22.50    1.50
   6   5  -5   26.10    1.70
  -6  -5   5   19.50    1.50
  -6  -5   5   24.40    1.70
  -6  -5   5   21.10    1.40
   5   5  -5    2.70    0.80
  -5  -5   5    2.20    0.60
  -5  -5   5    1.20    0.70
   4   5  -5   37.50    2.20
   4   5  -5   33.40    2.10
  -4  -5   5   41.00    1.90
  -4  -5   5   39.80    2.10
   3   5  -5   22.50    1.60
   3   5  -5   20.90    1.40
  -3  -5   5   24.20    2.10
  -3  -5   5   23.90    1.40
   2   5  -5    7.50    1.40
   2   5  -5    8.40    1.10
  -2  -5   5    9.00    1.00
  -2  -5   5    7.70    0.90
   1   5  -5    5.40    0.90
   1   5  -5    4.30    0.70
  -1  -5   5    5.50    0.70
  -1  -5   5    5.20    0.70
   0   5  -5   19.40    1.30
   0   5  -5   20.20    1.40
   0   5  -5   19.40    1.50
   0  -5   5   21.40    1.40
   0  -5   5   19.60    1.30
  -1   5  -5   46.30    2.40
  -1   5  -5   52.49    2.60
  -1   5  -5   44.80    2.30
   1  -5   5   48.90    2.40
   1  -5   5   50.69    2.40
  -2   5  -5    2.60    0.70
   2  -5   5    1.90    0.60
   2  -5   5    2.20    0.70
  -3   5  -5   -0.10    0.40
   3  -5   5   -0.60    0.60
   3  -5   5   -0.10    0.50
  -4   5  -5   50.89    2.60
   4  -5   5   47.50    2.70
  -5   5  -5   14.30    1.30
  -5   5  -5   13.50    1.30
   5  -5   5   13.80    1.40
  -6   5  -5   14.30    1.30
  -6   5  -5   15.10    1.40
   6  -5   5   14.70    1.60
  -7   5  -5    2.90    1.00
  -7   5  -5    3.30    0.80
   7  -5   5    0.80    0.90
  -8   5  -5    0.50    0.70
  -8   5  -5   -0.70    0.80
   8  -5   5    0.40    0.90
  -9   5  -5   11.10    1.30
  -9   5  -5   10.10    1.50
   9  -5   5   10.50    1.60
 -10   5  -5   18.10    1.80
 -10   5  -5   16.10    1.50
  10  -5   5   18.70    2.20
 -11   5  -5    9.80    1.60
 -11   5  -5    9.60    1.20
  11  -5   5    8.50    1.70
 -12   5  -5    6.20    1.00
 -12   5  -5    6.90    1.50
  12  -5   5    7.40    1.60
 -13   5  -5    2.30    1.30
  13  -5   5    3.00    1.50
 -14   5  -5    1.30    1.50
  14  -5   5    3.60    1.90
 -14  -4   5    0.50    1.40
 -14  -4   5    1.00    1.50
  13   4  -5    1.40    1.00
 -13  -4   5    1.20    1.20
 -13  -4   5    1.50    1.30
  12   4  -5    1.30    1.00
 -12  -4   5    2.70    1.10
 -12  -4   5    1.40    1.10
  11   4  -5    4.40    1.10
 -11  -4   5    4.50    1.30
 -11  -4   5    5.10    1.00
  10   4  -5    2.10    0.90
 -10  -4   5    1.90    1.00
 -10  -4   5    1.40    0.90
   9   4  -5   -0.40    0.70
  -9  -4   5   -0.70    0.70
  -9  -4   5   -0.20    0.80
   8   4  -5   19.90    1.50
  -8  -4   5   18.00    1.40
  -8  -4   5   18.20    1.60
   7   4  -5   10.80    1.20
  -7  -4   5   12.40    1.30
  -7  -4   5   12.50    1.10
  -7  -4   5   10.50    1.20
   6   4  -5    1.30    0.70
  -6  -4   5    1.70    0.60
  -6  -4   5    2.50    0.70
  -6  -4   5    2.70    0.60
  -5  -4   5   11.70    1.10
  -5  -4   5   12.60    1.00
   4   4  -5  260.97   10.70
  -4  -4   5  258.87   10.40
  -4  -4   5  249.28   10.50
   3   4  -5  129.99    6.00
   3   4  -5  143.69    6.00
   3   4  -5  145.19    6.10
  -3  -4   5  149.29    5.90
  -3  -4   5  141.89    6.00
   2   4  -5  142.09    6.00
   2   4  -5  128.39    5.80
   2   4  -5  134.59    5.80
  -2  -4   5  139.39    5.80
  -2  -4   5  142.59    5.70
   1   4  -5   74.29    3.40
   1   4  -5   74.79    3.40
   1   4  -5   81.89    3.60
  -1  -4   5   76.69    3.40
  -1  -4   5   80.69    3.40
   0   4  -5   34.40    1.90
   0   4  -5   34.60    1.90
   0  -4   5   36.20    1.80
   0  -4   5   35.80    1.80
  -1   4  -5   44.60    2.20
  -1   4  -5   38.80    2.00
   1  -4   5   40.30    2.00
   1  -4   5   44.80    2.10
  -2   4  -5   31.30    1.70
  -2   4  -5   29.30    1.60
  -2   4  -5   28.60    1.60
   2  -4   5   29.10    1.60
   2  -4   5   32.00    1.70
  -3   4  -5    3.80    0.80
  -3   4  -5    4.50    0.70
  -3   4  -5    4.50    0.70
   3  -4   5    4.80    0.80
   3  -4   5    4.50    0.70
  -4   4  -5    3.50    0.70
  -4   4  -5    3.60    0.70
  -4   4  -5    3.70    0.70
   4  -4   5    6.10    0.90
  -5   4  -5   38.60    2.10
  -5   4  -5   39.90    2.10
   5  -4   5   40.20    2.30
  -6   4  -5    8.60    0.90
  -6   4  -5    7.10    1.00
   6  -4   5    7.30    1.10
  -7   4  -5   15.20    1.20
  -7   4  -5   15.00    1.40
   7  -4   5   13.40    1.60
  -8   4  -5    6.20    0.90
  -8   4  -5    6.70    1.10
   8  -4   5    6.90    1.20
  -9   4  -5   19.70    1.60
  -9   4  -5   16.10    1.40
   9  -4   5   16.70    1.90
 -10   4  -5    4.20    1.00
 -10   4  -5    4.10    0.90
  10  -4   5    1.90    1.10
 -11   4  -5    3.50    1.10
 -11   4  -5    4.00    0.90
  11  -4   5    1.60    1.10
 -12   4  -5    2.90    0.90
 -12   4  -5    1.50    1.40
  12  -4   5    3.20    1.30
 -13   4  -5   -0.90    1.10
 -13   4  -5   -0.10    0.80
  13  -4   5   -1.20    1.20
 -14   4  -5    2.10    1.20
 -14   4  -5    1.70    1.40
  14  -4   5    0.60    1.50
 -15   4  -5    3.10    1.60
  15  -4   5    2.30    1.70
 -14  -3   5    8.90    1.60
 -14  -3   5   12.20    1.90
  13   3  -5    0.50    0.90
 -13  -3   5    1.40    1.20
 -13  -3   5   -0.50    1.10
  12   3  -5   29.80    1.90
 -12  -3   5   30.60    2.30
 -12  -3   5   24.70    2.20
  11   3  -5    5.60    0.90
 -11  -3   5    3.70    1.00
  10   3  -5   25.80    1.70
 -10  -3   5   26.40    2.00
 -10  -3   5   25.20    1.90
   9   3  -5   14.40    1.30
  -9  -3   5   15.50    1.50
  -9  -3   5   14.20    1.70
   8   3  -5    1.00    0.60
  -8  -3   5    0.80    0.60
  -8  -3   5    1.40    0.70
   7   3  -5   19.30    1.40
  -7  -3   5   19.20    1.40
  -7  -3   5   16.90    1.40
  -7  -3   5   17.90    1.40
   6   3  -5   75.99    3.50
  -6  -3   5   76.29    3.40
  -6  -3   5   67.69    3.90
  -6  -3   5   74.89    3.50
  -6  -3   5   77.49    3.50
   5   3  -5    9.80    1.00
  -5  -3   5   11.70    1.00
  -5  -3   5   11.30    1.00
  -5  -3   5   10.00    1.00
   4   3  -5    4.20    0.60
   4   3  -5    6.50    0.80
  -4  -3   5    6.70    0.80
  -4  -3   5    5.90    0.70
  -4  -3   5    7.50    0.80
  -4  -3   5    5.40    0.80
   3   3  -5   58.39    2.70
   3   3  -5   53.09    2.50
   3   3  -5   54.19    2.60
  -3  -3   5   50.89    2.60
  -3  -3   5   55.19    2.60
  -3  -3   5   55.89    2.50
   2   3  -5    1.40    0.40
   2   3  -5    2.50    0.60
   2   3  -5    1.60    0.50
  -2  -3   5    2.40    0.50
  -2  -3   5    1.90    0.40
  -2  -3   5    2.50    0.50
   1   3  -5    5.70    0.60
   1   3  -5    4.70    0.70
   1   3  -5    5.60    0.70
  -1  -3   5    6.30    0.70
  -1  -3   5    6.20    0.60
  -1  -3   5    5.90    0.70
   0   3  -5   11.60    0.80
   0   3  -5   11.90    0.90
   0   3  -5   10.30    0.80
   0  -3   5   10.70    0.90
   0  -3   5   10.20    0.90
   0  -3   5   10.60    0.80
  -1   3  -5    4.70    0.60
  -1   3  -5    7.30    0.70
  -1   3  -5    5.70    0.70
   1  -3   5    5.60    0.70
   1  -3   5    6.60    0.60
   1  -3   5    7.20    0.80
  -2   3  -5    1.50    0.40
  -2   3  -5    0.90    0.30
  -2   3  -5    1.20    0.40
   2  -3   5    0.70    0.30
   2  -3   5    1.20    0.40
   2  -3   5    0.20    0.40
  -3   3  -5   33.50    1.80
  -3   3  -5   34.00    1.70
  -3   3  -5   33.70    1.70
   3  -3   5   36.80    1.90
   3  -3   5   32.70    1.80
   3  -3   5   35.10    1.70
  -4   3  -5   76.19    3.40
  -4   3  -5   66.59    3.60
  -4   3  -5   79.79    3.40
  -4   3  -5   81.39    3.50
   4  -3   5   77.19    3.50
   4  -3   5   72.59    3.40
  -5   3  -5   85.89    3.80
  -5   3  -5   85.59    3.80
  -5   3  -5   81.99    3.70
   5  -3   5   88.69    3.90
   5  -3   5   74.69    3.70
  -6   3  -5   96.19    4.30
  -6   3  -5  100.09    4.40
  -6   3  -5   99.59    4.30
   6  -3   5   92.09    4.30
   6  -3   5  100.79    4.50
  -7   3  -5    3.20    0.70
  -7   3  -5    2.60    0.70
   7  -3   5    2.80    0.70
   7  -3   5    3.10    0.90
  -8   3  -5   84.29    3.90
  -8   3  -5   83.59    3.70
   8  -3   5   73.99    3.70
   8  -3   5   81.49    4.10
  -9   3  -5   12.00    1.40
  -9   3  -5   11.10    1.10
   9  -3   5   13.60    1.60
   9  -3   5   10.10    1.20
 -10   3  -5   32.50    1.90
 -10   3  -5   34.60    2.20
  10  -3   5   35.10    2.50
  10  -3   5   27.10    2.60
 -11   3  -5   16.70    1.70
 -11   3  -5   17.40    1.40
  11  -3   5   15.90    2.00
  11  -3   5   11.80    2.00
 -12   3  -5    9.10    1.50
 -12   3  -5    8.90    1.00
  12  -3   5   10.40    2.60
  12  -3   5    4.60    1.20
 -13   3  -5   12.60    1.30
 -13   3  -5   14.00    1.70
  13  -3   5   11.90    1.80
 -14   3  -5    7.80    1.10
 -14   3  -5   10.40    1.70
  14  -3   5    9.10    1.90
 -15   3  -5    4.90    1.70
  15  -3   5    4.40    1.70
 -14  -2   5    1.50    1.30
 -14  -2   5    3.30    1.60
  13   2  -5    0.80    0.70
 -13  -2   5    0.80    1.10
 -13  -2   5    0.00    1.20
  12   2  -5    0.40    0.70
 -12  -2   5    0.60    0.90
 -12  -2   5    2.00    1.00
  11   2  -5   14.50    1.50
  11   2  -5   15.40    1.30
 -11  -2   5   15.40    1.70
 -11  -2   5   14.90    1.70
  10   2  -5    1.20    0.60
  10   2  -5    0.90    0.80
 -10  -2   5    0.90    0.80
 -10  -2   5    0.70    0.80
   9   2  -5   11.00    1.10
  -9  -2   5   11.40    1.30
  -9  -2   5   11.40    1.20
  -9  -2   5   13.30    1.30
   8   2  -5   15.90    1.20
  -8  -2   5   15.60    1.30
  -8  -2   5   16.20    1.40
  -8  -2   5   15.40    1.40
   7   2  -5   35.80    1.90
  -7  -2   5   31.90    2.00
  -7  -2   5   35.80    1.90
  -7  -2   5   35.30    2.00
  -7  -2   5   33.20    2.00
   6   2  -5   42.20    2.10
  -6  -2   5   39.80    2.10
  -6  -2   5   39.20    2.10
  -6  -2   5   37.80    2.10
  -6  -2   5   39.10    2.10
   5   2  -5   20.50    1.30
   5   2  -5   20.30    1.30
  -5  -2   5   23.10    1.40
  -5  -2   5   21.20    1.30
  -5  -2   5   22.50    1.30
   4   2  -5  283.47   11.20
   4   2  -5  268.27   11.20
  -4  -2   5  276.47   11.20
  -4  -2   5  267.77   11.30
  -4  -2   5  285.47   11.20
   3   2  -5   76.39    3.40
   3   2  -5   73.39    3.30
   3   2  -5   75.49    3.40
  -3  -2   5   75.29    3.30
  -3  -2   5   77.39    3.30
   2   2  -5  158.08    6.60
   2   2  -5  167.18    6.70
   2   2  -5  156.28    6.60
  -2  -2   5  158.18    6.80
  -2  -2   5  164.58    6.60
  -2  -2   5  156.08    6.80
   1   2  -5   17.00    1.10
   1   2  -5   15.50    1.00
   1   2  -5   18.90    1.10
  -1  -2   5   19.70    1.00
  -1  -2   5   18.70    1.20
  -1  -2   5   18.40    1.10
   0   2  -5  181.08    7.70
   0   2  -5  187.68    7.60
   0   2  -5  191.18    7.80
   0  -2   5  195.78    7.70
   0  -2   5  186.68    7.80
   0  -2   5  190.48    7.60
  -1   2  -5  151.58    6.10
  -1   2  -5  147.29    6.20
  -1   2  -5  153.08    6.30
   1  -2   5  149.69    6.40
   1  -2   5  152.28    6.10
  -2   2  -5  186.48    8.20
  -2   2  -5  208.78    8.30
   2  -2   5  208.48    8.20
   2  -2   5  210.78    8.30
   2  -2   5  197.78    8.50
  -3   2  -5  179.38    7.60
  -3   2  -5  192.68    7.80
  -3   2  -5  198.48    7.70
  -3   2  -5  178.18    7.70
   3  -2   5  189.78    7.70
  -4   2  -5  118.79    4.90
  -4   2  -5  119.39    4.90
  -4   2  -5  105.69    4.80
  -4   2  -5  117.79    4.80
   4  -2   5  113.99    5.20
   4  -2   5  115.69    5.00
  -5   2  -5  159.38    6.40
  -5   2  -5  159.68    6.40
  -5   2  -5  155.68    6.40
  -5   2  -5  136.59    6.60
   5  -2   5  159.98    6.50
   5  -2   5  145.49    6.40
  -6   2  -5   61.89    2.90
  -6   2  -5   60.59    2.90
  -6   2  -5   60.79    2.90
   6  -2   5   63.09    3.10
   6  -2   5   59.59    2.80
  -7   2  -5   57.39    2.80
  -7   2  -5   59.49    2.90
  -7   2  -5   57.19    2.70
   7  -2   5   53.89    2.90
   7  -2   5   53.59    2.70
  -8   2  -5   10.90    1.00
   8  -2   5   11.40    1.40
   8  -2   5   10.30    1.00
  -9   2  -5    9.80    1.10
  -9   2  -5    8.00    0.90
   9  -2   5    7.50    1.30
   9  -2   5    7.00    0.90
 -10   2  -5   -0.40    0.60
 -10   2  -5    0.20    0.70
  10  -2   5   -0.60    0.90
  10  -2   5   -0.10    0.60
 -11   2  -5   24.90    1.90
 -11   2  -5   22.70    1.50
  11  -2   5   22.40    2.20
  11  -2   5   22.70    1.60
 -12   2  -5   12.30    1.20
 -12   2  -5   13.80    1.60
  12  -2   5    8.50    1.20
  12  -2   5   13.00    1.80
 -13   2  -5    6.40    0.90
 -13   2  -5    5.80    1.70
  13  -2   5    6.20    1.20
  13  -2   5    6.30    1.60
 -14   2  -5    4.30    1.40
 -14   2  -5    4.80    0.90
  14  -2   5    3.30    1.50
 -15   2  -5   -0.10    1.20
  15  -2   5    1.60    1.60
 -16   2  -5    0.10    1.50
 -15  -1   5    4.30    1.50
 -15  -1   5    3.20    1.60
 -14  -1   5    7.60    1.70
 -14  -1   5   11.30    1.80
 -13  -1   5    3.70    1.40
 -13  -1   5    2.30    1.10
  12   1  -5   20.20    1.40
 -12  -1   5   21.40    2.10
 -12  -1   5   24.30    2.10
  11   1  -5   19.40    1.40
  11   1  -5   19.90    1.20
 -11  -1   5   21.70    1.90
 -11  -1   5   21.60    1.90
  10   1  -5    9.30    0.90
  10   1  -5    8.70    0.90
 -10  -1   5    9.70    1.40
 -10  -1   5   10.20    1.30
   9   1  -5   17.40    1.10
  -9  -1   5   13.70    1.60
  -9  -1   5   15.90    1.40
   8   1  -5   26.30    1.40
  -8  -1   5   21.60    1.50
  -8  -1   5   21.00    1.90
  -8  -1   5   20.40    1.40
   7   1  -5   87.99    3.70
  -7  -1   5   86.59    4.00
  -7  -1   5   82.19    3.90
  -7  -1   5   86.39    3.80
   6   1  -5    3.40    0.50
  -6  -1   5    4.30    0.60
  -6  -1   5    3.50    0.70
  -6  -1   5    4.20    0.70
  -6  -1   5    4.00    0.80
   5   1  -5   12.90    0.90
   5   1  -5   12.00    1.00
  -5  -1   5   11.70    1.00
  -5  -1   5   11.60    0.90
  -5  -1   5   11.80    1.10
  -5  -1   5   11.60    0.90
   4   1  -5    1.40    0.40
   4   1  -5    1.30    0.40
  -4  -1   5    1.00    0.40
  -4  -1   5    1.20    0.40
  -4  -1   5    0.80    0.40
  -4  -1   5    1.60    0.50
   3   1  -5  275.97   11.30
   3   1  -5  290.77   11.40
   3   1  -5  277.27   11.50
  -3  -1   5  271.57   11.40
  -3  -1   5  283.57   11.40
  -3  -1   5  296.37   11.40
   2   1  -5  187.68    7.60
   2   1  -5  184.78    7.60
   2   1  -5  179.18    7.40
  -2  -1   5  192.08    7.50
  -2  -1   5  176.78    7.50
  -2  -1   5  183.78    7.40
   1   1  -5   11.10    0.70
   1   1  -5    9.40    0.60
   1   1  -5    9.10    0.70
  -1  -1   5    9.00    0.70
  -1  -1   5    9.80    0.60
  -1  -1   5    7.90    0.70
   0   1  -5    4.90    0.60
   0   1  -5    5.20    0.40
   0   1  -5    4.70    0.60
   0  -1   5    4.70    0.50
   0  -1   5    5.10    0.50
   0  -1   5    4.70    0.40
  -1   1  -5   20.80    1.20
  -1   1  -5   19.80    1.10
  -1   1  -5   21.20    1.00
   1  -1   5   22.80    1.20
   1  -1   5   20.80    1.00
   1  -1   5   21.80    1.10
  -2   1  -5    1.10    0.30
  -2   1  -5    1.20    0.40
  -2   1  -5    1.90    0.30
   2  -1   5    1.20    0.30
   2  -1   5    0.70    0.30
   2  -1   5    0.70    0.30
  -3   1  -5   42.00    1.90
  -3   1  -5   42.50    1.90
  -3   1  -5   42.50    2.00
  -3   1  -5   42.90    2.10
   3  -1   5   41.80    2.00
   3  -1   5   45.30    2.10
  -4   1  -5   61.19    2.60
  -4   1  -5   57.89    2.70
  -4   1  -5   54.39    2.70
  -4   1  -5   58.49    2.60
   4  -1   5   61.69    2.70
   4  -1   5   64.59    2.80
  -5   1  -5   12.40    0.90
  -5   1  -5   10.00    0.90
  -5   1  -5   11.70    0.90
  -5   1  -5   12.60    0.90
   5  -1   5   12.20    0.90
   5  -1   5   12.60    1.00
  -6   1  -5  370.76   15.00
  -6   1  -5  373.16   15.10
  -6   1  -5  386.26   15.10
   6  -1   5  361.26   15.10
   6  -1   5  386.46   15.20
  -7   1  -5    5.70    0.80
  -7   1  -5    6.10    0.80
   7  -1   5    7.70    1.20
   7  -1   5    6.50    0.80
  -8   1  -5   54.69    2.70
  -8   1  -5   54.69    2.60
   8  -1   5   55.29    2.60
   8  -1   5   56.69    2.90
  -9   1  -5   27.10    1.60
  -9   1  -5   24.50    1.50
   9  -1   5   21.00    1.40
   9  -1   5   23.50    1.90
 -10   1  -5   16.30    1.30
 -10   1  -5   15.20    1.40
  10  -1   5   15.60    1.70
  10  -1   5   16.90    1.20
 -11   1  -5   17.90    1.30
 -11   1  -5   17.50    1.60
  11  -1   5   12.90    1.30
  11  -1   5   18.80    2.00
 -12   1  -5    1.10    0.90
 -12   1  -5    1.40    0.70
  12  -1   5    1.40    0.80
  12  -1   5    0.90    1.10
 -13   1  -5    7.70    1.00
 -13   1  -5   10.40    1.40
  13  -1   5    7.90    1.20
  13  -1   5    9.40    1.70
 -14   1  -5    4.10    0.90
 -14   1  -5    2.00    1.20
  14  -1   5    3.10    1.40
 -15   1  -5    4.00    1.30
  15  -1   5    4.30    1.60
 -16   1  -5    1.10    1.50
  16  -1   5    3.80    1.90
 -15   0   5    2.20    1.70
 -15   0   5    2.40    1.50
 -14   0   5    1.20    1.40
 -14   0   5    2.70    1.30
 -13   0   5    2.60    1.40
 -13   0   5    2.80    1.20
 -12   0   5   19.80    2.10
 -11   0   5   36.00    2.50
 -11   0   5   35.30    2.40
  10   0  -5   41.80    1.90
  10   0  -5   39.20    1.90
 -10   0   5   43.60    2.50
 -10   0   5   42.80    2.70
   9   0  -5   28.80    1.50
  -9   0   5   28.70    1.90
  -9   0   5   33.00    2.10
  -8   0   5   45.10    2.20
  -8   0   5   47.50    2.50
  -8   0   5   46.90    2.60
   7   0  -5   58.69    2.60
  -7   0   5   60.29    3.00
  -7   0   5   55.99    2.90
  -7   0   5   53.99    2.60
   6   0  -5   60.09    3.00
   6   0  -5   70.19    2.90
  -6   0   5   66.19    3.10
  -6   0   5   64.79    3.00
  -6   0   5   61.19    2.80
  -6   0   5   62.89    3.10
   5   0  -5  140.59    5.60
  -5   0   5  129.59    5.60
  -5   0   5  131.49    5.80
  -5   0   5  135.79    5.80
  -5   0   5  138.99    5.70
   4   0  -5   94.59    4.10
   4   0  -5   95.59    4.10
  -4   0   5   96.49    4.10
  -4   0   5   95.59    4.30
  -4   0   5   98.49    4.10
  -4   0   5   96.69    4.20
   3   0  -5   70.89    3.00
   3   0  -5   72.89    3.00
  -3   0   5   67.19    3.00
  -3   0   5   68.39    3.20
  -3   0   5   66.29    3.10
  -3   0   5   69.89    3.00
   2   0  -5  592.04   23.00
   2   0  -5  575.24   23.20
   2   0  -5  609.84   23.10
  -2   0   5  572.94   23.00
  -2   0   5  586.54   23.10
  -2   0   5  563.34   23.10
   1   0  -5    0.20    0.30
   1   0  -5    0.50    0.30
   1   0  -5    0.40    0.20
  -1   0   5    0.00    0.30
  -1   0   5    0.50    0.30
   0   0  -5    7.00    0.40
   0   0  -5    7.80    0.60
   0   0  -5    8.40    0.60
   0   0   5    6.90    0.60
   0   0   5    6.90    0.40
   0   0   5    6.60    0.60
  -1   0  -5    4.00    0.30
  -1   0  -5    3.90    0.50
  -1   0  -5    4.60    0.60
   1   0   5    4.00    0.30
   1   0   5    3.80    0.50
   1   0   5    4.40    0.50
  -2   0  -5    0.70    0.20
  -2   0  -5    0.10    0.20
  -2   0  -5    0.20    0.20
  -2   0  -5    0.30    0.20
   2   0   5    1.40    0.30
   2   0   5    1.00    0.30
  -3   0  -5   41.30    1.90
  -3   0  -5   38.30    1.90
  -3   0  -5   41.80    1.80
   3   0   5   38.80    1.90
   3   0   5   40.60    1.90
  -4   0  -5    5.60    0.70
  -4   0  -5    5.10    0.60
  -4   0  -5    4.40    0.50
  -4   0  -5    4.90    0.50
   4   0   5    4.30    0.60
   4   0   5    3.90    0.50
  -5   0  -5  125.29    5.20
  -5   0  -5  123.29    5.20
  -5   0  -5  124.29    5.10
   5   0   5  121.49    5.10
   5   0   5  118.09    5.20
   5   0   5  126.99    5.30
  -6   0  -5   89.99    4.10
  -6   0  -5   98.69    4.20
  -6   0  -5   97.19    4.10
   6   0   5   96.79    4.20
   6   0   5  101.09    4.30
   6   0   5   95.99    4.20
  -7   0  -5   15.80    1.10
  -7   0  -5   15.00    1.10
   7   0   5   17.10    1.30
   7   0   5   14.90    1.00
   7   0   5   11.60    1.00
  -8   0  -5    2.40    0.60
   8   0   5    1.40    0.70
  -9   0  -5   13.30    1.10
   9   0   5   12.90    1.40
   9   0   5   13.40    1.00
 -10   0  -5    5.30    0.90
 -10   0  -5    3.30    0.70
  10   0   5    3.70    0.70
  10   0   5    2.80    1.00
 -11   0  -5    1.20    0.60
 -11   0  -5    1.30    0.80
  11   0   5    0.00    0.60
  11   0   5    0.00    0.80
 -12   0  -5    3.30    1.00
 -12   0  -5    1.50    0.80
  12   0   5    1.80    0.80
  12   0   5    2.90    1.20
 -13   0  -5    0.80    0.80
 -13   0  -5   -0.30    0.90
  13   0   5    1.10    1.20
  13   0   5   -0.10    0.90
 -14   0  -5    9.10    1.50
 -14   0  -5   11.80    1.30
  14   0   5   11.50    1.90
 -15   0  -5    3.40    1.30
  15   0   5    4.40    1.40
 -16   0  -5    2.80    1.50
  16   0   5    3.10    1.80
 -15   1   5    5.20    1.50
 -15   1   5    7.10    1.90
 -14   1   5    3.00    1.20
 -13   1   5    0.30    1.00
  12  -1  -5    1.80    1.00
 -12   1   5    3.30    1.40
  11  -1  -5   31.20    2.30
 -11   1   5   30.50    2.20
  10  -1  -5    1.10    0.80
 -10   1   5    2.80    0.90
   9  -1  -5    3.00    0.90
   9  -1  -5    3.30    0.40
   9  -1  -5    3.30    0.40
  -9   1   5    2.90    0.80
   8  -1  -5   10.80    1.20
  -8   1   5   10.50    1.10
  -8   1   5    9.50    0.80
   7  -1  -5   14.90    0.80
  -7   1   5   15.40    0.90
  -7   1   5   13.40    1.10
   6  -1  -5    1.60    0.50
   6  -1  -5    1.70    0.30
  -6   1   5    1.20    0.40
  -6   1   5    1.50    0.60
  -6   1   5    1.30    0.40
  -6   1   5    1.70    0.60
   5  -1  -5   35.70    1.80
   5  -1  -5   38.40    1.70
  -5   1   5   34.10    1.70
  -5   1   5   36.00    2.00
  -5   1   5   34.10    2.00
  -5   1   5   36.20    1.80
   4  -1  -5   68.19    2.90
   4  -1  -5   67.09    3.00
  -4   1   5   70.29    3.20
  -4   1   5   68.49    3.00
  -4   1   5   69.09    3.00
  -4   1   5   69.49    3.20
   3  -1  -5   95.79    4.10
   3  -1  -5  101.39    4.10
  -3   1   5   96.39    4.30
  -3   1   5   95.69    4.10
  -3   1   5   98.29    4.30
  -3   1   5   99.99    4.10
   2  -1  -5  301.27   12.00
   2  -1  -5  290.37   11.80
   2  -1  -5  300.57   11.90
  -2   1   5  292.07   11.90
  -2   1   5  301.77   11.80
  -2   1   5  303.37   12.00
   1  -1  -5    2.70    0.40
   1  -1  -5    3.10    0.50
  -1   1   5    1.30    0.20
  -1   1   5    1.50    0.30
  -1   1   5    1.30    0.30
   0  -1  -5    8.00    0.60
   0  -1  -5    7.90    0.40
   0  -1  -5    6.60    0.60
   0   1   5    8.30    0.40
   0   1   5    9.00    0.60
   0   1   5    8.40    0.60
  -1  -1  -5    8.60    0.60
  -1  -1  -5    8.20    0.60
   1   1   5    8.70    0.60
   1   1   5    9.70    0.70
  -2  -1  -5   43.70    1.80
  -2  -1  -5   43.30    2.00
  -2  -1  -5   45.40    1.80
  -2  -1  -5   46.70    2.10
   2   1   5   40.70    2.00
   2   1   5   44.70    2.00
  -3  -1  -5   16.70    1.00
  -3  -1  -5   17.90    1.00
  -3  -1  -5   16.80    0.80
   3   1   5   16.30    1.00
   3   1   5   18.30    1.00
   3   1   5   16.80    0.80
  -4  -1  -5    0.80    0.30
  -4  -1  -5    0.70    0.30
  -4  -1  -5    0.80    0.30
   4   1   5    1.50    0.40
  -5  -1  -5  234.98    9.40
  -5  -1  -5  221.08    9.40
  -5  -1  -5  233.88    9.50
   5   1   5  229.08    9.40
   5   1   5  245.78    9.50
   5   1   5  233.38    9.50
  -6  -1  -5  804.32   31.10
  -6  -1  -5  751.12   31.00
  -6  -1  -5  805.22   31.00
   6   1   5  778.32   31.00
   6   1   5  805.82   31.10
   6   1   5  767.12   31.00
  -7  -1  -5   19.80    1.30
  -7  -1  -5   22.50    1.30
  -7  -1  -5   20.60    1.30
   7   1   5   21.90    1.30
   7   1   5   22.80    1.50
  -8  -1  -5   11.40    1.00
  -8  -1  -5   10.10    0.90
   8   1   5   10.00    1.00
   8   1   5   10.60    1.10
  -9  -1  -5   28.30    1.60
  -9  -1  -5   29.90    1.90
   9   1   5   28.00    1.90
   9   1   5   26.30    1.50
 -10  -1  -5   30.50    1.70
 -10  -1  -5   27.50    1.80
  10   1   5   25.00    1.60
  10   1   5   31.40    2.00
 -11  -1  -5    8.60    1.20
 -11  -1  -5    8.60    1.00
  11   1   5   10.30    1.40
  11   1   5    7.40    0.90
 -12  -1  -5    2.90    0.80
 -12  -1  -5    3.20    1.00
  12   1   5    4.30    1.20
  12   1   5    1.50    0.80
 -13  -1  -5    3.60    1.10
 -13  -1  -5    4.80    0.90
  13   1   5    5.70    1.40
  13   1   5    4.40    1.00
 -14  -1  -5    2.30    1.20
  14   1   5   -0.60    1.20
 -15  -1  -5    0.00    1.20
  15   1   5    0.10    1.00
  15   1   5    3.00    1.50
 -16  -1  -5    2.50    1.40
  16   1   5    1.20    1.60
  15  -2  -5    1.60    1.40
 -15   2   5    4.40    1.40
  14  -2  -5   -1.00    1.20
 -14   2   5    2.00    1.20
  13  -2  -5    2.10    1.20
 -13   2   5    1.60    1.10
  12  -2  -5   24.90    2.20
 -12   2   5   24.40    2.30
  11  -2  -5    0.50    0.90
 -11   2   5    0.80    0.80
  10  -2  -5    2.40    0.90
 -10   2   5    3.20    0.90
   9  -2  -5   24.20    1.90
  -9   2   5   26.30    1.70
   8  -2  -5   49.40    2.70
  -8   2   5   49.90    2.60
   7  -2  -5   82.89    3.30
  -7   2   5   76.89    3.40
  -7   2   5   82.69    3.70
   6  -2  -5   16.10    1.20
   6  -2  -5   16.30    1.10
  -6   2   5   14.90    0.80
  -6   2   5   15.20    1.10
   5  -2  -5   82.19    3.40
   5  -2  -5   76.79    3.50
  -5   2   5   83.59    3.60
  -5   2   5   81.69    3.40
  -5   2   5   76.99    3.70
   4  -2  -5   26.10    1.40
   4  -2  -5   27.90    1.30
  -4   2   5   27.30    1.60
  -4   2   5   26.90    1.40
  -4   2   5   24.90    1.30
   3  -2  -5   70.19    3.00
   3  -2  -5   69.99    3.00
  -3   2   5   73.79    3.30
  -3   2   5   74.09    3.30
  -3   2   5   72.49    3.00
  -3   2   5   68.19    3.00
   2  -2  -5  144.59    5.90
   2  -2  -5  145.29    5.80
  -2   2   5  148.69    6.10
  -2   2   5  139.29    5.90
  -2   2   5  147.59    5.80
  -2   2   5  137.69    6.00
   1  -2  -5    1.80    0.20
   1  -2  -5    2.20    0.40
   1  -2  -5    2.00    0.40
  -1   2   5    0.30    0.20
  -1   2   5    1.10    0.20
  -1   2   5    1.00    0.30
   0  -2  -5   73.19    3.20
   0  -2  -5   73.49    3.10
   0   2   5   75.09    3.20
   0   2   5   71.19    3.10
  -1  -2  -5   13.60    0.80
  -1  -2  -5   15.00    0.90
   1   2   5   14.90    0.80
   1   2   5   12.20    0.80
  -2  -2  -5   12.80    0.80
  -2  -2  -5   12.90    0.60
  -2  -2  -5   12.70    0.80
   2   2   5   12.70    0.80
   2   2   5   12.70    0.60
   2   2   5   12.10    0.80
  -3  -2  -5   -0.20    0.20
  -3  -2  -5    0.50    0.20
  -3  -2  -5    0.40    0.30
   3   2   5    0.20    0.30
   3   2   5    0.50    0.30
   3   2   5    0.40    0.20
  -4  -2  -5   26.50    1.40
  -4  -2  -5   22.30    1.20
  -4  -2  -5   25.20    1.20
   4   2   5   24.00    1.30
   4   2   5   22.90    1.10
   4   2   5   25.10    1.30
  -5  -2  -5    4.70    0.60
  -5  -2  -5    3.80    0.50
  -5  -2  -5    4.40    0.50
   5   2   5    3.90    0.60
   5   2   5    3.90    0.50
   5   2   5    4.80    0.60
  -6  -2  -5   60.19    2.70
  -6  -2  -5   58.69    2.80
  -6  -2  -5   61.99    2.70
   6   2   5   62.29    2.80
   6   2   5   57.89    2.70
   6   2   5   57.69    2.70
  -7  -2  -5   59.59    2.70
  -7  -2  -5   62.19    2.70
  -7  -2  -5   54.89    2.60
   7   2   5   56.39    2.70
   7   2   5   58.09    2.70
   7   2   5   52.29    2.80
  -8  -2  -5   31.00    1.70
  -8  -2  -5   30.90    1.70
  -8  -2  -5   29.30    1.70
   8   2   5   34.40    1.90
   8   2   5   30.50    1.70
   8   2   5   30.30    1.70
  -9  -2  -5   11.30    1.10
  -9  -2  -5   13.50    1.10
   9   2   5   12.50    1.30
   9   2   5   11.00    1.00
 -10  -2  -5   55.79    2.80
 -10  -2  -5   56.29    2.70
  10   2   5   50.49    2.60
  10   2   5   58.29    3.00
 -11  -2  -5   32.00    2.00
 -11  -2  -5   32.60    1.90
  11   2   5   33.00    2.20
  11   2   5   26.00    1.80
 -12  -2  -5   22.30    1.60
 -12  -2  -5   20.00    1.80
  12   2   5   21.40    2.00
  12   2   5   16.40    1.60
 -13  -2  -5   36.50    2.50
 -13  -2  -5   38.10    2.20
  13   2   5   39.40    2.80
 -14  -2  -5   14.30    1.80
  14   2   5   12.90    1.80
 -15  -2  -5    8.70    1.60
  15   2   5    6.40    1.20
  15   2   5   11.20    2.00
 -16  -2  -5    5.90    1.50
  16   2   5    4.20    1.80
  15  -3  -5   -0.60    1.40
 -15   3   5    1.40    1.30
  14  -3  -5   -0.40    1.20
 -14   3   5    0.30    1.10
  13  -3  -5   -1.50    1.00
 -13   3   5   -0.50    1.00
  12  -3  -5    2.30    1.00
  11  -3  -5    8.40    1.30
 -11   3   5    8.30    1.30
  10  -3  -5   33.10    2.30
 -10   3   5   30.70    2.10
   9  -3  -5   14.70    1.50
  -9   3   5   14.40    1.30
   8  -3  -5    2.40    0.80
  -8   3   5    2.60    0.70
   7  -3  -5    2.00    0.70
  -7   3   5    2.00    0.60
   6  -3  -5   24.70    1.10
   6  -3  -5   24.20    1.60
   6  -3  -5   21.30    1.40
  -6   3   5   22.40    1.40
  -6   3   5   23.30    1.10
   5  -3  -5    4.60    0.70
   5  -3  -5    5.00    0.80
  -5   3   5    3.90    0.40
  -5   3   5    6.10    0.80
  -5   3   5    5.00    0.70
   4  -3  -5   82.49    3.40
   4  -3  -5   77.59    3.50
   4  -3  -5   81.79    3.70
  -4   3   5   81.09    3.50
  -4   3   5   78.99    3.30
  -4   3   5   78.09    3.70
   3  -3  -5   83.79    3.70
   3  -3  -5   86.29    3.70
  -3   3   5   90.29    3.90
  -3   3   5   88.69    3.60
  -3   3   5   86.19    3.90
  -3   3   5   88.59    3.70
   2  -3  -5  269.57   10.70
   2  -3  -5  265.97   10.70
  -2   3   5  265.07   10.70
  -2   3   5  269.17   10.90
  -2   3   5  276.47   10.90
  -2   3   5  262.07   10.70
   1  -3  -5  133.39    5.60
  -1   3   5  141.99    5.60
  -1   3   5  132.39    5.60
  -1   3   5  139.09    5.70
  -1   3   5  135.79    5.50
  -1   3   5  132.69    5.70
   0  -3  -5  138.39    5.70
   0  -3  -5  138.19    5.80
   0   3   5  137.69    5.70
   0   3   5  136.89    5.50
   0   3   5  139.59    5.70
   0   3   5  140.69    5.50
  -1  -3  -5  239.58    9.50
  -1  -3  -5  231.48    9.50
  -1  -3  -5  235.98    9.30
   1   3   5  231.88    9.50
   1   3   5  235.68    9.40
   1   3   5  236.58    9.30
  -2  -3  -5   40.80    1.90
  -2  -3  -5   39.90    1.80
  -2  -3  -5   39.90    1.70
   2   3   5   41.90    1.70
   2   3   5   41.70    1.80
   2   3   5   38.20    1.90
  -3  -3  -5   85.69    3.70
  -3  -3  -5   89.39    3.60
  -3  -3  -5   91.09    3.90
   3   3   5   87.99    3.80
   3   3   5   92.19    3.70
  -4  -3  -5   92.39    3.70
  -4  -3  -5   86.79    3.70
  -4  -3  -5   91.99    3.90
   4   3   5   90.09    3.70
   4   3   5   86.29    3.80
   4   3   5   86.29    3.70
  -5  -3  -5  187.08    7.40
  -5  -3  -5  182.58    7.60
  -5  -3  -5  178.78    7.40
   5   3   5  191.68    7.40
   5   3   5  176.28    7.40
   5   3   5  179.08    7.50
  -6  -3  -5    6.50    0.70
  -6  -3  -5    7.50    0.80
  -6  -3  -5    6.50    0.70
   6   3   5    7.90    0.70
   6   3   5    6.80    0.80
   6   3   5    7.00    0.80
  -7  -3  -5    5.60    0.80
  -7  -3  -5    5.90    0.70
  -7  -3  -5    5.70    0.80
   7   3   5    5.90    0.80
   7   3   5    4.80    0.70
  -8  -3  -5    0.50    0.50
  -8  -3  -5    0.10    0.50
  -8  -3  -5    0.00    0.40
   8   3   5    0.50    0.50
   8   3   5    0.60    0.50
   8   3   5   -0.20    0.50
  -9  -3  -5   32.80    1.90
  -9  -3  -5   29.20    1.80
   9   3   5   33.00    1.80
   9   3   5   35.90    2.00
 -10  -3  -5   -0.40    0.60
 -10  -3  -5    0.50    0.60
  10   3   5    1.20    0.90
  10   3   5   -0.70    0.60
 -11  -3  -5    1.20    0.70
 -11  -3  -5    0.60    0.70
  11   3   5    0.90    0.80
 -12  -3  -5   -0.90    0.80
 -12  -3  -5    0.20    0.80
  12   3   5   -0.60    0.90
 -13  -3  -5    0.70    1.00
  13   3   5    0.80    1.20
 -14  -3  -5   -0.10    1.10
  14   3   5   -1.30    1.20
  14   3   5    0.10    1.20
 -15  -3  -5    0.80    1.20
  15   3   5   -0.30    1.30
  15   3   5    0.40    1.40
 -16  -3  -5    3.40    1.50
  16   3   5    1.20    1.70
  15  -4  -5    2.50    1.60
 -15   4   5    1.90    1.30
  14  -4  -5    3.10    1.50
 -14   4   5    3.30    1.40
  13  -4  -5    2.50    1.30
 -13   4   5    3.80    1.20
  12  -4  -5    6.10    1.60
 -12   4   5    5.90    1.40
  11  -4  -5   21.40    2.00
 -11   4   5   18.20    1.70
  10  -4  -5   47.30    3.00
 -10   4   5   48.90    2.80
   9  -4  -5   17.00    1.60
  -9   4   5   15.70    1.40
   8  -4  -5   12.40    1.40
  -8   4   5   15.30    1.30
   7  -4  -5   38.20    2.30
   6  -4  -5   11.50    1.00
   6  -4  -5   11.10    0.60
   6  -4  -5   12.00    1.90
  -6   4   5   11.90    1.00
  -6   4   5   10.50    0.60
   5  -4  -5    7.00    0.80
   5  -4  -5    7.10    0.90
  -5   4   5    7.80    0.90
  -5   4   5    6.50    0.50
  -5   4   5    7.10    1.40
   4  -4  -5    5.80    0.50
   4  -4  -5    7.60    0.90
   4  -4  -5    7.10    0.70
  -4   4   5    6.30    0.80
  -4   4   5    5.40    0.50
  -4   4   5    6.20    0.60
   3  -4  -5  201.28    8.20
   3  -4  -5  199.58    7.90
  -3   4   5  196.48    8.00
  -3   4   5  189.48    7.90
  -3   4   5  193.48    8.30
   2  -4  -5  245.58    9.90
  -2   4   5  250.27    9.90
  -2   4   5  240.68    9.90
  -2   4   5  242.78   10.10
  -2   4   5  253.67    9.90
  -2   4   5  245.88   10.10
   1  -4  -5   35.00    1.70
  -1   4   5   35.60    1.80
  -1   4   5   34.90    1.60
  -1   4   5   35.80    1.60
  -1   4   5   35.70    1.80
  -1   4   5   34.40    1.70
   0  -4  -5  296.57   11.70
   0  -4  -5  300.17   11.90
   0   4   5  294.17   11.70
   0   4   5  292.87   11.90
   0   4   5  291.97   11.90
   0   4   5  304.67   12.00
  -1  -4  -5    2.40    0.30
  -1  -4  -5    2.00    0.40
  -1  -4  -5    2.70    0.40
   1   4   5    1.50    0.30
   1   4   5    2.70    0.40
  -2  -4  -5   60.19    2.60
  -2  -4  -5   60.89    2.80
  -2  -4  -5   59.89    2.60
   2   4   5   57.79    2.70
   2   4   5   58.49    2.50
   2   4   5   63.79    2.60
  -3  -4  -5   67.19    2.90
  -3  -4  -5   67.09    2.90
  -3  -4  -5   69.29    3.10
   3   4   5   66.29    2.90
   3   4   5   71.09    2.90
   3   4   5   69.09    3.10
  -4  -4  -5  144.99    6.00
  -4  -4  -5  140.79    5.80
  -4  -4  -5  144.99    5.80
   4   4   5  142.29    5.80
   4   4   5  142.09    5.80
   4   4   5  141.99    6.00
  -5  -4  -5  236.58    9.10
  -5  -4  -5  223.68    9.20
  -5  -4  -5  218.38    9.00
   5   4   5  220.18    9.30
   5   4   5  214.68    9.00
   5   4   5  228.78    9.00
  -6  -4  -5  104.89    4.70
  -6  -4  -5  115.29    4.60
  -6  -4  -5  105.89    4.50
   6   4   5  103.49    4.60
   6   4   5  107.49    4.70
   6   4   5  112.19    4.60
  -7  -4  -5   88.99    3.90
  -7  -4  -5   91.99    4.20
  -7  -4  -5   97.29    4.10
   7   4   5   91.79    4.10
   7   4   5   97.69    4.10
   7   4   5   89.49    4.10
  -8  -4  -5   31.40    1.80
  -8  -4  -5   31.40    1.70
  -8  -4  -5   26.30    1.50
   8   4   5   29.00    1.70
   8   4   5   29.00    1.70
  -9  -4  -5    3.10    0.70
  -9  -4  -5    3.60    0.70
  -9  -4  -5    3.20    0.60
   9   4   5    1.60    0.70
 -10  -4  -5   68.49    3.40
 -10  -4  -5   67.99    3.40
  10   4   5   71.49    3.40
 -11  -4  -5   23.60    1.80
  11   4   5   24.00    2.10
 -12  -4  -5    9.00    1.40
  12   4   5   11.20    1.40
 -13  -4  -5    9.60    1.50
  13   4   5   10.90    1.30
  13   4   5    7.50    1.30
 -14  -4  -5    5.00    1.30
  14   4   5    5.70    1.20
  14   4   5    6.20    1.50
 -15  -4  -5    2.20    1.30
  15   4   5   -0.70    1.20
  15   4   5   -0.30    1.40
 -16  -4  -5    2.10    1.40
  16   4   5    1.50    1.50
  14  -5  -5    0.60    1.30
 -14   5   5    0.00    1.10
  13  -5  -5    1.50    1.10
 -13   5   5    0.90    1.00
  12  -5  -5    5.10    1.20
 -12   5   5    4.80    1.10
  11  -5  -5    9.80    1.60
 -11   5   5   11.00    1.40
  10  -5  -5   29.40    2.30
 -10   5   5   29.70    2.10
   9  -5  -5    3.00    1.00
  -9   5   5    4.20    0.80
   8  -5  -5  237.48   10.10
  -8   5   5  233.48    9.90
   7  -5  -5   76.69    3.90
  -7   5   5   81.89    3.70
   6  -5  -5  130.29    5.90
  -6   5   5  132.49    5.70
  -6   5   5  129.59    5.40
   5  -5  -5   80.49    3.80
  -5   5   5   78.39    3.30
  -5   5   5   82.59    3.60
   4  -5  -5   13.10    1.10
   4  -5  -5   14.30    0.80
  -4   5   5   11.50    1.10
  -4   5   5   12.60    0.80
  -4   5   5   12.10    0.90
  -4   5   5   12.20    1.00
   3  -5  -5  336.57   13.20
   3  -5  -5  330.27   13.40
  -3   5   5  333.67   13.20
  -3   5   5  331.47   13.30
  -3   5   5  322.67   13.20
  -3   5   5  326.57   13.40
   2  -5  -5  168.38    6.80
   2  -5  -5  162.38    6.90
  -2   5   5  161.78    6.80
  -2   5   5  166.78    7.00
  -2   5   5  166.58    6.80
  -2   5   5  169.08    6.80
   1  -5  -5   11.30    0.80
  -1   5   5   12.70    0.80
  -1   5   5   11.40    0.90
  -1   5   5   12.80    0.90
  -1   5   5   11.60    0.70
   0  -5  -5   17.70    1.10
   0  -5  -5   15.80    0.90
   0   5   5   16.40    1.00
   0   5   5   15.90    1.00
   0   5   5   14.60    0.80
   0   5   5   16.80    1.00
  -1  -5  -5  244.08   10.00
  -1  -5  -5  242.58    9.80
   1   5   5  251.17    9.90
   1   5   5  243.28    9.80
   1   5   5  244.18    9.90
   1   5   5  248.58   10.00
  -2  -5  -5  153.58    6.20
  -2  -5  -5  146.39    6.30
  -2  -5  -5  152.88    6.10
   2   5   5  145.49    6.10
   2   5   5  147.79    6.30
   2   5   5  155.68    6.10
  -3  -5  -5   46.50    2.00
  -3  -5  -5   46.70    2.00
  -3  -5  -5   45.00    2.20
   3   5   5   42.30    2.00
   3   5   5   45.30    2.00
   3   5   5   44.90    2.20
  -4  -5  -5  271.57   10.70
  -4  -5  -5  271.97   10.80
  -4  -5  -5  264.97   11.00
   4   5   5  262.57   11.00
   4   5   5  280.67   10.70
   4   5   5  254.47   10.70
  -5  -5  -5   78.39    3.30
  -5  -5  -5   75.89    3.60
  -5  -5  -5   83.09    3.50
   5   5   5   83.19    3.30
   5   5   5   77.79    3.40
   5   5   5   76.19    3.60
  -6  -5  -5    3.50    0.50
  -6  -5  -5    4.70    0.70
  -6  -5  -5    3.10    0.70
   6   5   5    4.30    0.50
   6   5   5    3.70    0.70
  -7  -5  -5   34.20    1.80
  -7  -5  -5   31.30    1.90
  -7  -5  -5   32.20    1.60
   7   5   5   33.40    1.70
   7   5   5   30.20    1.80
   7   5   5   31.30    1.70
  -8  -5  -5   25.30    1.40
  -8  -5  -5   27.90    1.70
  -8  -5  -5   27.80    1.80
   8   5   5   29.10    1.60
  -9  -5  -5   25.20    1.70
  -9  -5  -5   25.20    1.80
   9   5   5   25.00    1.50
 -10  -5  -5   20.00    1.50
 -10  -5  -5   21.40    1.60
 -10  -5  -5   16.90    1.30
  10   5   5   19.60    1.50
 -11  -5  -5   26.70    1.90
  11   5   5   28.40    1.90
 -12  -5  -5   10.00    1.40
  12   5   5   13.80    1.60
  12   5   5   11.60    1.40
 -13  -5  -5    3.00    1.10
  13   5   5    6.10    1.30
  13   5   5    4.80    1.20
 -14  -5  -5   10.70    1.60
  14   5   5   11.70    1.60
  14   5   5    6.90    1.50
 -15  -5  -5    2.50    1.30
  15   5   5    2.70    1.50
  15   5   5    2.70    1.50
 -16  -5  -5    0.70    1.50
  16   5   5   -1.90    1.60
  16   5   5    0.80    1.50
  14  -6  -5    3.10    1.50
 -14   6   5    1.90    1.30
  13  -6  -5   12.90    2.10
 -13   6   5   13.50    1.80
  12  -6  -5    4.10    1.20
 -12   6   5    5.70    1.20
 -11   6   5   16.90    1.70
  10  -6  -5   37.70    2.70
 -10   6   5   44.60    2.60
   9  -6  -5    3.10    0.90
  -9   6   5    2.40    0.80
   8  -6  -5    2.00    0.90
  -8   6   5    4.00    0.80
   7  -6  -5   28.00    2.00
  -7   6   5   28.10    1.30
  -7   6   5   28.20    1.80
   6  -6  -5   10.10    1.20
  -6   6   5   11.50    1.40
  -6   6   5    9.30    0.70
  -6   6   5    9.20    0.70
  -5   6   5   18.30    1.30
  -5   6   5   17.30    1.00
  -5   6   5   19.60    1.10
   4  -6  -5   14.50    1.20
  -4   6   5   13.70    1.00
  -4   6   5   14.90    0.90
  -4   6   5   13.70    1.10
   3  -6  -5    2.30    0.50
   3  -6  -5    2.10    0.60
  -3   6   5    3.00    0.50
  -3   6   5    1.90    0.60
  -3   6   5    3.40    0.60
  -3   6   5    3.30    0.60
   2  -6  -5  134.09    5.70
   2  -6  -5  131.19    5.80
  -2   6   5  131.69    5.80
  -2   6   5  135.99    5.60
  -2   6   5  136.29    5.60
  -2   6   5  137.89    5.70
   1  -6  -5    3.20    0.60
  -1   6   5    0.10    0.40
  -1   6   5    1.30    0.40
  -1   6   5    1.40    0.40
   0  -6  -5  518.05   20.70
   0  -6  -5  518.35   20.50
   0   6   5  512.35   20.70
   0   6   5  512.25   20.50
   0   6   5  517.45   20.60
   0   6   5  527.25   20.60
  -1  -6  -5   23.10    1.30
  -1  -6  -5   25.10    1.50
   1   6   5   24.50    1.30
   1   6   5   24.20    1.40
   1   6   5   27.40    1.40
   1   6   5   26.40    1.30
  -2  -6  -5   34.00    1.60
  -2  -6  -5   35.70    1.90
   2   6   5   33.40    1.80
   2   6   5   33.10    1.60
   2   6   5   32.90    1.60
   2   6   5   33.60    1.60
  -3  -6  -5  209.38    8.40
  -3  -6  -5  210.98    8.60
   3   6   5  209.98    8.20
   3   6   5  200.88    8.50
   3   6   5  198.48    8.30
  -4  -6  -5   30.00    1.50
  -4  -6  -5   29.20    1.40
  -4  -6  -5   29.90    1.70
   4   6   5   29.10    1.70
   4   6   5   29.00    1.50
   4   6   5   30.10    1.40
  -5  -6  -5   95.19    4.30
  -5  -6  -5   97.79    4.10
  -5  -6  -5   93.89    3.90
   5   6   5   95.79    3.90
   5   6   5   90.19    4.30
  -6  -6  -5   52.29    2.50
  -6  -6  -5   53.99    2.70
  -6  -6  -5   51.19    2.30
   6   6   5   47.50    2.40
   6   6   5   52.39    2.30
  -7  -6  -5   47.00    2.30
  -7  -6  -5   39.30    2.00
  -7  -6  -5   43.50    2.40
   7   6   5   44.90    2.00
  -8  -6  -5   22.50    1.50
  -8  -6  -5   20.80    1.20
  -8  -6  -5   22.00    1.70
   8   6   5   22.40    1.30
  -9  -6  -5    5.00    0.90
  -9  -6  -5    4.90    0.60
  -9  -6  -5    5.90    1.00
   9   6   5    5.40    0.70
 -10  -6  -5   23.50    1.60
 -10  -6  -5   28.20    1.90
  10   6   5   30.40    1.70
  10   6   5   29.40    2.00
 -11  -6  -5   24.70    2.00
 -11  -6  -5   20.80    1.60
  11   6   5   29.00    1.80
  11   6   5   29.90    2.00
 -12  -6  -5   16.70    1.80
  12   6   5   16.70    1.70
  12   6   5   18.10    1.80
  13   6   5   18.40    2.00
  13   6   5   21.10    1.90
 -14  -6  -5    5.70    1.50
  14   6   5    7.90    1.50
  14   6   5    8.70    1.50
 -15  -6  -5   -0.30    1.30
  15   6   5    1.10    1.40
  15   6   5   -0.90    1.40
 -16  -6  -5   -0.20    1.50
  14  -7  -5    7.90    1.90
 -14   7   5   12.90    1.90
  13  -7  -5    5.00    1.50
 -13   7   5    5.50    1.50
  12  -7  -5   20.10    2.30
 -12   7   5   18.70    2.00
  11  -7  -5    8.20    1.60
 -11   7   5    4.20    1.10
  10  -7  -5   20.30    2.10
 -10   7   5   22.90    1.90
   9  -7  -5    9.80    1.50
  -9   7   5   11.40    1.40
   8  -7  -5   74.49    3.90
  -8   7   5   73.49    3.70
   7  -7  -5   88.19    4.30
  -7   7   5   80.79    3.50
  -7   7   5   85.69    4.00
  -7   7   5   85.09    3.60
   6  -7  -5   61.59    3.30
  -6   7   5   56.39    2.70
  -6   7   5   63.49    2.70
  -6   7   5   62.99    3.10
   5  -7  -5  108.49    4.90
  -5   7   5  104.69    4.50
  -5   7   5  104.29    4.50
   4  -7  -5   43.20    2.40
  -4   7   5   42.40    2.10
  -4   7   5   43.20    2.10
  -4   7   5   45.30    2.30
   3  -7  -5  123.59    5.50
  -3   7   5  122.29    5.30
  -3   7   5  121.59    5.40
  -3   7   5  123.09    5.30
  -3   7   5  126.09    5.30
  -3   7   5  127.59    5.30
   2  -7  -5   24.50    1.50
  -2   7   5   24.20    1.40
  -2   7   5   25.00    1.40
  -2   7   5   24.90    1.50
   1  -7  -5   10.20    0.90
   1  -7  -5    9.60    0.80
   1  -7  -5    8.80    0.80
  -1   7   5    9.20    0.70
  -1   7   5    8.80    0.90
   0  -7  -5    1.30    0.40
   0  -7  -5    0.80    0.50
   0   7   5    1.50    0.50
   0   7   5    0.30    0.30
   0   7   5    0.50    0.40
   0   7   5    0.80    0.40
  -1  -7  -5   59.99    2.70
  -1  -7  -5   59.29    2.90
   1   7   5   58.19    2.80
   1   7   5   59.39    2.70
   1   7   5   56.39    2.60
   1   7   5   58.79    2.60
  -2  -7  -5    6.80    0.90
  -2  -7  -5    6.80    0.70
   2   7   5    6.60    0.60
   2   7   5    6.80    0.80
   2   7   5    5.40    0.60
   2   7   5    6.70    0.60
  -3  -7  -5    8.60    0.90
  -3  -7  -5    8.60    0.80
   3   7   5    8.90    0.60
   3   7   5   11.00    0.90
   3   7   5    8.50    0.70
   3   7   5    9.80    1.20
  -4  -7  -5    1.20    0.40
  -4  -7  -5    1.20    0.50
   4   7   5    1.00    0.30
   4   7   5    1.40    0.50
   4   7   5    1.20    0.40
  -5  -7  -5    1.40    0.50
  -5  -7  -5    0.10    0.50
   5   7   5    0.00    0.40
  -6  -7  -5   22.40    1.60
  -6  -7  -5   23.00    1.40
  -6  -7  -5   20.10    1.10
  -7  -7  -5    4.90    0.50
  -7  -7  -5    5.80    1.00
   7   7   5    5.90    0.60
  -8  -7  -5    1.00    0.60
  -8  -7  -5    1.80    0.40
   8   7   5    1.90    0.80
   8   7   5    1.60    0.50
  -9  -7  -5   -0.10    0.50
  -9  -7  -5    1.00    0.70
   9   7   5    0.00    0.80
   9   7   5    0.20    0.50
 -10  -7  -5    8.10    0.90
 -10  -7  -5    8.90    1.30
  10   7   5   11.30    1.50
  10   7   5    9.40    0.90
 -11  -7  -5    2.40    1.00
 -11  -7  -5    0.70    0.70
  11   7   5    2.50    0.80
  11   7   5    3.50    1.20
 -12  -7  -5    1.80    1.10
 -12  -7  -5    0.40    1.30
  12   7   5    4.00    0.90
  12   7   5    2.80    1.20
 -13  -7  -5    0.50    1.00
  13   7   5    1.20    1.00
  13   7   5    0.90    1.10
 -14  -7  -5    5.40    1.40
  14   7   5    2.20    2.20
  14   7   5    5.50    1.60
 -15  -7  -5    9.60    1.90
  15   7   5    8.30    1.80
  15   7   5    9.70    1.80
  13  -8  -5    0.20    1.10
 -13   8   5    1.00    1.20
  12  -8  -5    0.10    1.20
 -12   8   5    1.40    1.10
  11  -8  -5   -0.60    1.00
 -11   8   5    1.40    1.00
  10  -8  -5    6.60    1.40
 -10   8   5    5.90    1.40
   9  -8  -5    0.60    0.90
  -9   8   5    1.00    0.80
   8  -8  -5   37.80    2.60
  -8   8   5   36.20    1.70
  -8   8   5   40.30    2.40
  -8   8   5   34.40    1.70
   7  -8  -5   60.39    3.30
  -7   8   5   56.89    2.60
  -7   8   5   54.09    2.60
  -7   8   5   58.39    3.00
   6  -8  -5   26.20    2.00
  -6   8   5   30.80    1.90
  -6   8   5   30.10    1.60
  -6   8   5   25.90    1.50
   5  -8  -5   15.90    1.50
  -5   8   5   17.60    1.40
  -5   8   5   16.50    1.10
  -5   8   5   16.40    1.20
   4  -8  -5   24.90    2.00
  -4   8   5   27.90    1.70
  -4   8   5   27.40    1.60
   3  -8  -5    9.40    1.10
  -3   8   5    7.90    0.90
  -3   8   5    9.90    1.00
  -3   8   5    9.10    1.00
   2  -8  -5   45.70    2.30
   2  -8  -5   47.60    2.30
  -2   8   5   43.30    2.30
  -2   8   5   44.00    2.30
  -2   8   5   42.60    2.30
  -2   8   5   43.90    2.30
   1  -8  -5   23.60    1.50
   1  -8  -5   24.00    1.50
  -1   8   5   25.50    1.40
  -1   8   5   24.70    1.60
  -1   8   5   25.80    1.50
  -1   8   5   25.30    1.50
   0  -8  -5    8.80    0.90
   0   8   5   10.20    1.10
   0   8   5    7.60    0.80
   0   8   5    9.00    0.80
   0   8   5    8.40    0.80
   0   8   5   10.00    0.90
  -1  -8  -5   92.49    3.90
   1   8   5   91.99    3.90
   1   8   5   89.19    3.90
   1   8   5   86.59    4.20
   1   8   5   85.29    3.90
  -2  -8  -5  300.27   12.00
   2   8   5  286.87   12.00
   2   8   5  293.67   11.90
   2   8   5  303.27   11.80
   2   8   5  294.27   12.30
  -3  -8  -5    9.00    1.00
   3   8   5    8.30    0.80
   3   8   5    7.80    0.60
   3   8   5    8.10    0.70
  -4  -8  -5   43.30    2.20
   4   8   5   45.70    2.50
   4   8   5   44.80    1.90
  -5  -8  -5   40.30    2.10
   5   8   5   39.40    1.70
   5   8   5   41.40    1.70
   5   8   5   40.70    2.40
  -6  -8  -5   43.70    2.30
   6   8   5   44.40    2.60
  -7  -8  -5    5.40    0.90
   7   8   5    4.80    1.00
  -8  -8  -5    5.80    0.90
   8   8   5    3.70    1.10
  -9  -8  -5    2.50    0.90
   9   8   5    2.70    0.90
 -10  -8  -5    2.60    1.00
  10   8   5    2.30    1.10
 -11  -8  -5   15.80    1.70
 -11  -8  -5   15.20    1.20
  11   8   5   17.00    1.80
  11   8   5   18.50    1.20
 -12  -8  -5    2.70    0.90
  12   8   5    4.10    1.40
  12   8   5    5.10    0.80
 -13  -8  -5    4.60    1.40
  13   8   5    3.20    0.90
  13   8   5    6.80    1.50
 -14  -8  -5   -1.30    1.20
  14   8   5   -0.50    1.40
 -15  -8  -5    2.60    1.60
  13  -9  -5    2.60    1.50
 -13   9   5    1.20    1.30
  12  -9  -5    4.40    1.40
 -12   9   5    4.20    1.30
  11  -9  -5    9.40    1.70
 -11   9   5   10.70    1.60
  10  -9  -5    1.80    1.20
 -10   9   5    1.50    0.90
   9  -9  -5    6.80    1.60
  -9   9   5    4.60    1.20
   8  -9  -5   24.40    2.20
  -8   9   5   21.10    1.30
  -8   9   5   25.10    1.40
  -8   9   5   29.30    2.00
   7  -9  -5   10.80    1.60
  -7   9   5    8.00    0.90
  -7   9   5    8.20    0.90
  -7   9   5   11.20    1.40
   6  -9  -5   28.70    2.10
  -6   9   5   28.30    1.80
  -6   9   5   30.40    1.70
  -6   9   5   28.40    1.90
   5  -9  -5    3.70    0.90
  -5   9   5    3.10    0.70
  -5   9   5    3.40    0.70
  -5   9   5    2.90    0.80
   4  -9  -5   51.99    2.90
  -4   9   5   54.79    2.80
  -4   9   5   52.69    2.70
  -4   9   5   58.79    2.80
   3  -9  -5   64.89    3.20
  -3   9   5   62.29    3.10
  -3   9   5   63.09    3.10
   2  -9  -5   12.60    1.40
   2  -9  -5   12.90    1.20
  -2   9   5   12.40    1.20
  -2   9   5   13.90    1.20
   1  -9  -5   16.50    1.30
   1  -9  -5   21.00    1.40
  -1   9   5   23.10    1.50
  -1   9   5   18.00    1.30
   0  -9  -5   51.79    2.60
   0   9   5   49.70    2.50
  -1  -9  -5   20.90    1.40
   1   9   5   20.80    1.50
   1   9   5   20.30    1.20
   1   9   5   19.20    1.30
  -2  -9  -5   20.60    1.30
   2   9   5   18.40    1.00
   2   9   5   21.10    1.50
   2   9   5   15.30    1.10
  -3  -9  -5   17.60    1.40
   3   9   5   19.50    1.00
   3   9   5   17.70    1.00
   3   9   5   18.30    1.50
  -4  -9  -5   19.50    1.40
   4   9   5   19.50    1.60
  -5  -9  -5   43.80    2.40
   5   9   5   47.40    2.70
  -6  -9  -5   47.20    2.50
   6   9   5   46.30    2.80
  -7  -9  -5  129.19    5.70
   7   9   5  123.89    5.90
  -8  -9  -5   55.69    3.00
   8   9   5   58.89    3.30
  -9  -9  -5   50.29    2.90
   9   9   5   53.29    3.20
 -10  -9  -5   53.79    3.00
  10   9   5   47.10    3.00
 -11  -9  -5    2.00    1.20
  11   9   5    0.50    1.10
 -12  -9  -5    5.50    1.30
  12   9   5    7.40    1.50
 -13  -9  -5    3.80    1.40
  13   9   5   -0.40    2.20
 -14  -9  -5    1.10    1.50
  14   9   5    2.00    1.60
  12 -10  -5    0.60    1.40
 -12  10   5   -1.60    1.10
  11 -10  -5    3.90    1.50
 -11  10   5    1.00    1.20
  10 -10  -5    7.40    1.60
 -10  10   5    6.10    1.40
   9 -10  -5    3.90    1.40
  -9  10   5    3.80    0.60
  -9  10   5    3.50    1.10
   8 -10  -5    6.70    1.40
  -8  10   5    6.50    1.30
  -8  10   5    7.30    0.90
   7 -10  -5   66.79    3.70
  -7  10   5   65.39    3.10
  -7  10   5   65.09    3.50
  -7  10   5   58.69    3.00
   6 -10  -5  119.59    5.70
  -6  10   5  121.79    5.60
  -6  10   5  117.99    5.30
   5 -10  -5   53.59    3.10
  -5  10   5   51.39    2.70
  -5  10   5   57.39    3.00
   4 -10  -5    1.30    0.70
  -4  10   5   -0.10    0.60
   3 -10  -5    9.90    1.20
  -3  10   5    9.50    1.20
  -3  10   5    9.80    1.20
   2 -10  -5    0.60    0.70
   2 -10  -5    0.80    0.60
  -2  10   5    0.70    0.60
   1 -10  -5   24.60    1.80
   1 -10  -5   26.80    1.70
  -1  10   5   24.70    1.60
  -1  10   5   32.60    1.90
   0 -10  -5   49.99    2.70
   0  10   5   48.20    2.50
   0  10   5   54.49    2.80
  -1 -10  -5    1.70    0.70
   1  10   5    0.90    0.50
   1  10   5    0.80    0.70
   1  10   5    1.40    0.50
  -2 -10  -5  383.66   15.60
   2  10   5  389.36   15.90
   2  10   5  390.06   15.20
   2  10   5  369.16   15.20
  -3 -10  -5    8.70    1.10
   3  10   5    6.10    0.60
   3  10   5    5.40    1.10
  -4 -10  -5    9.40    1.10
   4  10   5    9.00    1.40
  -5 -10  -5   -0.30    0.60
   5  10   5    1.10    0.70
  -6 -10  -5    1.80    0.80
   6  10   5    0.40    0.90
  -7 -10  -5    5.50    1.10
   7  10   5    6.50    1.20
  -8 -10  -5   71.79    3.70
   8  10   5   75.39    4.00
  -9 -10  -5    4.80    1.20
   9  10   5    1.70    1.10
 -10 -10  -5    1.40    1.00
  10  10   5    2.90    1.30
 -11 -10  -5    2.50    1.20
  11  10   5    2.20    1.50
 -12 -10  -5   -0.20    1.20
  12  10   5    1.00    1.40
 -13 -10  -5    2.70    1.50
  13  10   5    2.20    1.30
 -14 -10  -5    1.50    1.50
  14  10   5    2.50    1.70
  11 -11  -5    3.60    1.60
 -11  11   5    3.90    1.30
  10 -11  -5    3.30    1.40
 -10  11   5    5.10    1.40
   9 -11  -5    0.20    1.10
  -9  11   5    0.20    0.70
  -9  11   5    1.80    1.10
   8 -11  -5    2.30    1.20
  -8  11   5    2.70    1.10
  -8  11   5    2.70    0.80
   7 -11  -5   24.20    2.20
  -7  11   5   21.50    2.00
   6 -11  -5    1.40    0.90
  -6  11   5    0.60    0.90
  -6  11   5    1.50    0.70
   5 -11  -5   14.20    1.60
  -5  11   5   15.90    1.50
  -5  11   5   19.00    1.70
   4 -11  -5    4.00    1.00
  -4  11   5    3.90    0.90
  -4  11   5    4.00    1.00
   3 -11  -5    5.10    1.00
  -3  11   5    6.00    1.10
  -3  11   5    4.40    1.00
   2 -11  -5   31.00    2.00
  -2  11   5   33.10    2.10
   1 -11  -5   20.00    1.80
   1 -11  -5   14.20    1.30
  -1  11   5   14.90    1.50
  -1  11   5   13.50    1.30
   0 -11  -5   51.59    2.80
   0  11   5   53.59    2.90
   0  11   5   49.99    2.50
  -1 -11  -5   56.69    2.90
   1  11   5   48.40    2.50
   1  11   5   56.59    3.10
   1  11   5   55.99    2.60
  -2 -11  -5  154.98    6.80
   2  11   5  162.68    6.40
   2  11   5  144.99    6.40
   2  11   5  161.88    7.10
  -3 -11  -5   52.49    2.90
   3  11   5   56.09    2.30
   3  11   5   55.89    3.10
  -4 -11  -5   14.30    1.50
   4  11   5    9.90    1.50
  -5 -11  -5   10.50    1.40
   5  11   5   11.10    1.60
  -6 -11  -5    0.70    0.80
   6  11   5    2.20    1.00
  -7 -11  -5   24.00    1.80
   7  11   5   22.40    2.10
  -8 -11  -5   19.50    1.90
   8  11   5   22.40    2.10
  -9 -11  -5    0.20    1.80
   9  11   5    0.80    1.40
 -10 -11  -5   13.60    1.80
  10  11   5   11.60    1.70
 -11 -11  -5    0.00    1.10
  11  11   5    0.30    1.30
 -12 -11  -5    0.30    1.30
  12  11   5    2.40    1.50
 -13 -11  -5   -0.20    1.50
  13  11   5    1.30    1.40
  10 -12  -5    8.10    1.60
 -10  12   5    8.60    1.70
   9 -12  -5   15.40    2.20
  -9  12   5   13.80    1.90
  -9  12   5   13.80    1.40
   8 -12  -5    1.70    1.20
  -8  12   5    2.70    1.00
  -8  12   5    2.90    1.20
  -7  12   5   33.90    2.20
  -7  12   5   39.30    2.70
   6 -12  -5   50.09    3.10
  -6  12   5   50.19    3.20
  -6  12   5   52.89    2.90
   5 -12  -5   28.00    2.20
  -5  12   5   27.30    2.30
  -5  12   5   28.00    2.00
   4 -12  -5    2.80    0.80
  -4  12   5    3.30    1.30
  -4  12   5    3.10    1.00
   3 -12  -5    5.50    1.00
  -3  12   5    4.10    0.90
   2 -12  -5   20.40    1.70
   2 -12  -5   17.10    1.70
  -2  12   5   20.30    1.70
   1 -12  -5   -0.10    0.70
   1 -12  -5    3.80    1.00
  -1  12   5    0.50    0.80
   0 -12  -5    1.40    0.80
   0  12   5    1.80    0.80
   0  12   5   -0.20    0.70
  -1 -12  -5    7.70    1.20
   1  12   5    6.90    1.20
   1  12   5    4.20    0.70
   1  12   5    7.30    0.90
  -2 -12  -5   35.10    2.20
   2  12   5   30.70    2.40
   2  12   5   29.90    1.70
   2  12   5   34.90    1.60
  -3 -12  -5    3.10    1.00
   3  12   5    1.80    1.00
  -4 -12  -5    0.40    0.70
   4  12   5    0.10    0.80
  -5 -12  -5    0.10    0.90
   5  12   5   -1.20    0.80
  -6 -12  -5    0.60    0.90
   6  12   5    0.70    0.90
  -7 -12  -5    1.30    1.00
   7  12   5   -0.40    1.40
  -8 -12  -5   15.50    1.80
   8  12   5   11.90    1.80
  -9 -12  -5   10.00    1.60
   9  12   5   10.70    1.70
 -10 -12  -5    2.00    1.30
  10  12   5    6.00    1.50
 -11 -12  -5   15.80    2.10
  11  12   5   11.50    1.90
 -12 -12  -5    8.90    1.80
  12  12   5    7.30    1.80
   9 -13  -5    0.70    1.40
  -9  13   5    0.00    1.30
  -9  13   5    0.10    1.10
   8 -13  -5    1.70    1.20
  -8  13   5    3.90    1.50
  -8  13   5    2.90    1.10
   7 -13  -5    2.00    1.30
  -7  13   5    2.40    1.30
  -7  13   5    2.50    1.00
   6 -13  -5    8.70    2.10
  -6  13   5   13.10    1.90
  -6  13   5   10.90    1.50
   5 -13  -5   12.40    1.80
  -5  13   5   17.20    2.00
  -5  13   5   15.30    1.70
   4 -13  -5   15.50    1.80
  -4  13   5   17.20    1.80
  -4  13   5   18.50    2.00
   3 -13  -5   10.40    1.40
  -3  13   5   11.00    1.90
  -3  13   5   11.60    1.60
   2 -13  -5   21.40    2.00
   2 -13  -5   26.50    1.90
  -2  13   5   26.30    2.10
   1 -13  -5   24.10    2.00
  -1  13   5   25.80    2.10
   0 -13  -5   30.20    2.20
   0  13   5   36.40    2.50
   0  13   5   33.00    2.00
   0  13   5   27.70    1.90
  -1 -13  -5   23.90    2.00
   1  13   5   26.10    2.20
   1  13   5   24.50    1.50
   1  13   5   25.00    1.60
  -2 -13  -5   16.30    1.70
   2  13   5   15.90    1.90
   2  13   5   13.60    0.90
   2  13   5   12.00    1.00
  -3 -13  -5   61.19    3.50
   3  13   5   71.99    4.00
  -4 -13  -5   25.00    2.10
   4  13   5   25.10    2.40
   5  13   5   -0.60    0.90
  -6 -13  -5   18.30    1.90
   6  13   5   17.10    2.10
  -7 -13  -5   14.70    1.90
   7  13   5   15.30    2.00
  -8 -13  -5    8.90    1.70
   8  13   5   10.00    1.90
  -9 -13  -5    4.50    1.50
   9  13   5    4.40    1.50
 -10 -13  -5    2.80    1.30
  10  13   5    0.90    1.50
 -11 -13  -5    4.10    1.60
  11  13   5    1.10    1.60
   8 -14  -5    6.30    1.70
  -8  14   5    8.10    1.50
  -8  14   5    3.80    1.60
   7 -14  -5    2.20    1.40
  -7  14   5    2.80    1.50
  -7  14   5    3.10    1.30
   6 -14  -5   15.60    2.00
  -6  14   5   25.50    2.50
  -6  14   5   20.40    2.00
   5 -14  -5   -1.70    1.00
  -5  14   5   -0.50    1.00
  -5  14   5   -0.20    1.20
   4 -14  -5    1.30    1.00
  -4  14   5    1.60    1.10
  -4  14   5    1.10    1.20
   3 -14  -5    1.40    1.00
  -3  14   5   -0.10    1.00
  -3  14   5    0.60    1.10
   2 -14  -5    5.60    1.30
   2 -14  -5    5.80    1.10
   1 -14  -5    7.50    1.30
  -1  14   5    5.70    1.80
   0 -14  -5    0.70    0.90
   0  14   5   -0.80    0.80
   0  14   5    0.40    1.00
  -1 -14  -5    4.20    1.20
   1  14   5    3.70    0.80
   1  14   5    1.10    1.20
  -2 -14  -5    1.20    1.00
   2  14   5    1.00    1.10
  -3 -14  -5   11.70    1.60
   3  14   5   10.90    1.80
  -4 -14  -5   -0.30    0.90
   4  14   5    1.40    1.10
  -5 -14  -5   19.90    2.00
   5  14   5   22.80    2.30
  -6 -14  -5    5.10    1.30
   6  14   5    4.40    1.50
  -7 -14  -5    8.90    1.60
   7  14   5   10.40    1.80
  -8 -14  -5    5.40    1.60
   8  14   5    5.10    1.80
  -9 -14  -5    0.10    1.40
   9  14   5    1.90    1.50
   6 -15  -5    3.50    1.40
  -6  15   5    3.80    1.50
  -6  15   5    1.70    1.50
   5 -15  -5    4.50    1.50
  -5  15   5    8.30    1.60
  -5  15   5    4.50    1.60
   4 -15  -5   20.20    2.30
  -4  15   5   18.50    2.30
  -4  15   5   27.90    2.40
   3 -15  -5    9.30    1.50
  -3  15   5    9.00    1.60
  -3  15   5    8.90    1.60
   2 -15  -5    8.40    1.50
  -2  15   5    4.30    1.30
   1 -15  -5   18.30    2.00
  -1  15   5   21.90    2.20
  -1  15   5   19.80    1.90
   0 -15  -5    8.20    1.50
   0  15   5    6.50    1.10
   0  15   5   11.30    1.80
  -1 -15  -5    6.00    1.50
   1  15   5    5.00    0.90
   1  15   5    6.40    1.60
  -2 -15  -5    7.00    1.50
   2  15   5    5.70    1.50
  -3 -15  -5    7.20    1.50
   3  15   5    5.80    1.60
  -4 -15  -5    0.50    1.20
   4  15   5    0.10    1.20
  -5 -15  -5    4.80    1.50
   5  15   5    6.10    1.70
  -6 -15  -5    1.10    1.30
   6  15   5    2.80    1.30
  -7 -15  -5   10.10    1.80
   7  15   5    8.30    2.10
  -3  16   5    3.40    1.50
  -3  16   5   -0.90    1.50
   2 -16  -5    0.20    1.30
  -2  16   5    0.50    1.40
   1 -16  -5   -0.80    1.30
  -1  16   5   -1.30    1.20
  -1  16   5    1.90    1.40
   0 -16  -5   -0.70    1.10
   0  16   5    2.20    1.40
  -1 -16  -5    2.20    1.40
   1  16   5   -0.10    1.30
  -2 -16  -5    1.90    1.40
   2  16   5    2.60    1.40
  -3 -16  -5   22.60    2.50
   3  16   5   21.10    2.70
  -4 -16  -5   25.80    2.60
   4  16   5   27.50    3.00
  -5 -16  -5   41.40    3.10
   1  12  -6    0.60    1.80
  -1 -12   6    0.70    1.50
  -1 -12   6    3.10    1.60
   0  12  -6    1.70    1.70
   0 -12   6    1.20    1.50
  -1  12  -6   -0.70    1.40
   1 -12   6   -1.20    1.30
   1 -12   6   -0.90    1.40
  -2  12  -6    1.60    1.40
   2 -12   6    2.40    1.80
   2 -12   6    1.10    1.40
  -3  12  -6    2.10    1.60
   3 -12   6   -1.10    1.60
   3 -12   6   -0.30    1.50
   5  11  -6    0.50    1.50
  -5 -11   6    0.40    1.40
   4  11  -6    3.60    1.60
  -4 -11   6   -0.70    1.30
   3  11  -6    1.30    1.40
  -3 -11   6    1.30    1.70
  -3 -11   6    0.10    1.30
   2  11  -6    1.20    1.30
  -2 -11   6    1.00    1.20
  -2 -11   6    0.20    1.20
   1  11  -6    0.00    1.30
  -1 -11   6    0.80    1.20
  -1 -11   6    1.30    1.20
   0  11  -6   -0.90    1.20
   0 -11   6    3.90    1.30
   0 -11   6    1.00    1.30
  -1  11  -6    3.20    1.50
   1 -11   6    6.50    1.40
   1 -11   6    5.10    1.50
  -2  11  -6    1.90    1.30
   2 -11   6   -0.30    1.30
   2 -11   6    1.90    1.40
  -3  11  -6    4.30    1.50
   3 -11   6    3.60    1.40
   3 -11   6    3.20    1.50
  -4  11  -6    3.60    1.60
  -4  11  -6    3.70    1.60
   4 -11   6    4.10    1.60
  -5  11  -6    1.20    1.40
  -5  11  -6    3.50    1.90
   5 -11   6    2.00    1.50
  -6  11  -6    0.70    1.40
  -6  11  -6    1.20    1.80
   6 -11   6   -1.10    1.70
   7  10  -6    3.40    1.50
  -7 -10   6    1.50    1.50
   6  10  -6    6.40    1.60
  -6 -10   6    6.90    1.60
   5  10  -6    1.50    1.30
  -5 -10   6   -0.80    1.20
  -5 -10   6    1.10    1.00
   4  10  -6    5.90    1.60
  -4 -10   6    8.90    1.20
  -4 -10   6    8.30    1.50
   3  10  -6    5.80    1.50
  -3 -10   6    5.70    1.60
  -3 -10   6    4.90    1.40
   2  10  -6    0.70    1.20
  -2 -10   6    1.80    1.20
  -2 -10   6    1.30    1.00
   1  10  -6    7.50    1.40
  -1 -10   6    6.80    1.40
   0  10  -6   22.60    2.20
   0 -10   6   20.50    2.10
   0 -10   6   20.30    2.10
  -1  10  -6   15.20    1.90
   1 -10   6   13.30    1.60
   1 -10   6   13.60    1.70
  -2  10  -6    3.30    1.30
   2 -10   6    1.70    1.10
   2 -10   6    1.80    1.20
  -3  10  -6   16.40    1.90
   3 -10   6   21.70    2.30
   3 -10   6   22.00    2.20
  -4  10  -6   12.00    1.60
   4 -10   6   14.20    2.00
  -5  10  -6    0.80    1.10
  -5  10  -6   -0.40    1.30
   5 -10   6    1.10    1.50
  -6  10  -6    1.20    1.20
  -6  10  -6    2.50    1.50
   6 -10   6   -0.10    1.50
  -7  10  -6    0.10    1.40
  -7  10  -6    1.60    1.30
   7 -10   6   -0.20    1.40
  -8  10  -6    0.50    1.70
  -8  10  -6   -1.00    1.20
   8 -10   6    1.40    1.60
   9   9  -6    3.20    1.50
  -9  -9   6    3.20    1.50
   8   9  -6   -0.50    1.30
  -8  -9   6    3.30    1.40
   7   9  -6   -0.10    1.20
  -7  -9   6    0.50    0.90
  -7  -9   6   -0.20    1.20
   6   9  -6   15.00    1.90
  -6  -9   6   18.70    2.10
  -6  -9   6   14.30    1.50
   5   9  -6    1.10    1.20
  -5  -9   6    2.80    1.20
  -5  -9   6    2.00    0.90
   4   9  -6    0.70    1.10
  -4  -9   6    1.10    0.90
  -4  -9   6    0.80    1.10
   3   9  -6    9.20    1.60
  -3  -9   6    7.80    1.20
  -3  -9   6    9.40    1.90
   2   9  -6    0.80    1.00
  -2  -9   6    0.10    0.90
  -2  -9   6    1.00    1.00
   1   9  -6    6.90    1.40
  -1  -9   6    6.70    1.10
  -1  -9   6    5.10    1.20
   0   9  -6    2.40    1.10
   0  -9   6    1.40    1.00
   0  -9   6    1.70    0.90
  -1   9  -6    1.60    1.10
   1  -9   6    0.90    1.10
   1  -9   6    1.40    1.00
  -2   9  -6    5.90    2.10
   2  -9   6    5.60    1.30
   2  -9   6    6.10    1.30
   3  -9   6    6.90    1.40
   3  -9   6    6.70    1.30
  -4   9  -6    3.60    1.80
   4  -9   6    4.50    1.30
   4  -9   6    3.30    1.20
  -5   9  -6    9.90    2.10
  -5   9  -6   13.50    2.20
   5  -9   6   10.10    1.70
  -6   9  -6   14.40    1.90
  -6   9  -6   15.50    2.00
   6  -9   6   14.70    2.20
  -7   9  -6   10.20    1.80
  -7   9  -6   13.30    1.70
   7  -9   6   13.00    2.00
  -8   9  -6    9.50    1.50
  -8   9  -6    8.60    1.70
   8  -9   6    7.20    1.70
  -9   9  -6    2.90    1.40
  -9   9  -6    3.10    1.60
   9  -9   6    3.90    1.60
 -10   9  -6   11.40    1.90
 -10   9  -6    8.60    1.90
  10  -9   6    9.80    2.10
  10   8  -6    2.00    1.40
 -10  -8   6    2.20    1.50
   9   8  -6    0.80    1.20
  -9  -8   6   -0.10    1.30
   8   8  -6   22.50    2.10
  -8  -8   6   20.30    1.60
  -8  -8   6   26.00    2.30
   7   8  -6   22.30    2.10
  -7  -8   6   25.30    2.20
  -7  -8   6   17.30    1.50
   6   8  -6   28.70    2.30
  -6  -8   6   33.20    2.30
  -6  -8   6   23.40    1.70
   5   8  -6    1.60    1.70
  -5  -8   6    2.60    0.80
  -5  -8   6    1.50    1.20
  -5  -8   6    4.60    1.20
   4   8  -6    9.50    1.60
  -4  -8   6   10.20    1.40
  -4  -8   6    8.90    1.10
   3   8  -6    6.60    1.40
  -3  -8   6    8.00    1.00
  -3  -8   6    6.70    1.10
   2   8  -6   10.50    1.50
  -2  -8   6   10.70    1.30
  -2  -8   6   11.30    1.40
   1   8  -6    8.20    1.30
  -1  -8   6   10.00    1.20
  -1  -8   6   11.40    1.40
   0   8  -6   16.90    1.70
   0  -8   6   15.90    1.70
   0  -8   6   16.00    1.70
  -1   8  -6    4.30    1.10
   1  -8   6    3.80    1.00
   1  -8   6    3.00    1.00
  -2   8  -6   11.30    1.50
   2  -8   6   13.70    1.50
   2  -8   6   12.10    1.40
  -3   8  -6   10.40    1.40
   3  -8   6   11.00    1.40
   3  -8   6   10.10    1.40
  -4   8  -6   10.00    1.40
   4  -8   6   10.20    1.50
   4  -8   6   12.00    1.40
  -5   8  -6   -0.10    0.90
  -5   8  -6   -0.70    1.10
   5  -8   6   -1.00    1.10
  -6   8  -6    0.60    1.20
  -6   8  -6    1.60    1.00
   6  -8   6    0.90    1.20
  -7   8  -6    0.10    1.20
  -7   8  -6    2.90    1.10
   7  -8   6    2.10    1.70
  -8   8  -6    0.40    1.20
  -8   8  -6    0.00    1.10
   8  -8   6    0.10    1.40
  -9   8  -6   -1.40    1.30
  -9   8  -6    1.10    1.20
   9  -8   6    2.50    1.50
 -10   8  -6    1.40    1.30
 -10   8  -6    0.70    1.30
  10  -8   6    3.10    1.60
 -11   8  -6    3.50    1.50
 -11   8  -6    1.80    1.50
  11  -8   6    3.60    1.70
  11   7  -6    1.80    1.40
 -11  -7   6    2.80    1.50
  10   7  -6    5.50    1.50
 -10  -7   6    0.60    0.90
 -10  -7   6    2.60    1.50
  -9  -7   6    3.50    0.90
  -9  -7   6    6.20    1.40
   8   7  -6    5.20    1.30
  -8  -7   6    3.60    0.80
  -8  -7   6    5.50    1.40
   7   7  -6    0.50    1.00
  -7  -7   6    2.50    1.30
  -7  -7   6    0.60    0.70
  -7  -7   6    2.70    1.30
   6   7  -6    1.40    0.90
  -6  -7   6    0.70    0.90
  -6  -7   6   -0.30    0.60
  -6  -7   6   -1.00    1.10
   5   7  -6    0.70    1.00
  -5  -7   6    2.10    1.00
  -5  -7   6    0.70    0.80
  -5  -7   6    0.30    0.60
   4   7  -6   14.50    1.70
  -4  -7   6   12.70    1.20
  -4  -7   6   13.10    1.40
   3   7  -6   20.70    1.80
  -3  -7   6   21.10    1.60
  -3  -7   6   17.80    1.50
   2   7  -6    6.70    1.30
  -2  -7   6    5.10    1.00
  -2  -7   6    7.00    1.00
   1   7  -6   15.70    1.60
  -1  -7   6   15.40    1.50
  -1  -7   6   14.80    1.60
   0   7  -6   19.60    1.60
   0  -7   6   15.10    1.60
   0  -7   6   13.90    1.50
  -1   7  -6   93.39    4.50
   1  -7   6   92.89    4.40
   1  -7   6   92.39    4.40
  -2   7  -6   35.90    2.30
   2  -7   6   34.60    2.30
   2  -7   6   33.80    2.20
  -3   7  -6   -0.40    0.60
   3  -7   6   -0.40    0.80
   3  -7   6   -1.10    0.80
  -4   7  -6    0.20    0.80
   4  -7   6   -1.20    0.80
   4  -7   6   -0.10    0.90
  -5   7  -6    7.70    1.40
  -5   7  -6   12.40    1.40
   5  -7   6    9.80    1.50
  -6   7  -6   18.90    1.70
  -6   7  -6   19.50    1.90
   6  -7   6   20.20    2.00
  -7   7  -6    1.70    0.90
  -7   7  -6   -0.20    1.00
   7  -7   6    0.10    1.00
  -8   7  -6    4.20    1.20
  -8   7  -6    3.20    1.10
  -9   7  -6    9.70    1.40
   9  -7   6    6.00    1.70
 -10   7  -6    3.60    1.20
 -10   7  -6    1.70    1.40
  10  -7   6    1.70    1.40
 -11   7  -6    1.10    1.20
 -11   7  -6    3.20    1.40
  11  -7   6    1.30    1.50
 -12   7  -6    0.30    1.50
 -12   7  -6   -0.10    1.20
  12  -7   6    1.00    1.70
  12   6  -6    2.20    1.30
 -12  -6   6   -1.20    1.20
 -12  -6   6    1.00    1.40
  11   6  -6    5.00    1.40
 -11  -6   6    5.10    1.50
 -11  -6   6    2.40    1.00
  10   6  -6    1.70    1.20
 -10  -6   6    2.00    1.00
 -10  -6   6    2.10    1.20
   9   6  -6   15.20    1.70
  -9  -6   6   17.00    1.90
  -9  -6   6   16.00    1.70
   8   6  -6   22.70    1.90
  -8  -6   6   24.90    2.10
  -8  -6   6   20.80    1.50
   7   6  -6   48.20    2.90
  -7  -6   6   46.80    2.50
  -7  -6   6   58.99    3.00
   6   6  -6   12.20    1.50
  -6  -6   6   12.80    1.50
  -6  -6   6   15.10    1.50
  -6  -6   6   12.50    1.20
   5   6  -6   25.60    1.90
  -5  -6   6   22.80    1.80
  -5  -6   6   25.10    1.60
  -5  -6   6   27.10    1.80
   4   6  -6   20.60    1.70
   4   6  -6   22.70    1.80
  -4  -6   6   24.30    1.70
  -4  -6   6   22.40    1.50
   3   6  -6   26.20    2.00
   3   6  -6   26.60    1.90
  -3  -6   6   30.10    1.70
  -3  -6   6   31.20    1.90
   2   6  -6   16.80    1.50
  -2  -6   6   13.70    1.30
  -2  -6   6   14.30    1.30
   1   6  -6    1.20    0.70
  -1  -6   6    1.30    0.60
  -1  -6   6    1.50    0.70
   0   6  -6   13.70    1.40
   0  -6   6   13.40    1.30
   0  -6   6   14.60    1.30
  -1   6  -6   51.59    2.80
   1  -6   6   50.19    2.80
   1  -6   6   50.29    2.60
  -2   6  -6    2.10    0.80
   2  -6   6    3.40    0.80
   2  -6   6    3.30    0.90
  -3   6  -6    0.30    0.60
   3  -6   6   -0.30    0.70
   3  -6   6   -0.50    0.70
  -4   6  -6    0.60    0.70
   4  -6   6    0.90    0.70
   4  -6   6    0.40    0.80
  -5   6  -6    3.30    0.90
  -5   6  -6    1.20    0.80
   5  -6   6    2.70    1.00
  -6   6  -6   15.00    1.60
  -6   6  -6   13.90    1.50
   6  -6   6   12.20    1.60
  -7   6  -6   -0.50    0.90
  -7   6  -6   -0.10    0.70
   7  -6   6   -0.30    1.00
  -8   6  -6   19.10    1.70
  -8   6  -6   18.80    1.80
   8  -6   6   17.80    2.10
  -9   6  -6   14.10    1.60
  -9   6  -6   12.00    1.60
   9  -6   6   17.00    3.20
 -10   6  -6    8.50    1.30
 -10   6  -6    8.20    1.50
  10  -6   6    7.20    1.60
 -11   6  -6    4.50    1.50
 -11   6  -6    4.20    1.20
  11  -6   6    3.40    1.60
 -12   6  -6    4.00    1.20
 -12   6  -6    4.80    1.40
  12  -6   6    6.60    1.70
 -13   6  -6    2.20    1.20
 -13   6  -6   -2.20    1.40
  13  -6   6    1.20    1.60
  12   5  -6    0.90    1.20
 -12  -5   6    4.40    1.40
 -12  -5   6    0.70    1.20
  11   5  -6   17.00    1.80
 -11  -5   6   15.00    1.60
 -11  -5   6   19.10    2.00
  10   5  -6   -0.80    0.90
 -10  -5   6   -0.30    0.80
 -10  -5   6   -0.60    0.90
   9   5  -6    0.40    0.90
  -9  -5   6    0.80    1.00
  -9  -5   6    0.80    0.70
   8   5  -6    0.30    0.80
  -8  -5   6    0.10    0.80
  -8  -5   6    0.60    0.70
   7   5  -6   -0.20    0.80
  -7  -5   6    2.10    0.70
  -7  -5   6    1.10    0.80
   6   5  -6   29.60    2.00
  -6  -5   6   30.40    1.80
  -6  -5   6   33.80    2.10
  -6  -5   6   30.00    2.30
   5   5  -6    0.60    0.70
  -5  -5   6    1.90    0.80
  -5  -5   6    2.60    0.70
  -5  -5   6    2.10    0.60
   4   5  -6   12.50    1.30
   4   5  -6   12.90    1.30
  -4  -5   6   15.40    1.10
  -4  -5   6   15.20    1.30
   3   5  -6   74.49    3.80
   3   5  -6   85.49    4.00
  -3  -5   6   82.79    3.70
  -3  -5   6   85.99    3.80
   2   5  -6   47.00    2.60
   2   5  -6   44.30    2.40
  -2  -5   6   50.19    2.60
  -2  -5   6   50.79    2.40
   1   5  -6   10.60    1.10
   1   5  -6    8.70    1.00
  -1  -5   6    9.80    1.10
  -1  -5   6   12.00    1.10
   0   5  -6   25.40    1.80
   0  -5   6   25.10    1.60
   0  -5   6   28.00    1.60
  -1   5  -6   76.79    3.70
   1  -5   6   77.99    3.60
   1  -5   6   78.69    3.60
  -2   5  -6   77.29    3.80
   2  -5   6   77.99    3.60
  -3   5  -6   16.30    1.40
   3  -5   6   14.60    1.30
   3  -5   6   15.80    1.40
  -4   5  -6   22.80    1.60
   4  -5   6   22.20    1.80
  -5   5  -6    0.90    0.70
  -5   5  -6    0.50    0.70
   5  -5   6    0.30    0.80
  -6   5  -6   13.80    1.40
  -6   5  -6    9.00    1.20
   6  -5   6   10.60    1.40
  -7   5  -6    2.20    1.00
  -7   5  -6    3.80    0.90
   7  -5   6    2.90    1.10
  -8   5  -6    3.00    0.90
  -8   5  -6    3.50    1.00
   8  -5   6    2.40    1.10
  -9   5  -6   10.00    1.30
  -9   5  -6    9.40    1.40
   9  -5   6    9.10    1.60
 -10   5  -6    2.20    1.20
 -10   5  -6    5.10    1.10
  10  -5   6    4.90    1.50
 -11   5  -6    0.50    1.10
 -11   5  -6   -0.40    0.90
  11  -5   6    0.90    1.20
 -12   5  -6    0.80    0.90
 -12   5  -6    0.40    1.30
  12  -5   6   -1.30    1.30
 -13   5  -6    2.00    1.20
 -13   5  -6   -0.90    1.00
  13  -5   6   -1.50    1.30
 -14   5  -6    0.60    1.50
  14  -5   6    1.60    1.70
  13   4  -6    6.40    1.30
 -13  -4   6    9.60    1.50
 -13  -4   6    8.70    1.70
  12   4  -6    0.40    1.10
 -12  -4   6   -0.90    1.10
 -12  -4   6    1.40    1.10
  11   4  -6   13.30    1.40
 -11  -4   6    9.80    1.50
 -11  -4   6    8.70    1.40
  10   4  -6    1.00    0.90
 -10  -4   6    1.10    0.90
   9   4  -6   31.20    2.10
  -9  -4   6   35.30    2.30
  -9  -4   6   30.80    2.00
   8   4  -6    9.10    1.20
  -8  -4   6    9.50    1.30
   7   4  -6    6.10    1.00
  -7  -4   6    7.00    1.20
  -7  -4   6    6.80    0.90
   6   4  -6    3.60    0.90
  -6  -4   6    3.00    1.00
  -6  -4   6    4.00    0.80
  -6  -4   6    2.80    0.80
   5   4  -6    7.10    1.10
  -5  -4   6    7.70    0.90
  -5  -4   6    8.20    0.90
  -5  -4   6    7.80    1.10
   4   4  -6   30.40    1.90
   4   4  -6   32.70    2.00
  -4  -4   6   39.80    2.10
  -4  -4   6   34.00    1.80
   3   4  -6  159.78    6.80
   3   4  -6  147.89    6.60
  -3  -4   6  159.28    6.50
  -3  -4   6  156.58    6.60
   2   4  -6    1.90    0.60
   2   4  -6    2.10    0.60
   2   4  -6    1.30    0.60
  -2  -4   6    1.00    0.50
  -2  -4   6    0.90    0.50
   1   4  -6    2.80    0.60
   1   4  -6    1.90    0.60
   1   4  -6    2.70    0.60
  -1  -4   6    3.20    0.60
  -1  -4   6    3.10    0.60
   0   4  -6    1.10    0.50
   0   4  -6    1.70    0.60
   0   4  -6    1.50    0.50
   0  -4   6    1.90    0.50
   0  -4   6    2.20    0.60
  -1   4  -6    0.50    0.50
  -1   4  -6    0.10    0.50
  -1   4  -6    0.70    0.60
   1  -4   6    0.10    0.50
   1  -4   6    0.30    0.40
  -2   4  -6   25.10    1.60
  -2   4  -6   25.60    1.50
   2  -4   6   25.30    1.50
   2  -4   6   25.60    1.60
  -3   4  -6   27.50    1.60
  -3   4  -6   29.80    1.70
   3  -4   6   26.50    2.10
   3  -4   6   30.40    1.70
  -4   4  -6   17.70    1.30
  -4   4  -6   19.30    1.30
  -4   4  -6   16.00    1.20
   4  -4   6   15.00    1.40
  -5   4  -6   45.20    2.30
  -5   4  -6   40.40    2.30
   5  -4   6   41.60    2.50
  -6   4  -6   59.59    3.00
   6  -4   6   62.69    3.20
  -7   4  -6   13.00    1.40
  -7   4  -6   13.40    1.30
   7  -4   6   13.80    1.60
  -8   4  -6    4.00    0.90
  -8   4  -6    2.10    0.90
   8  -4   6    5.10    1.30
  -9   4  -6   14.40    1.40
  -9   4  -6   14.00    1.50
   9  -4   6   12.30    1.80
 -10   4  -6   18.40    1.60
 -10   4  -6   18.10    1.70
  10  -4   6   17.00    2.10
 -11   4  -6   21.40    2.00
 -11   4  -6   21.60    1.70
  11  -4   6   17.70    2.10
 -12   4  -6    6.60    1.10
  12  -4   6    4.50    1.50
 -13   4  -6    6.90    1.40
 -13   4  -6    6.60    1.20
  13  -4   6    9.80    1.90
 -14   4  -6    0.60    1.00
 -14   4  -6    2.90    1.50
  14  -4   6   -0.30    1.50
  13   3  -6   -0.40    1.10
 -13  -3   6    2.20    1.30
 -13  -3   6    1.40    1.20
 -12  -3   6    1.60    1.10
 -12  -3   6    1.70    1.10
  11   3  -6   23.10    1.80
 -11  -3   6   24.70    2.10
 -11  -3   6   28.70    2.20
  10   3  -6   18.80    1.50
 -10  -3   6   17.50    1.60
 -10  -3   6   18.50    1.70
   9   3  -6    7.20    1.10
  -9  -3   6    7.90    1.10
  -9  -3   6    7.10    1.20
   8   3  -6   46.10    2.50
  -8  -3   6   43.50    2.50
  -8  -3   6   45.00    2.60
   7   3  -6  112.29    5.60
  -7  -3   6  115.69    5.20
  -7  -3   6  115.59    5.10
  -6  -3   6   69.19    3.30
  -6  -3   6   68.09    3.20
   5   3  -6   11.80    1.10
  -5  -3   6   11.50    1.10
  -5  -3   6   11.20    1.20
   4   3  -6    8.00    1.00
  -4  -3   6    9.00    0.90
  -4  -3   6    8.40    0.90
   3   3  -6  102.09    4.70
   3   3  -6  105.19    4.80
   3   3  -6  113.39    4.90
  -3  -3   6  111.69    4.70
  -3  -3   6  113.79    4.70
   2   3  -6   31.60    1.80
   2   3  -6   31.70    1.70
   2   3  -6   33.20    1.90
  -2  -3   6   35.90    1.80
  -2  -3   6   32.40    1.70
   1   3  -6   53.69    2.60
   1   3  -6   58.99    2.70
   1   3  -6   52.09    2.50
  -1  -3   6   55.59    2.50
  -1  -3   6   56.59    2.60
   0   3  -6   88.89    3.90
   0   3  -6   81.69    3.90
   0   3  -6   91.09    4.10
   0  -3   6   94.19    3.90
   0  -3   6   93.69    3.90
  -1   3  -6   91.19    4.00
  -1   3  -6   79.29    3.80
  -1   3  -6   85.49    3.80
   1  -3   6   89.19    3.80
   1  -3   6   91.59    3.90
  -2   3  -6   45.00    2.20
  -2   3  -6   40.70    2.00
  -2   3  -6   40.30    2.10
   2  -3   6   43.60    2.10
   2  -3   6   42.20    2.20
  -3   3  -6   32.00    1.80
  -3   3  -6   30.30    1.60
   3  -3   6   29.70    1.80
   3  -3   6   33.00    1.70
  -4   3  -6    3.40    0.60
  -4   3  -6    3.50    0.70
  -4   3  -6    2.60    0.60
   4  -3   6    2.10    0.70
  -5   3  -6    7.70    0.90
  -5   3  -6    7.30    0.90
  -5   3  -6    6.90    0.90
   5  -3   6    7.90    1.10
  -6   3  -6   26.40    1.60
  -6   3  -6   23.40    1.60
   6  -3   6   21.20    1.80
  -7   3  -6   -0.20    0.70
  -7   3  -6    0.20    1.00
   7  -3   6   -0.20    0.70
  -8   3  -6   25.00    1.70
  -8   3  -6   26.60    2.10
   8  -3   6   22.90    2.00
  -9   3  -6    0.80    0.60
  -9   3  -6    0.10    0.70
   9  -3   6   -0.30    0.80
 -10   3  -6    2.00    1.00
 -10   3  -6    2.40    0.80
  10  -3   6    2.30    1.10
 -11   3  -6   13.70    1.50
 -11   3  -6   13.40    1.30
  11  -3   6   12.30    1.80
 -12   3  -6    3.00    0.80
 -12   3  -6    1.40    1.10
  12  -3   6    1.70    1.40
 -13   3  -6    2.00    1.30
 -13   3  -6    2.10    0.90
  13  -3   6    4.90    1.40
 -14   3  -6    2.00    1.30
  14  -3   6    3.70    1.60
 -15   3  -6    3.10    1.50
  15  -3   6    0.40    1.80
 -14  -2   6    0.50    1.30
 -14  -2   6   -0.30    1.30
  13   2  -6    4.40    1.10
 -13  -2   6    5.50    1.40
 -13  -2   6    6.20    1.50
  12   2  -6    0.30    0.80
 -12  -2   6    1.40    1.20
 -12  -2   6    0.00    0.90
  11   2  -6   -0.30    0.70
  11   2  -6    2.50    1.10
 -11  -2   6    1.40    1.00
  10   2  -6    3.50    0.80
 -10  -2   6    4.40    1.10
 -10  -2   6    3.70    1.00
   9   2  -6    0.60    0.60
  -9  -2   6    1.60    0.80
  -9  -2   6    1.30    0.80
   8   2  -6   15.70    1.30
  -8  -2   6   15.40    1.40
  -8  -2   6   16.50    1.40
  -8  -2   6   15.00    1.70
   7   2  -6   11.50    1.10
  -7  -2   6   12.70    1.30
  -7  -2   6   12.00    1.20
  -7  -2   6   13.60    1.30
   6   2  -6    6.60    0.90
  -6  -2   6    8.30    1.10
  -6  -2   6    7.50    1.00
  -6  -2   6    5.80    0.90
   5   2  -6    0.30    0.40
  -5  -2   6   -0.30    0.40
  -5  -2   6    0.60    0.40
  -5  -2   6   -0.60    0.50
  -5  -2   6    0.40    0.60
   4   2  -6    7.30    0.90
   4   2  -6    8.20    0.90
  -4  -2   6    7.40    0.90
  -4  -2   6    6.80    0.90
  -4  -2   6    6.20    0.80
  -4  -2   6    7.80    0.90
   3   2  -6    2.10    0.50
   3   2  -6    0.70    0.40
   3   2  -6    0.50    0.50
  -3  -2   6    2.40    0.50
  -3  -2   6    0.90    0.40
  -3  -2   6    1.40    0.50
   2   2  -6   46.90    2.20
   2   2  -6   42.00    2.10
   2   2  -6   42.50    2.30
  -2  -2   6   45.40    2.10
  -2  -2   6   39.20    2.20
  -2  -2   6   46.50    2.10
   1   2  -6    1.20    0.50
   1   2  -6    1.70    0.40
  -1  -2   6    1.30    0.40
  -1  -2   6    2.30    0.50
  -1  -2   6    1.20    0.40
   0   2  -6   97.09    4.40
   0   2  -6  100.99    4.30
   0   2  -6  106.89    4.50
   0  -2   6  102.09    4.50
   0  -2   6  104.29    4.40
   0  -2   6  101.89    4.30
  -1   2  -6   31.50    1.60
  -1   2  -6   30.10    1.50
  -1   2  -6   30.10    1.70
   1  -2   6   30.50    1.50
   1  -2   6   29.70    1.60
   1  -2   6   28.20    1.60
  -2   2  -6  116.29    4.80
  -2   2  -6  114.39    4.60
  -2   2  -6  102.79    4.70
   2  -2   6  101.89    4.80
   2  -2   6  117.69    4.80
   2  -2   6  115.39    4.70
  -3   2  -6  212.48    8.50
  -3   2  -6  218.88    8.70
  -3   2  -6  197.88    8.60
   3  -2   6  199.58    8.70
   3  -2   6  223.18    8.70
  -4   2  -6  306.67   12.30
  -4   2  -6  305.87   12.20
  -4   2  -6  304.67   12.10
   4  -2   6  310.57   12.30
   4  -2   6  280.77   12.20
  -5   2  -6  109.69    4.80
  -5   2  -6  109.19    4.70
  -5   2  -6  106.49    4.60
   5  -2   6  100.89    4.70
   5  -2   6  116.89    4.90
  -6   2  -6  118.59    5.10
  -6   2  -6  120.39    5.10
  -6   2  -6  118.09    5.20
   6  -2   6  120.39    5.30
  -7   2  -6  167.88    7.10
  -7   2  -6  169.68    7.10
   7  -2   6  168.68    7.30
  -8   2  -6   25.10    1.70
   8  -2   6   26.60    2.00
  -9   2  -6    0.80    0.80
  -9   2  -6    0.70    0.60
   9  -2   6   -0.30    0.80
 -10   2  -6   40.00    2.40
 -10   2  -6   41.30    2.40
  10  -2   6   38.50    2.70
 -11   2  -6    7.80    1.30
  11  -2   6    8.50    1.60
 -12   2  -6    5.10    1.20
  13  -2   6    2.80    1.40
 -14   2  -6    2.80    1.30
 -14   2  -6    0.70    1.00
  14  -2   6    0.90    1.30
 -15   2  -6   -1.20    1.30
  15  -2   6   -1.20    1.50
 -14  -1   6    2.70    1.20
 -14  -1   6    1.00    1.50
 -13  -1   6   -0.80    1.10
 -13  -1   6    0.10    1.20
  12   1  -6    2.80    0.60
 -12  -1   6    2.30    1.20
 -12  -1   6    2.70    1.10
  11   1  -6   19.90    1.30
  11   1  -6   20.20    1.60
 -11  -1   6   23.00    1.90
 -11  -1   6   21.60    2.00
  10   1  -6   14.60    1.20
 -10  -1   6   13.70    1.50
 -10  -1   6   16.70    1.70
   9   1  -6   39.40    1.90
  -9  -1   6   33.80    2.20
  -9  -1   6   34.60    2.30
   8   1  -6   50.89    2.60
  -8  -1   6   55.99    2.80
  -8  -1   6   47.70    2.70
  -8  -1   6   57.09    2.90
   7   1  -6   81.59    3.60
  -7  -1   6   84.99    3.80
  -7  -1   6   75.19    3.70
  -7  -1   6   81.79    4.70
   6   1  -6  111.99    4.60
  -6  -1   6  105.39    4.70
  -6  -1   6   99.79    4.60
  -6  -1   6  106.69    4.80
   5   1  -6   73.49    3.40
   5   1  -6   80.59    3.40
  -5  -1   6   74.69    3.40
  -5  -1   6   74.89    3.50
  -5  -1   6   69.09    3.50
  -5  -1   6   72.29    3.50
   4   1  -6   46.50    2.30
   4   1  -6   44.20    2.40
  -4  -1   6   49.50    2.30
  -4  -1   6   46.50    2.40
  -4  -1   6   46.10    2.20
  -4  -1   6   47.30    2.40
   3   1  -6   52.39    2.50
   3   1  -6   51.59    2.60
   3   1  -6   52.89    2.40
  -3  -1   6   53.09    2.40
  -3  -1   6   52.39    2.50
   2   1  -6  153.88    6.90
   2   1  -6  170.08    6.80
   2   1  -6  162.38    6.60
  -2  -1   6  162.78    6.70
  -2  -1   6  158.58    6.60
   1   1  -6    5.40    0.70
   1   1  -6    7.40    0.80
   1   1  -6    6.60    0.60
  -1  -1   6    6.70    0.50
  -1  -1   6    8.10    1.10
  -1  -1   6    5.90    0.70
   0   1  -6   24.40    1.30
   0   1  -6   21.50    1.30
   0   1  -6   22.90    1.10
   0  -1   6   22.80    1.30
   0  -1   6   22.50    1.10
   0  -1   6   24.00    1.40
  -1   1  -6   28.80    1.80
  -1   1  -6   30.20    1.50
  -1   1  -6   34.10    1.70
   1  -1   6   34.60    1.50
   1  -1   6   30.30    1.70
   1  -1   6   33.90    1.70
  -2   1  -6    0.40    0.40
  -2   1  -6    0.10    0.30
  -2   1  -6    0.60    0.30
   2  -1   6    0.20    0.30
   2  -1   6    0.10    0.30
   2  -1   6    0.90    0.30
  -3   1  -6    4.20    0.50
  -3   1  -6    3.90    0.50
  -3   1  -6    4.20    0.60
  -3   1  -6    3.30    0.50
   3  -1   6    3.50    0.60
   3  -1   6    4.00    0.60
  -4   1  -6   17.40    1.00
  -4   1  -6   16.70    1.10
  -4   1  -6   16.60    1.00
  -4   1  -6   17.90    1.20
   4  -1   6   20.10    1.30
   4  -1   6   16.10    1.10
  -5   1  -6    7.50    0.80
  -5   1  -6    7.40    0.80
  -5   1  -6    7.40    0.90
   5  -1   6    8.00    0.80
   5  -1   6    8.90    1.00
  -6   1  -6    1.50    0.50
  -6   1  -6    2.00    0.60
  -6   1  -6    1.70    0.50
   6  -1   6    4.50    0.70
   6  -1   6    2.60    0.70
  -7   1  -6   18.60    1.30
  -7   1  -6   16.70    1.30
  -7   1  -6   19.10    1.30
   7  -1   6   21.00    1.50
   7  -1   6   17.20    1.30
  -8   1  -6  183.78    7.50
  -8   1  -6  178.68    7.50
   8  -1   6  178.38    7.70
   8  -1   6  170.98    7.50
  -9   1  -6   14.10    1.30
  -9   1  -6   15.60    1.20
   9  -1   6   14.50    1.70
 -10   1  -6   26.00    1.90
 -10   1  -6   27.50    1.80
  10  -1   6   30.40    2.20
 -11   1  -6   34.60    2.30
 -11   1  -6   35.10    2.00
  11  -1   6   33.90    2.60
 -12   1  -6   27.90    2.00
 -12   1  -6   22.40    1.70
  12  -1   6   25.60    2.40
 -13   1  -6   11.10    1.40
 -13   1  -6   11.10    1.50
  13  -1   6    9.50    1.80
 -14   1  -6    2.90    1.30
 -14   1  -6    5.60    1.10
  14  -1   6    3.50    1.40
 -15   1  -6    1.10    1.40
 -15   1  -6    2.60    1.20
  15  -1   6    0.50    1.50
 -16   1  -6    0.20    1.50
  16  -1   6   -1.50    1.80
 -14   0   6    5.80    1.50
 -14   0   6    3.40    1.50
 -13   0   6    1.30    1.10
 -12   0   6   12.10    1.80
 -12   0   6   14.20    1.70
  11   0  -6    3.80    0.70
 -11   0   6    3.80    1.00
 -11   0   6    2.90    1.10
  10   0  -6   10.10    0.90
 -10   0   6    7.60    1.20
 -10   0   6    8.90    1.40
   9   0  -6    1.30    0.50
  -9   0   6    2.30    0.80
  -9   0   6    2.20    0.60
  -9   0   6    2.00    0.80
   8   0  -6    5.40    0.70
  -8   0   6    5.30    0.90
  -8   0   6    5.20    0.70
  -8   0   6    5.90    1.00
   7   0  -6    0.60    0.50
  -7   0   6    0.70    0.70
  -7   0   6    1.60    0.60
  -7   0   6    1.60    0.50
   6   0  -6   78.79    3.40
  -6   0   6   75.19    3.70
  -6   0   6   79.79    3.50
  -6   0   6   74.19    3.40
   5   0  -6   76.09    3.20
   5   0  -6   71.09    3.30
  -5   0   6   71.29    3.50
  -5   0   6   73.59    3.30
  -5   0   6   73.99    3.40
  -5   0   6   71.79    3.20
   4   0  -6  288.97   12.00
   4   0  -6  305.47   12.10
  -4   0   6  301.87   12.00
  -4   0   6  312.17   12.20
  -4   0   6  299.17   12.30
  -4   0   6  287.67   12.10
   3   0  -6  148.49    6.20
   3   0  -6  155.08    6.30
  -3   0   6  156.18    6.30
  -3   0   6  153.78    6.40
  -3   0   6  148.89    6.30
   2   0  -6   60.09    2.90
   2   0  -6   64.19    2.90
   2   0  -6   64.19    2.70
  -2   0   6   66.39    2.90
  -2   0   6   59.79    2.80
  -2   0   6   61.59    2.70
   1   0  -6  505.05   19.70
   1   0  -6  525.35   19.90
   1   0  -6  479.55   19.90
  -1   0   6  489.95   19.70
  -1   0   6  487.05   19.90
  -1   0   6  508.65   19.90
   0   0  -6   71.19    3.30
   0   0  -6   78.89    3.30
   0   0   6   74.09    3.30
   0   0   6   78.69    3.30
   0   0   6   72.59    3.10
  -1   0  -6   58.99    2.50
  -1   0  -6   63.09    2.70
  -1   0  -6   58.69    2.70
   1   0   6   56.39    2.70
   1   0   6   60.89    2.70
  -2   0  -6   39.80    2.00
  -2   0  -6   44.30    1.90
  -2   0  -6   44.10    2.10
   2   0   6   42.80    2.10
   2   0   6   46.80    2.10
  -3   0  -6   69.69    2.90
  -3   0  -6   66.29    3.10
  -3   0  -6   68.09    2.80
   3   0   6   64.59    3.20
   3   0   6   68.09    3.00
  -4   0  -6   19.20    1.20
  -4   0  -6   20.20    1.00
  -4   0  -6   19.70    1.20
  -4   0  -6   18.90    1.00
   4   0   6   19.70    1.20
   4   0   6   16.30    1.50
  -5   0  -6   44.10    2.10
  -5   0  -6   41.90    2.10
  -5   0  -6   46.80    2.20
  -5   0  -6   44.80    2.10
   5   0   6   43.60    2.20
   5   0   6   46.90    2.30
  -6   0  -6   45.80    2.10
  -6   0  -6   45.00    2.20
   6   0   6   38.60    2.10
   6   0   6   43.50    2.30
   6   0   6   42.50    2.10
  -7   0  -6   16.60    1.20
  -7   0  -6   18.00    1.20
   7   0   6   17.70    1.20
   7   0   6   17.00    1.20
  -8   0  -6    8.50    1.00
  -8   0  -6    9.40    1.00
   8   0   6   11.40    1.30
   8   0   6    9.80    1.00
   8   0   6   10.50    1.10
  -9   0  -6   51.29    2.70
   9   0   6   54.29    2.90
 -10   0  -6    0.30    0.60
 -10   0  -6   -0.80    0.70
  10   0   6   -0.80    0.80
 -11   0  -6    7.60    1.10
 -11   0  -6    7.80    1.20
  11   0   6    7.60    1.40
 -12   0  -6    1.40    0.70
 -12   0  -6    0.80    0.80
  12   0   6    1.30    1.00
 -13   0  -6   -0.70    0.90
 -13   0  -6    0.70    0.80
  13   0   6    2.50    1.30
 -14   0  -6   -0.90    1.10
 -14   0  -6    0.70    0.90
  14   0   6    2.20    1.40
 -15   0  -6   -0.30    1.10
 -15   0  -6    1.80    1.10
  15   0   6   -1.20    1.50
 -16   0  -6    4.70    1.50
  16   0   6    0.30    1.70
 -14   1   6    7.30    1.60
 -14   1   6    3.30    1.60
 -13   1   6   12.40    1.60
 -13   1   6   13.20    2.00
 -12   1   6   23.20    2.00
 -12   1   6   23.20    2.30
 -11   1   6   45.80    3.00
 -11   1   6   51.89    2.90
 -10   1   6   49.30    3.00
 -10   1   6   48.00    2.70
   9  -1  -6   25.70    1.30
  -9   1   6   24.80    2.00
  -9   1   6   25.30    1.80
  -9   1   6   24.20    1.30
   8  -1  -6   55.39    2.40
  -8   1   6   52.59    3.00
  -8   1   6   55.39    2.80
  -8   1   6   52.89    2.50
   7  -1  -6   32.80    1.60
  -7   1   6   30.00    1.60
  -7   1   6   29.10    2.00
   6  -1  -6    6.70    0.70
   6  -1  -6    5.80    0.80
  -6   1   6    6.10    0.90
  -6   1   6    5.30    0.60
  -6   1   6    7.00    0.80
   5  -1  -6    3.20    0.50
  -5   1   6    1.40    0.50
  -5   1   6    2.30    0.50
  -5   1   6    1.30    0.40
  -5   1   6    2.40    0.60
   4  -1  -6   15.50    1.00
   4  -1  -6   16.00    1.00
  -4   1   6   15.00    1.20
  -4   1   6   15.10    1.10
  -4   1   6   13.60    0.90
  -4   1   6   12.50    0.90
   3  -1  -6    1.70    0.40
   3  -1  -6    2.30    0.40
  -3   1   6    3.20    0.60
  -3   1   6    3.40    0.50
  -3   1   6    3.60    0.60
  -3   1   6    3.60    0.50
   2  -1  -6    7.70    0.70
   2  -1  -6   10.90    0.90
   2  -1  -6    9.00    0.60
  -2   1   6   11.30    0.80
  -2   1   6    8.30    0.70
  -2   1   6    8.40    0.60
   1  -1  -6   44.20    2.10
   1  -1  -6   43.60    2.10
   1  -1  -6   45.20    1.90
  -1   1   6   41.90    2.10
  -1   1   6   40.90    2.00
  -1   1   6   43.60    1.80
   0  -1  -6   62.69    2.90
   0  -1  -6   64.09    2.80
   0  -1  -6   63.89    2.60
   0   1   6   62.39    2.80
   0   1   6   61.59    2.60
   0   1   6   67.29    2.80
  -1  -1  -6  104.19    4.30
  -1  -1  -6   98.39    4.30
   1   1   6   98.09    4.30
   1   1   6  104.29    4.30
  -2  -1  -6    7.70    0.40
  -2  -1  -6    8.10    0.70
  -2  -1  -6    7.50    0.40
  -2  -1  -6    7.80    0.70
   2   1   6    7.60    0.60
   2   1   6    7.60    0.70
  -3  -1  -6   22.50    1.20
  -3  -1  -6   22.10    1.30
  -3  -1  -6   22.90    1.00
  -3  -1  -6   22.10    1.00
   3   1   6   24.20    1.30
   3   1   6   21.40    1.20
  -4  -1  -6  127.29    5.30
  -4  -1  -6  123.09    5.00
   4   1   6  117.99    5.20
   4   1   6  128.59    5.20
  -5  -1  -6  132.99    5.30
  -5  -1  -6  127.99    5.50
  -5  -1  -6  125.09    5.40
   5   1   6  126.99    5.30
   5   1   6  132.29    5.50
  -6  -1  -6    2.70    0.50
  -6  -1  -6    2.90    0.60
  -6  -1  -6    2.50    0.60
   6   1   6    3.70    0.60
   6   1   6    2.70    0.60
   6   1   6    2.80    0.60
  -7  -1  -6   23.80    1.40
  -7  -1  -6   22.30    1.30
   7   1   6   20.20    1.50
   7   1   6   21.00    1.30
   7   1   6   23.30    1.40
  -8  -1  -6   11.60    1.00
  -8  -1  -6   10.00    1.10
   8   1   6   12.80    1.50
   8   1   6   11.40    1.10
   8   1   6   10.80    1.00
  -9  -1  -6    7.50    1.10
  -9  -1  -6    8.70    1.00
   9   1   6    8.90    1.20
   9   1   6    9.00    1.00
 -10  -1  -6    0.40    0.70
 -10  -1  -6    1.50    0.60
  10   1   6    1.30    0.90
 -11  -1  -6   34.50    2.00
 -11  -1  -6   30.20    2.10
  11   1   6   33.70    2.40
 -12  -1  -6   25.90    1.90
 -12  -1  -6   31.20    2.10
  12   1   6   34.50    2.40
 -13  -1  -6   21.60    2.00
  13   1   6   24.70    2.40
 -14  -1  -6   21.00    2.20
  14   1   6   24.40    3.40
 -15  -1  -6    3.60    1.20
  15   1   6    8.10    1.80
 -16  -1  -6    2.00    1.40
  16   1   6   -2.00    1.80
 -14   2   6    5.20    1.70
 -14   2   6    5.10    1.40
 -13   2   6    2.30    1.30
 -13   2   6    2.80    1.00
 -12   2   6    3.00    1.10
 -12   2   6    1.60    1.20
 -11   2   6   10.30    1.40
 -10   2   6    3.70    0.90
  -9   2   6    1.40    0.70
  -8   2   6    1.20    0.80
  -8   2   6    0.40    0.60
  -8   2   6    1.80    0.40
   7  -2  -6   10.80    0.70
  -7   2   6    9.60    1.20
  -7   2   6    9.80    0.80
  -7   2   6   11.50    1.30
   6  -2  -6    9.00    1.00
   6  -2  -6   11.90    0.80
  -6   2   6   10.90    1.00
  -6   2   6   12.90    0.80
  -6   2   6   14.50    1.30
   5  -2  -6   29.00    1.80
   5  -2  -6   33.20    1.60
  -5   2   6   30.40    1.50
  -5   2   6   31.20    1.60
  -5   2   6   33.20    1.90
   4  -2  -6   15.50    0.90
   4  -2  -6   15.50    1.00
  -4   2   6   15.10    0.90
  -4   2   6   15.30    1.20
  -4   2   6   15.50    1.20
  -4   2   6   14.60    0.90
   3  -2  -6   81.89    3.50
   3  -2  -6   84.09    3.50
  -3   2   6   82.29    3.50
  -3   2   6   83.69    3.50
  -3   2   6   80.39    3.80
  -3   2   6   82.59    3.70
   2  -2  -6   15.60    0.90
   2  -2  -6   16.10    0.80
  -2   2   6   13.10    0.80
  -2   2   6   14.70    1.00
  -2   2   6   14.10    1.00
  -2   2   6   14.40    0.80
   1  -2  -6  179.28    7.20
   1  -2  -6  179.08    7.00
   1  -2  -6  171.18    7.30
  -1   2   6  180.28    7.30
  -1   2   6  180.18    7.00
  -1   2   6  170.58    7.20
   0  -2  -6  119.89    5.20
   0  -2  -6  127.89    5.20
   0   2   6  118.69    5.10
   0   2   6  127.69    5.20
  -1  -2  -6   99.79    4.10
  -1  -2  -6   93.59    4.10
   1   2   6   91.89    4.00
   1   2   6   95.49    4.00
  -2  -2  -6  334.47   13.70
  -2  -2  -6  346.77   13.70
   2   2   6  360.66   13.70
   2   2   6  324.97   13.70
  -3  -2  -6   61.79    3.00
  -3  -2  -6   69.79    3.10
  -3  -2  -6   69.69    2.80
   3   2   6   67.19    2.80
   3   2   6   67.39    3.00
   3   2   6   70.79    3.00
  -4  -2  -6   51.09    2.40
  -4  -2  -6   56.49    2.50
   4   2   6   53.89    2.30
   4   2   6   53.89    2.40
   4   2   6   52.49    2.50
  -5  -2  -6    3.70    0.50
  -5  -2  -6    3.70    0.90
  -5  -2  -6    4.00    0.70
   5   2   6    3.80    0.60
   5   2   6    3.20    0.50
  -6  -2  -6    1.10    0.40
  -6  -2  -6    1.10    0.40
  -6  -2  -6    1.20    0.50
   6   2   6    1.60    0.60
   6   2   6    0.90    0.40
   6   2   6    0.90    0.40
  -7  -2  -6    0.20    0.50
  -7  -2  -6    0.20    0.40
  -7  -2  -6    0.70    0.40
   7   2   6    0.00    0.40
   7   2   6    1.10    0.60
   7   2   6    0.80    0.50
  -8  -2  -6   15.90    1.20
  -8  -2  -6   16.40    1.30
   8   2   6   17.00    1.20
   8   2   6   16.00    1.30
   8   2   6   15.50    1.20
  -9  -2  -6    6.40    1.00
  -9  -2  -6    6.10    0.90
   9   2   6    4.90    0.80
   9   2   6    6.00    1.00
 -10  -2  -6   -0.10    0.60
 -10  -2  -6    0.70    0.50
  10   2   6    1.00    0.70
 -11  -2  -6    7.50    1.10
 -11  -2  -6    9.10    1.30
  11   2   6   10.20    1.30
 -12  -2  -6    2.50    1.00
  12   2   6    2.40    1.10
 -13  -2  -6    6.20    1.30
 -13  -2  -6    4.80    0.90
  13   2   6    5.90    1.50
 -14  -2  -6    2.50    1.00
 -14  -2  -6    4.30    1.40
  14   2   6    0.90    1.40
 -15  -2  -6    3.60    1.30
  15   2   6   -0.30    1.50
 -16  -2  -6    4.00    1.40
  16   2   6    3.10    1.90
  14  -3  -6    3.90    1.50
 -14   3   6    2.30    1.30
  13  -3  -6    4.20    1.40
 -13   3   6    4.00    1.10
  12  -3  -6   14.20    2.10
 -12   3   6   17.20    1.80
  11  -3  -6   13.30    1.80
 -11   3   6   11.90    1.50
  10  -3  -6   66.49    3.70
 -10   3   6   66.19    3.40
   9  -3  -6    3.00    0.90
  -9   3   6    1.10    0.70
   8  -3  -6   35.10    2.30
  -8   3   6   35.50    2.10
   7  -3  -6   27.80    1.60
   7  -3  -6   31.10    2.00
  -7   3   6   28.60    1.40
   6  -3  -6    6.40    0.80
   6  -3  -6    4.60    0.50
  -6   3   6    5.90    0.60
  -6   3   6    7.30    0.80
   5  -3  -6    9.20    0.70
  -5   3   6    9.50    1.00
  -5   3   6    9.60    0.80
  -5   3   6    8.00    0.60
   4  -3  -6    7.30    0.70
   4  -3  -6    5.40    0.60
  -4   3   6    5.50    0.80
  -4   3   6    4.10    0.80
  -4   3   6    6.00    0.60
  -4   3   6    5.00    0.50
   3  -3  -6   35.10    1.70
   3  -3  -6   35.60    1.70
  -3   3   6   34.10    1.90
  -3   3   6   35.50    1.70
  -3   3   6   33.80    1.60
  -3   3   6   34.80    1.90
   2  -3  -6    6.50    0.50
   2  -3  -6    7.30    0.60
  -2   3   6    6.90    0.70
  -2   3   6    6.80    0.60
  -2   3   6    6.30    0.50
  -2   3   6    7.20    0.70
   1  -3  -6    5.20    0.60
   1  -3  -6    4.50    0.60
  -1   3   6    3.90    0.30
  -1   3   6    4.50    0.50
  -1   3   6    4.10    0.60
   0  -3  -6    3.40    0.50
   0  -3  -6    5.40    0.60
   0   3   6    5.00    0.50
   0   3   6    3.10    0.50
  -1  -3  -6   81.49    3.60
  -1  -3  -6   84.19    3.60
   1   3   6   82.19    3.60
   1   3   6   82.49    3.50
  -2  -3  -6   56.79    2.60
  -2  -3  -6   56.59    2.60
   2   3   6   55.09    2.60
   2   3   6   60.29    2.50
   2   3   6   55.79    2.30
  -3  -3  -6  383.76   15.10
  -3  -3  -6  381.36   15.40
  -3  -3  -6  378.06   15.30
   3   3   6  378.06   15.10
   3   3   6  400.26   15.30
   3   3   6  378.06   15.30
  -4  -3  -6  189.68    7.60
  -4  -3  -6  192.68    7.90
  -4  -3  -6  182.18    7.70
   4   3   6  186.88    7.60
   4   3   6  200.28    7.70
   4   3   6  183.68    7.80
  -5  -3  -6   82.39    3.60
  -5  -3  -6   87.49    3.60
  -5  -3  -6   83.29    3.80
   5   3   6   83.29    3.60
   5   3   6   83.09    3.70
   5   3   6   85.89    3.70
  -6  -3  -6   83.99    3.70
  -6  -3  -6   74.59    4.00
  -6  -3  -6   85.19    3.50
   6   3   6   77.69    3.60
   6   3   6   80.09    3.50
   6   3   6   86.29    3.60
  -7  -3  -6   17.60    1.20
  -7  -3  -6   20.20    1.20
  -7  -3  -6   17.70    1.30
   7   3   6   17.20    1.30
   7   3   6   18.50    1.20
   7   3   6   16.20    1.20
  -8  -3  -6   18.20    1.30
  -8  -3  -6   16.80    1.20
  -8  -3  -6   15.30    1.10
   8   3   6   16.60    1.30
   8   3   6   14.60    1.20
   8   3   6   16.20    1.20
  -9  -3  -6   68.29    3.20
  -9  -3  -6   64.29    3.20
   9   3   6   69.99    3.30
 -10  -3  -6    2.90    0.80
 -10  -3  -6    4.30    0.80
  10   3   6    0.50    0.70
 -11  -3  -6   34.10    2.20
  11   3   6   36.40    2.40
 -12  -3  -6   20.20    1.70
 -12  -3  -6   19.00    1.70
  12   3   6   23.10    2.00
 -13  -3  -6   12.30    1.40
 -13  -3  -6    8.80    1.40
  13   3   6    9.80    1.60
 -14  -3  -6   -0.60    1.10
 -14  -3  -6    0.00    1.00
  14   3   6   -0.30    1.30
 -15  -3  -6    1.50    1.20
  15   3   6    0.70    1.40
 -16  -3  -6    2.50    1.40
  16   3   6   -1.20    1.60
  16   3   6    1.80    1.70
  14  -4  -6    1.30    1.40
 -14   4   6    1.30    1.30
  13  -4  -6    3.30    1.30
 -13   4   6    3.00    1.20
  12  -4  -6    8.00    1.50
 -12   4   6    8.20    1.30
  11  -4  -6   20.40    2.10
 -11   4   6   24.40    1.90
  10  -4  -6   20.60    1.80
 -10   4   6   16.40    1.60
   9  -4  -6   61.59    3.40
  -9   4   6   59.79    3.10
   8  -4  -6   13.40    1.40
  -8   4   6   11.90    1.20
   7  -4  -6  168.88    6.60
   7  -4  -6  165.68    7.30
  -7   4   6  172.88    7.30
  -7   4   6  156.88    6.70
   6  -4  -6   95.79    5.40
   6  -4  -6  116.79    4.60
   6  -4  -6  114.09    5.10
  -6   4   6  112.59    4.80
  -6   4   6  108.09    4.50
   5  -4  -6  148.39    6.30
   5  -4  -6  133.59    6.00
   5  -4  -6  142.79    5.80
  -5   4   6  151.08    6.00
  -5   4   6  134.89    5.80
   4  -4  -6  146.39    5.90
   4  -4  -6  139.49    6.00
  -4   4   6  144.39    6.00
  -4   4   6  145.19    6.30
  -4   4   6  139.99    5.90
  -4   4   6  146.49    6.20
   3  -4  -6  141.89    5.80
   3  -4  -6  138.09    5.80
  -3   4   6  137.09    5.80
  -3   4   6  144.29    5.80
  -3   4   6  138.79    6.10
  -3   4   6  142.59    6.10
   2  -4  -6  206.68    8.30
  -2   4   6  203.88    8.50
  -2   4   6  205.58    8.20
  -2   4   6  206.98    8.20
  -2   4   6  196.18    8.30
   1  -4  -6   19.10    1.10
  -1   4   6   20.20    1.20
  -1   4   6   17.10    1.20
  -1   4   6   18.10    0.90
  -1   4   6   17.60    0.90
  -1   4   6   18.60    1.00
   0  -4  -6    8.60    0.70
   0  -4  -6    8.90    0.70
   0   4   6    7.40    0.50
   0   4   6    7.00    0.60
   0   4   6    7.50    0.60
   0   4   6    7.60    0.50
  -1  -4  -6   76.09    3.10
  -1  -4  -6   74.39    3.30
  -1  -4  -6   77.99    3.40
   1   4   6   77.29    3.30
   1   4   6   73.49    3.30
   1   4   6   73.09    3.10
  -2  -4  -6   83.19    3.70
  -2  -4  -6   85.49    3.40
  -2  -4  -6   82.29    3.60
   2   4   6   86.49    3.60
   2   4   6   83.59    3.70
   2   4   6   83.69    3.40
  -3  -4  -6   69.69    3.10
  -3  -4  -6   64.99    3.00
   3   4   6   66.79    2.80
   3   4   6   68.59    3.10
   3   4   6   71.19    3.00
  -4  -4  -6    5.70    0.60
  -4  -4  -6    7.00    0.80
  -4  -4  -6    6.20    0.50
   4   4   6    6.20    0.70
   4   4   6    5.90    0.50
   4   4   6    6.00    0.60
  -5  -4  -6   31.90    1.80
  -5  -4  -6   31.40    1.60
  -5  -4  -6   33.20    1.60
   5   4   6   32.60    1.60
   5   4   6   33.10    1.60
   5   4   6   31.70    1.70
  -6  -4  -6    8.20    0.90
  -6  -4  -6    8.70    0.80
  -6  -4  -6    8.60    0.80
   6   4   6    8.90    0.80
   6   4   6    8.10    0.90
   6   4   6    8.90    0.80
  -7  -4  -6   38.40    2.10
  -7  -4  -6   40.80    2.00
   7   4   6   37.60    2.10
   7   4   6   41.40    2.00
   7   4   6   37.50    2.20
  -8  -4  -6   45.10    2.30
  -8  -4  -6   44.80    2.20
  -8  -4  -6   39.70    2.10
   8   4   6   41.90    2.20
   8   4   6   42.80    2.20
  -9  -4  -6    0.00    0.70
  -9  -4  -6    0.10    0.60
   9   4   6    0.60    0.60
 -10  -4  -6    6.70    1.10
 -10  -4  -6    7.40    1.10
  10   4   6    9.80    1.40
 -11  -4  -6   39.60    2.40
 -11  -4  -6   39.80    2.30
  11   4   6   38.60    2.40
 -12  -4  -6   17.10    1.60
 -12  -4  -6   16.60    1.70
  12   4   6   18.30    1.80
 -13  -4  -6   12.60    1.60
 -13  -4  -6   14.50    1.80
  13   4   6   18.70    2.00
 -14  -4  -6   11.90    1.70
  14   4   6   11.70    1.60
  14   4   6   11.10    1.70
 -15  -4  -6    4.20    1.40
  15   4   6    8.10    1.70
  15   4   6    4.20    1.40
 -16  -4  -6    3.90    1.50
  16   4   6    1.70    1.50
  16   4   6    1.50    1.90
  14  -5  -6    0.30    1.40
 -14   5   6    0.40    1.10
  13  -5  -6   -1.80    1.20
 -13   5   6    0.30    1.10
  12  -5  -6    4.30    1.30
 -12   5   6    6.30    1.30
 -11   5   6   16.90    1.70
  10  -5  -6    2.50    1.00
 -10   5   6    2.00    0.90
   9  -5  -6   14.30    1.60
  -9   5   6   11.10    1.40
   8  -5  -6    3.30    0.90
  -8   5   6    4.70    0.90
   7  -5  -6  136.09    6.10
  -7   5   6  129.79    5.50
  -7   5   6  136.59    5.90
   6  -5  -6    4.40    0.90
   6  -5  -6    5.60    0.50
  -6   5   6    5.10    0.50
  -6   5   6    6.20    0.90
   5  -5  -6   28.30    1.40
   5  -5  -6   26.40    1.50
  -5   5   6   27.30    1.50
  -5   5   6   26.00    1.30
   4  -5  -6   98.09    4.60
   4  -5  -6  102.29    4.30
  -4   5   6  104.59    4.30
  -4   5   6   97.89    4.20
  -4   5   6   98.39    4.30
   3  -5  -6   27.20    1.50
  -3   5   6   28.20    1.40
  -3   5   6   24.90    1.60
  -3   5   6   27.80    1.60
  -3   5   6   28.20    1.40
  -3   5   6   28.00    1.40
   2  -5  -6   52.89    2.40
  -2   5   6   48.40    2.60
  -2   5   6   52.29    2.40
  -2   5   6   54.19    2.30
  -2   5   6   51.29    2.60
  -2   5   6   51.79    2.30
   1  -5  -6   57.89    2.60
  -1   5   6   56.99    2.40
  -1   5   6   53.99    2.50
  -1   5   6   52.89    2.60
  -1   5   6   53.19    2.60
  -1   5   6   55.09    2.40
   0  -5  -6   29.70    1.60
   0  -5  -6   28.00    1.40
   0   5   6   28.80    1.40
   0   5   6   29.50    1.50
   0   5   6   30.60    1.60
   0   5   6   32.00    1.60
  -1  -5  -6  285.47   11.40
  -1  -5  -6  284.27   11.60
  -1  -5  -6  297.87   11.70
   1   5   6  292.47   11.60
   1   5   6  282.57   11.70
   1   5   6  286.47   11.40
  -2  -5  -6  254.07   10.50
  -2  -5  -6  258.17   10.40
  -2  -5  -6  263.47   10.20
   2   5   6  245.08   10.20
   2   5   6  265.67   10.30
  -3  -5  -6  184.68    7.40
  -3  -5  -6  183.68    7.50
  -3  -5  -6  184.88    7.70
   3   5   6  195.88    7.40
   3   5   6  173.68    7.40
   3   5   6  177.78    7.60
  -4  -5  -6  300.37   11.80
  -4  -5  -6  298.17   12.10
  -4  -5  -6  283.37   11.80
   4   5   6  300.67   11.80
   4   5   6  297.47   11.80
   4   5   6  293.17   12.00
  -5  -5  -6  115.29    4.70
  -5  -5  -6  109.39    4.60
  -5  -5  -6  113.49    4.90
   5   5   6  107.29    4.80
   5   5   6  104.69    4.60
   5   5   6  113.99    4.60
  -6  -5  -6  142.29    6.00
  -6  -5  -6  143.59    6.30
  -6  -5  -6  151.98    6.10
   6   5   6  151.38    6.00
   6   5   6  140.49    6.50
   6   5   6  143.49    6.10
  -7  -5  -6   79.59    3.50
  -7  -5  -6   72.09    3.30
  -7  -5  -6   78.79    3.70
   7   5   6   73.69    3.50
   7   5   6   82.09    3.40
  -8  -5  -6   46.70    3.00
  -8  -5  -6   56.29    2.60
   8   5   6   52.49    2.50
  -9  -5  -6   41.80    2.40
  -9  -5  -6   43.30    2.30
  -9  -5  -6   37.70    2.10
   9   5   6   47.80    2.30
 -10  -5  -6   10.80    1.30
 -10  -5  -6    9.80    1.20
  10   5   6    9.60    1.20
 -11  -5  -6    7.50    1.10
 -11  -5  -6    9.40    1.30
 -12  -5  -6    4.50    1.00
 -12  -5  -6    5.60    1.20
  12   5   6    7.30    1.30
 -13  -5  -6    0.20    1.00
  13   5   6   -0.10    1.10
  13   5   6    0.40    1.10
 -14  -5  -6    0.30    1.10
  14   5   6    1.90    1.30
  14   5   6    0.10    1.30
 -15  -5  -6    4.20    1.50
  15   5   6    2.90    1.60
  15   5   6    3.40    1.60
 -16  -5  -6   -0.70    1.40
  16   5   6   -1.30    1.60
  16   5   6    0.60    1.80
  14  -6  -6    0.60    1.50
 -14   6   6    1.50    1.20
  13  -6  -6   12.50    1.90
 -13   6   6   12.20    1.70
  12  -6  -6   17.90    2.20
 -12   6   6   17.00    1.80
  11  -6  -6   27.10    2.40
 -11   6   6   24.90    2.40
  10  -6  -6   39.40    2.80
 -10   6   6   44.00    2.60
   9  -6  -6   53.19    3.10
  -9   6   6   53.99    2.90
   8  -6  -6    1.90    0.80
  -8   6   6    3.00    0.80
   7  -6  -6    7.10    1.20
  -7   6   6    7.00    0.60
  -7   6   6    9.40    1.10
   6  -6  -6   64.79    3.40
  -6   6   6   64.49    3.40
  -6   6   6   61.79    2.80
  -6   6   6   69.49    2.90
   5  -6  -6   23.40    1.30
   5  -6  -6   24.20    1.70
  -5   6   6   23.00    1.20
  -5   6   6   23.50    1.50
   4  -6  -6   38.20    2.10
   4  -6  -6   35.90    1.80
  -4   6   6   34.60    1.90
  -4   6   6   38.60    1.90
  -4   6   6   35.10    1.70
   3  -6  -6  200.58    8.50
   3  -6  -6  207.48    8.30
  -3   6   6  202.48    8.30
  -3   6   6  197.68    8.30
  -3   6   6  206.78    8.50
  -3   6   6  195.18    8.20
   2  -6  -6  112.69    4.80
  -2   6   6  110.29    4.90
  -2   6   6  113.09    4.70
  -2   6   6  109.09    4.70
  -2   6   6  108.19    4.70
  -2   6   6  113.49    4.90
   1  -6  -6    9.80    0.90
  -1   6   6   10.10    0.80
  -1   6   6    9.50    0.80
  -1   6   6   10.00    0.80
  -1   6   6    9.40    0.70
  -1   6   6   10.60    0.90
   0  -6  -6  132.39    5.80
   0  -6  -6  134.29    5.50
   0   6   6  136.79    5.70
   0   6   6  136.89    5.70
   0   6   6  131.59    5.50
   0   6   6  137.59    5.90
  -1  -6  -6   54.29    2.40
  -1  -6  -6   57.69    2.70
   1   6   6   51.99    2.50
   1   6   6   56.39    2.60
   1   6   6   52.59    2.40
   1   6   6   54.19    2.50
  -2  -6  -6   29.30    1.60
  -2  -6  -6   26.20    1.30
   2   6   6   26.30    1.50
   2   6   6   26.50    1.30
   2   6   6   23.80    1.30
  -3  -6  -6   33.70    1.90
  -3  -6  -6   34.60    1.70
  -3  -6  -6   34.00    1.70
   3   6   6   33.80    1.90
   3   6   6   36.70    1.60
   3   6   6   32.90    1.60
  -4  -6  -6   26.20    1.40
  -4  -6  -6   26.20    1.60
  -4  -6  -6   25.90    1.40
   4   6   6   25.10    1.40
   4   6   6   27.70    1.60
   4   6   6   28.20    1.30
  -5  -6  -6   60.99    3.00
  -5  -6  -6   58.39    2.70
  -5  -6  -6   62.09    2.80
   5   6   6   56.49    2.70
   5   6   6   63.99    2.60
  -6  -6  -6   40.00    1.90
  -6  -6  -6   37.00    2.10
  -6  -6  -6   33.30    1.70
   6   6   6   33.90    1.80
   6   6   6   36.60    1.80
  -7  -6  -6   49.30    2.40
  -7  -6  -6   44.60    2.20
  -7  -6  -6   48.50    2.80
   7   6   6   46.60    2.40
   7   6   6   47.50    2.20
  -8  -6  -6    1.70    0.80
  -8  -6  -6    2.30    0.80
  -8  -6  -6    1.30    0.50
   8   6   6    0.80    0.50
  -9  -6  -6    0.00    0.60
  -9  -6  -6    0.10    0.60
  -9  -6  -6   -0.30    0.60
   9   6   6   -0.20    0.60
 -10  -6  -6    1.70    0.80
 -10  -6  -6    1.00    0.60
 -10  -6  -6    1.20    0.80
  10   6   6    1.70    0.70
 -11  -6  -6   14.50    1.60
 -11  -6  -6   17.50    1.60
  11   6   6   15.60    1.50
 -12  -6  -6    1.50    0.90
  12   6   6    1.80    1.00
 -13  -6  -6    4.10    1.30
  13   6   6    3.80    1.30
  13   6   6    4.90    1.20
 -14  -6  -6   12.10    1.70
  14   6   6    8.90    1.50
  14   6   6   10.60    1.60
 -15  -6  -6   12.10    1.80
  15   6   6   13.50    1.80
  15   6   6   16.20    1.90
 -14   7   6    0.90    1.30
  13  -7  -6    1.70    1.50
 -13   7   6    1.90    1.20
  12  -7  -6    0.70    1.10
 -12   7   6    1.30    0.90
  11  -7  -6   -1.20    0.90
 -11   7   6   -0.40    0.90
 -10   7   6    5.20    1.20
   9  -7  -6   39.00    2.70
  -9   7   6   37.20    2.40
   8  -7  -6    0.40    0.70
  -8   7   6    0.00    0.60
   7  -7  -6  170.08    7.60
  -7   7   6  172.98    6.90
  -7   7   6  175.58    7.30
  -7   7   6  159.38    6.80
   6  -7  -6   42.10    2.50
  -6   7   6   41.10    2.00
  -6   7   6   44.40    2.30
  -6   7   6   40.70    2.00
   5  -7  -6   93.59    4.40
  -5   7   6   91.59    4.50
  -5   7   6   86.89    3.90
  -5   7   6   93.99    4.00
  -4   7   6   69.59    4.00
  -4   7   6   75.79    3.50
  -4   7   6   76.69    3.30
   3  -7  -6   52.99    2.60
   3  -7  -6   51.99    2.70
  -3   7   6   52.49    2.50
  -3   7   6   54.19    2.50
  -3   7   6   52.19    2.50
   2  -7  -6  219.68    8.90
  -2   7   6  212.08    8.80
  -2   7   6  209.98    8.90
   1  -7  -6   52.49    2.50
   1  -7  -6   49.80    2.40
  -1   7   6   50.09    2.30
  -1   7   6   54.09    2.50
  -1   7   6   47.10    2.60
  -1   7   6   48.90    2.40
   0  -7  -6    4.00    0.70
   0  -7  -6    5.50    0.70
   0   7   6    4.60    0.70
   0   7   6    4.90    0.70
   0   7   6    4.70    0.60
   0   7   6    4.20    0.70
  -1  -7  -6   41.10    2.10
  -1  -7  -6   38.70    1.90
   1   7   6   39.60    2.10
   1   7   6   39.60    1.90
   1   7   6   37.00    1.80
   1   7   6   39.10    2.00
  -2  -7  -6   46.10    2.40
  -2  -7  -6   46.50    2.20
   2   7   6   45.10    2.40
   2   7   6   48.60    2.20
   2   7   6   46.20    2.20
   2   7   6   49.70    2.30
  -3  -7  -6   13.70    0.90
  -3  -7  -6   11.60    1.10
   3   7   6   12.70    0.90
   3   7   6   13.60    0.80
   3   7   6   12.20    0.90
  -4  -7  -6    0.60    0.40
  -4  -7  -6    0.90    0.50
   4   7   6    0.50    0.30
   4   7   6    0.40    0.50
  -5  -7  -6   42.40    2.10
  -5  -7  -6   46.00    2.20
   5   7   6   45.00    2.00
   5   7   6   42.60    2.10
  -6  -7  -6    6.50    0.70
  -6  -7  -6    7.00    1.00
  -6  -7  -6    7.80    0.90
   6   7   6    5.70    0.80
   6   7   6    5.90    0.60
  -7  -7  -6   13.60    1.30
  -7  -7  -6   12.70    1.00
  -7  -7  -6   14.60    1.20
   7   7   6   13.30    0.90
  -8  -7  -6    0.30    0.50
  -8  -7  -6   -0.70    0.60
  -8  -7  -6    0.20    0.50
   8   7   6   -0.10    0.50
  -9  -7  -6    0.70    0.70
  -9  -7  -6    0.40    0.60
  -9  -7  -6    0.20    0.60
   9   7   6    0.10    0.60
 -10  -7  -6    9.60    1.10
 -10  -7  -6   12.30    1.40
  10   7   6   10.40    1.10
 -11  -7  -6    4.50    1.10
 -11  -7  -6    1.60    0.90
  11   7   6    7.10    1.30
  11   7   6    4.60    0.90
 -12  -7  -6   -0.50    0.90
  12   7   6   -0.20    0.90
  12   7   6    0.40    1.10
 -13  -7  -6    5.50    1.30
  13   7   6    7.10    1.60
  13   7   6    5.30    1.40
 -14  -7  -6    3.50    1.40
  14   7   6    5.30    1.50
  14   7   6    5.60    1.30
 -15  -7  -6    0.10    1.30
  15   7   6   -0.40    1.60
  15   7   6    1.40    1.50
  13  -8  -6    3.30    1.50
 -13   8   6    3.90    1.40
  12  -8  -6   19.50    2.20
 -12   8   6   14.60    1.90
  11  -8  -6    7.50    1.70
 -11   8   6    9.30    1.50
  10  -8  -6   31.90    2.60
 -10   8   6   30.50    2.60
   9  -8  -6   17.40    2.00
  -9   8   6   14.10    1.60
   8  -8  -6    6.80    1.30
  -8   8   6    6.40    0.60
  -8   8   6    6.50    1.10
  -8   8   6    6.00    0.60
   7  -8  -6   18.30    1.80
  -7   8   6   16.00    1.10
  -7   8   6   18.60    1.50
  -7   8   6   15.90    1.10
   6  -8  -6   18.00    1.60
  -6   8   6   18.70    1.20
  -6   8   6   16.60    1.40
  -6   8   6   17.00    1.10
   5  -8  -6    8.30    1.20
  -5   8   6    9.50    1.10
  -5   8   6    7.30    0.80
  -5   8   6    7.00    0.90
   4  -8  -6    1.80    0.70
  -4   8   6    2.00    0.60
  -4   8   6    2.40    0.60
   3  -8  -6    8.50    1.10
  -3   8   6    9.50    1.00
  -3   8   6    7.90    0.90
  -3   8   6    6.90    0.90
   2  -8  -6    2.00    0.60
  -2   8   6    2.00    0.50
  -2   8   6    2.60    0.60
  -2   8   6    1.20    0.60
  -2   8   6    2.10    0.70
   1  -8  -6   53.69    2.50
   1  -8  -6   52.89    2.70
  -1   8   6   49.10    2.60
  -1   8   6   52.09    2.70
  -1   8   6   55.89    2.50
  -1   8   6   54.49    2.60
   0  -8  -6   58.99    2.70
   0  -8  -6   60.99    2.90
   0   8   6   59.19    2.70
   0   8   6   52.99    2.60
   0   8   6   55.79    2.80
  -1  -8  -6   27.30    1.70
  -1  -8  -6   25.00    1.50
   1   8   6   26.50    1.50
   1   8   6   27.60    1.40
   1   8   6   23.20    1.40
  -2  -8  -6   14.20    1.00
  -2  -8  -6   14.70    1.30
   2   8   6   14.50    0.90
   2   8   6   12.90    1.00
   2   8   6   12.10    1.00
  -3  -8  -6  167.68    7.40
  -3  -8  -6  170.18    6.90
   3   8   6  152.98    6.80
   3   8   6  170.48    6.70
   3   8   6  162.48    6.80
  -4  -8  -6   11.20    1.10
  -4  -8  -6   11.30    1.00
   4   8   6   11.50    0.90
   4   8   6   10.60    1.00
   4   8   6   11.00    0.70
  -5  -8  -6   12.80    1.10
  -5  -8  -6   11.60    1.40
   5   8   6   12.00    0.70
   5   8   6   13.10    0.90
  -6  -8  -6   31.90    2.10
  -6  -8  -6   33.50    1.90
   6   8   6   34.20    1.60
  -7  -8  -6   25.00    1.60
  -7  -8  -6   23.90    1.30
  -7  -8  -6   22.80    1.80
   7   8   6   26.20    1.30
  -8  -8  -6   28.00    1.80
  -8  -8  -6   26.60    1.50
   8   8   6   28.50    1.40
  -9  -8  -6    2.10    0.90
  -9  -8  -6    1.20    0.60
   9   8   6    1.30    0.50
   9   8   6    2.20    0.90
 -10  -8  -6   23.40    1.90
 -10  -8  -6   17.20    1.40
  10   8   6   26.70    2.10
  10   8   6   25.70    1.40
 -11  -8  -6   27.60    2.10
  11   8   6   27.60    2.30
  11   8   6   25.00    1.60
 -12  -8  -6   10.60    1.30
 -12  -8  -6   14.30    1.80
  12   8   6   15.70    2.00
  12   8   6   15.20    1.40
 -13  -8  -6    2.70    1.20
  13   8   6    1.90    1.30
  13   8   6    3.70    1.00
 -14  -8  -6   14.30    1.90
  14   8   6   16.50    2.00
  14   8   6   11.80    1.90
 -15  -8  -6    0.50    1.40
  15   8   6    1.00    1.90
 -13   9   6    2.00    1.40
  12  -9  -6    2.60    1.30
 -12   9   6    3.10    1.30
  11  -9  -6   21.60    2.40
 -11   9   6   24.60    2.10
  10  -9  -6    5.30    1.50
 -10   9   6    4.40    1.20
   9  -9  -6   21.90    2.80
  -9   9   6   21.20    1.90
   8  -9  -6   -1.30    0.80
  -8   9   6    0.70    0.50
  -8   9   6   -1.20    0.70
  -8   9   6   -0.60    0.50
   7  -9  -6    1.90    0.90
  -7   9   6    0.30    0.50
  -7   9   6    0.90    0.50
  -7   9   6    0.10    0.70
   6  -9  -6    6.10    1.20
  -6   9   6    7.50    1.00
  -6   9   6    7.20    1.20
  -6   9   6    7.90    0.90
   5  -9  -6    4.50    1.00
  -5   9   6    5.80    1.00
  -5   9   6    4.40    0.80
  -5   9   6    5.90    0.90
   4  -9  -6    3.00    0.80
  -4   9   6    3.50    0.90
  -4   9   6    1.90    0.60
  -4   9   6    2.50    0.70
   3  -9  -6    3.00    0.80
  -3   9   6    4.80    0.80
  -3   9   6    4.30    0.80
   2  -9  -6   78.09    3.90
  -2   9   6   88.29    4.00
   1  -9  -6  161.78    7.10
  -1   9   6  174.18    7.30
  -1   9   6  157.18    7.10
  -1   9   6  177.38    7.20
   0  -9  -6  235.88   10.00
   0   9   6  254.37   10.60
   0   9   6  244.78   10.10
  -1  -9  -6  136.29    6.00
   1   9   6  136.99    6.00
   1   9   6  142.59    6.30
   1   9   6  146.69    5.90
  -2  -9  -6   15.50    1.20
   2   9   6   17.80    1.00
   2   9   6   16.70    1.10
   2   9   6   14.80    1.40
  -3  -9  -6   66.59    3.10
   3   9   6   65.59    2.80
   3   9   6   63.79    2.90
   3   9   6   62.69    3.40
  -4  -9  -6   22.20    1.50
   4   9   6   20.00    1.20
   4   9   6   20.30    1.70
  -5  -9  -6    9.60    1.10
   5   9   6    6.50    1.20
   5   9   6    6.40    0.70
  -6  -9  -6    0.70    0.60
   6   9   6    0.50    0.70
  -7  -9  -6   12.70    1.30
   7   9   6   10.80    1.50
  -8  -9  -6   44.70    2.50
   8   9   6   36.70    2.70
  -9  -9  -6   20.60    1.80
   9   9   6   18.70    2.00
 -10  -9  -6    1.90    0.90
  10   9   6    1.80    1.20
 -11  -9  -6   24.10    2.00
  11   9   6   15.40    1.90
 -12  -9  -6    0.20    1.10
  12   9   6    0.30    1.20
 -13  -9  -6    8.80    1.70
 -14  -9  -6    2.90    1.50
  14   9   6   -0.20    1.60
  12 -10  -6    1.50    1.60
 -12  10   6    2.00    1.20
  11 -10  -6    5.30    1.60
 -11  10   6    9.00    1.60
  10 -10  -6    2.50    1.30
 -10  10   6    1.60    1.00
   9 -10  -6    3.10    1.20
  -9  10   6    2.10    1.10
  -9  10   6    2.70    0.50
   8 -10  -6    0.30    0.90
  -8  10   6   -0.10    0.60
  -8  10   6    1.20    0.60
  -8  10   6    1.00    0.90
   7 -10  -6    0.70    0.90
  -7  10   6    0.80    0.90
  -7  10   6    0.30    0.60
  -7  10   6    0.90    0.60
   6 -10  -6   20.60    1.90
  -6  10   6   20.20    1.70
  -6  10   6   21.50    1.50
  -6  10   6   22.70    1.50
   5 -10  -6   12.50    1.60
  -5  10   6   12.90    1.40
  -5  10   6   13.00    1.30
   4 -10  -6    3.20    0.90
  -4  10   6    6.70    1.00
   3 -10  -6   25.50    1.80
  -3  10   6   25.30    1.80
  -3  10   6   27.50    1.80
   2 -10  -6   44.80    2.40
   2 -10  -6   42.60    2.50
  -2  10   6   47.30    2.50
   1 -10  -6   34.10    2.10
  -1  10   6   37.80    2.10
  -1  10   6   40.10    2.30
   0 -10  -6   26.20    1.70
   0  10   6   29.10    1.90
   0  10   6   20.80    1.50
   0  10   6   25.10    1.60
  -1 -10  -6   12.00    1.30
   1  10   6   10.60    1.30
   1  10   6    8.80    0.90
   1  10   6    8.10    0.80
  -2 -10  -6   13.00    1.20
   2  10   6   14.20    1.60
   2  10   6   11.80    1.00
   2  10   6   12.60    1.00
  -3 -10  -6  235.38    9.70
   3  10   6  217.78    9.40
   3  10   6  247.28   10.10
   3  10   6  237.98    9.40
  -4 -10  -6   11.80    1.20
   4  10   6   10.50    1.40
   4  10   6   11.80    1.00
  -5 -10  -6   26.80    1.80
   5  10   6   24.40    2.00
  -6 -10  -6   63.59    3.10
   6  10   6   59.39    3.40
  -7 -10  -6   50.49    2.90
   7  10   6   56.49    3.20
  -8 -10  -6   55.59    2.90
   8  10   6   48.60    3.20
  -9 -10  -6   17.80    1.70
   9  10   6   18.30    2.00
 -10 -10  -6    2.60    1.20
  10  10   6    4.50    1.30
 -11 -10  -6    4.30    1.20
  11  10   6    2.90    2.10
 -12 -10  -6    2.20    1.40
  12  10   6    4.30    1.40
 -13 -10  -6    3.00    1.50
  13  10   6    1.20    1.50
 -14 -10  -6    2.00    1.50
  14  10   6    0.30    1.60
  11 -11  -6    4.10    1.60
 -11  11   6    2.80    1.30
  10 -11  -6   25.50    2.60
 -10  11   6   26.50    2.30
   9 -11  -6    9.60    1.60
  -9  11   6   11.10    1.10
  -9  11   6   12.50    1.60
   8 -11  -6   48.50    3.20
  -8  11   6   46.80    3.00
  -8  11   6   50.79    2.50
   7 -11  -6   39.80    2.80
  -7  11   6   39.60    2.60
  -7  11   6   34.90    2.20
   6 -11  -6   20.00    1.90
  -6  11   6   17.80    1.80
  -6  11   6   17.20    1.50
   5 -11  -6   55.89    3.20
  -5  11   6   53.69    2.90
  -5  11   6   54.39    3.10
   4 -11  -6    0.40    0.80
  -4  11   6    0.40    0.60
  -4  11   6    0.80    0.80
   3 -11  -6   30.10    2.00
  -3  11   6   28.90    2.00
  -3  11   6   28.80    2.00
   2 -11  -6    3.10    0.90
   2 -11  -6    3.70    0.90
  -2  11   6    2.40    0.90
   1 -11  -6   -0.90    0.70
  -1  11   6    1.80    0.70
   0 -11  -6   11.40    1.30
   0  11   6   10.10    1.10
   0  11   6   11.40    1.40
   0  11   6    8.20    1.00
  -1 -11  -6   40.50    2.30
   1  11   6   45.00    2.60
   1  11   6   41.40    2.10
   1  11   6   34.80    2.00
  -2 -11  -6    6.60    1.10
   2  11   6    5.00    0.70
   2  11   6    4.90    0.70
   2  11   6    7.80    1.20
  -3 -11  -6   11.60    1.30
   3  11   6   10.60    1.40
   3  11   6    8.90    0.70
   3  11   6    7.50    0.90
  -4 -11  -6    8.00    1.20
   4  11   6    5.60    1.10
  -5 -11  -6   11.40    1.30
   5  11   6   11.70    1.60
  -6 -11  -6   16.40    1.60
   6  11   6   18.00    2.10
  -7 -11  -6    9.40    1.30
   7  11   6    6.40    1.40
  -8 -11  -6   11.50    1.50
   8  11   6   12.90    1.80
  -9 -11  -6    4.20    1.10
   9  11   6    2.70    1.90
 -10 -11  -6    9.50    1.50
  10  11   6    8.40    1.70
 -11 -11  -6    9.20    1.60
  11  11   6    9.90    1.80
 -12 -11  -6    4.20    1.40
  12  11   6    5.60    1.80
 -13 -11  -6    8.10    1.80
  13  11   6    8.20    1.90
  10 -12  -6    3.70    1.60
 -10  12   6    1.50    1.30
   9 -12  -6   13.70    1.90
  -9  12   6   13.10    1.80
  -9  12   6   11.80    1.30
   8 -12  -6    6.40    1.50
  -8  12   6    7.20    1.40
  -8  12   6    9.60    1.20
   7 -12  -6   31.60    2.60
  -7  12   6   37.20    2.60
  -7  12   6   35.30    2.20
   6 -12  -6   23.00    2.20
  -6  12   6   28.00    1.90
   5 -12  -6   29.80    2.30
  -5  12   6   26.20    2.00
  -5  12   6   30.70    2.30
   4 -12  -6    7.20    1.20
  -4  12   6    6.50    1.20
  -4  12   6    7.10    1.30
   3 -12  -6    1.60    0.80
  -3  12   6    0.50    0.90
  -3  12   6    1.60    0.90
   2 -12  -6   48.20    2.70
   2 -12  -6   45.70    2.80
  -2  12   6   49.60    2.80
   1 -12  -6   34.30    2.30
  -1  12   6   40.20    2.50
   0 -12  -6   65.49    3.50
   0  12   6   64.69    3.30
   0  12   6   70.69    3.70
   0  12   6   72.49    3.40
  -1 -12  -6   86.79    4.30
   1  12   6   89.49    4.60
   1  12   6   92.39    4.00
  -2 -12  -6   29.90    2.10
   2  12   6   27.50    1.60
   2  12   6   30.60    1.60
   2  12   6   29.50    2.30
  -3 -12  -6   83.49    4.10
   3  12   6   84.39    4.30
   3  12   6   76.39    3.50
   3  12   6   90.29    3.50
  -4 -12  -6   19.00    1.70
   4  12   6   22.80    2.00
  -5 -12  -6   13.00    1.50
   5  12   6   19.50    1.90
  -6 -12  -6   -0.30    0.80
   6  12   6    1.30    1.00
  -7 -12  -6    6.10    1.20
  -8 -12  -6    3.50    1.30
   8  12   6    2.70    1.30
  -9 -12  -6    1.20    1.10
   9  12   6    0.60    1.30
 -10 -12  -6    4.50    1.40
  10  12   6    4.00    1.50
 -11 -12  -6   -1.10    1.10
  11  12   6    0.20    1.50
 -12 -12  -6    2.00    1.50
  12  12   6    0.60    1.50
   9 -13  -6   11.90    2.00
  -9  13   6    8.70    1.70
   8 -13  -6    1.50    1.20
  -8  13   6    3.00    1.40
  -8  13   6    2.20    1.00
   7 -13  -6   10.20    1.60
  -7  13   6   11.00    1.40
  -7  13   6    8.70    1.50
  -6  13   6   -0.80    1.00
  -6  13   6   -0.90    0.90
   5 -13  -6    3.50    1.20
  -5  13   6    4.80    1.10
  -5  13   6    5.40    1.40
   4 -13  -6    0.50    0.90
  -4  13   6    0.20    0.90
   3 -13  -6    8.20    1.40
  -3  13   6    7.20    1.30
  -3  13   6    6.80    1.20
   2 -13  -6   29.70    2.20
  -2  13   6   29.10    2.20
   1 -13  -6    3.50    0.90
  -1  13   6    1.10    0.80
  -1  13   6   -0.10    0.80
   0 -13  -6    2.40    1.00
   0  13   6    0.10    0.90
   0  13   6    0.30    0.70
  -1 -13  -6   32.50    2.30
   1  13   6   21.90    2.30
   1  13   6   33.30    2.40
   1  13   6   31.00    1.80
  -2 -13  -6   10.30    1.50
   2  13   6   13.40    1.80
   2  13   6    9.70    0.90
   2  13   6    8.90    0.90
  -3 -13  -6    7.10    1.30
   3  13   6    8.60    1.60
  -4 -13  -6   21.10    1.90
  -5 -13  -6    1.10    0.90
   5  13   6    1.50    1.10
   6  13   6    3.10    1.20
  -7 -13  -6   26.80    2.30
   7  13   6   30.70    2.60
  -8 -13  -6   16.70    2.00
   8  13   6   16.80    2.20
  -9 -13  -6   10.00    1.60
   9  13   6   11.70    1.90
 -10 -13  -6    6.70    1.60
  10  13   6    7.50    1.70
 -11 -13  -6   10.90    1.80
  11  13   6    6.70    1.90
   8 -14  -6    5.10    1.60
  -8  14   6    1.30    1.30
  -8  14   6    2.70    1.50
   7 -14  -6    2.60    1.40
  -7  14   6    5.00    1.50
  -7  14   6    2.20    1.20
   6 -14  -6   13.10    1.80
  -6  14   6   21.50    2.40
  -6  14   6   17.20    1.90
   5 -14  -6    9.50    1.70
  -5  14   6   10.80    1.70
  -5  14   6   12.30    1.60
   4 -14  -6    7.10    1.40
  -4  14   6    6.20    1.40
  -4  14   6    7.70    1.50
   3 -14  -6   14.30    1.60
  -3  14   6   14.90    1.80
  -3  14   6   13.80    1.90
   2 -14  -6   19.10    2.00
  -2  14   6   18.60    1.90
  -1  14   6   14.30    1.60
   0  14   6    5.50    1.00
   0  14   6    4.90    1.40
   1  14   6   11.40    1.70
   1  14   6   12.70    1.20
   2  14   6    7.80    1.50
   2  14   6    4.90    0.60
  -3 -14  -6    1.00    1.10
   3  14   6    0.10    0.90
  -4 -14  -6   -0.60    1.00
   4  14   6    0.80    1.00
  -5 -14  -6    5.10    1.30
   5  14   6    2.40    1.40
  -6 -14  -6    3.80    1.30
   6  14   6    3.80    1.40
  -7 -14  -6    1.90    1.20
   7  14   6    4.70    1.50
  -8 -14  -6    0.50    1.30
   8  14   6    1.30    1.50
  -9 -14  -6   -2.80    1.30
   9  14   6    0.70    1.50
   6 -15  -6   -0.20    1.40
  -6  15   6   -1.30    1.40
  -6  15   6    1.20    1.30
   5 -15  -6    5.80    1.50
  -5  15   6    3.20    1.50
  -5  15   6    4.60    1.40
   4 -15  -6   -1.50    1.10
  -4  15   6    2.50    1.40
  -4  15   6    0.40    1.10
  -3  15   6    6.80    1.50
  -3  15   6   11.30    1.80
   2 -15  -6    1.00    1.10
  -2  15   6    2.70    1.20
  -2  15   6    0.50    1.00
   1 -15  -6    4.40    1.30
  -1  15   6    2.90    1.10
  -1  15   6    4.00    1.50
   0 -15  -6   40.10    2.70
   0  15   6   39.30    2.90
  -1 -15  -6    5.10    1.30
   1  15   6    4.20    1.40
   1  15   6    3.70    0.80
  -2 -15  -6   15.50    1.90
   2  15   6   16.10    2.10
  -3 -15  -6    7.90    1.50
   3  15   6    8.00    1.70
  -4 -15  -6   19.70    2.10
   4  15   6   18.80    2.40
  -5 -15  -6    5.40    1.50
   5  15   6    6.20    1.60
  -6 -15  -6    1.50    1.20
   6  15   6    2.30    1.40
  -7 -15  -6    3.00    1.40
   7  15   6    1.80    1.60
  -8 -15  -6    9.10    2.00
   8  15   6    4.90    1.90
  -3  16   6    1.80    1.60
  -3  16   6    2.20    1.40
  -3  16   6   -0.10    1.40
  -2  16   6    1.50    1.30
  -2  16   6    0.90    1.30
   1 -16  -6    4.30    1.40
  -1  16   6    7.60    1.30
  -1  16   6    7.90    1.80
   0 -16  -6    8.30    1.60
   0  16   6    4.80    1.70
  -1 -16  -6    2.80    1.20
   1  16   6    1.60    1.50
  -2 -16  -6    3.30    1.40
   2  16   6    0.90    1.50
  -3 -16  -6    2.30    1.30
   3  16   6    2.50    1.50
  -4 -16  -6    4.90    1.60
   4  16   6    3.90    1.70
  -5 -16  -6    4.10    1.40
   5  16   6    1.30    1.40
   3  11  -7    7.30    2.20
  -3 -11   7    9.10    1.80
   2  11  -7    4.20    1.60
  -2 -11   7    4.80    1.60
  -2 -11   7    1.50    1.40
   1  11  -7    5.00    1.70
  -1 -11   7    7.70    1.60
  -1 -11   7    4.60    1.50
   0  11  -7   10.80    1.80
   0 -11   7   10.80    1.70
   0 -11   7    7.60    1.60
  -1  11  -7    1.90    1.60
   1 -11   7    1.30    1.30
   1 -11   7    2.60    1.60
  -2  11  -7    7.60    1.90
   2 -11   7    3.40    1.40
  -3  11  -7    2.70    1.50
   3 -11   7   -0.20    1.70
   3 -11   7    2.40    1.50
  -4  11  -7    0.00    1.90
  -4  11  -7    2.50    1.50
   4 -11   7    2.40    1.70
   6  10  -7    1.40    1.60
  -6 -10   7    0.30    1.40
   5  10  -7    4.70    1.50
  -5 -10   7    1.40    1.30
   4  10  -7    2.00    1.60
  -4 -10   7    1.80    1.40
  -4 -10   7    0.80    1.30
   3  10  -7    7.30    1.70
  -3 -10   7    7.60    1.60
  -3 -10   7    6.00    1.30
   2  10  -7    0.00    1.20
  -2 -10   7    1.10    1.20
  -2 -10   7    2.70    1.10
   1  10  -7   -0.60    1.10
  -1 -10   7    2.70    1.20
  -1 -10   7    0.90    1.10
   0  10  -7    0.80    1.20
   0 -10   7    2.20    1.30
   0 -10   7    3.30    1.30
  -1  10  -7    9.00    1.60
   1 -10   7    8.70    1.50
   1 -10   7   11.90    1.60
  -2  10  -7    6.90    1.50
   2 -10   7    6.70    1.50
   2 -10   7    2.80    1.20
  -3  10  -7    2.40    1.40
   3 -10   7    3.00    1.40
   3 -10   7    1.70    1.20
  -4  10  -7    7.90    1.50
  -4  10  -7    6.80    1.60
   4 -10   7   10.20    1.70
  -5  10  -7    4.20    1.50
  -5  10  -7    7.30    1.90
   5 -10   7    8.50    1.80
  -6  10  -7    2.70    1.80
  -6  10  -7    3.80    1.50
   6 -10   7    0.70    1.70
  -7  10  -7    2.50    1.60
  -7  10  -7   -0.20    1.40
   7 -10   7    1.40    1.50
   7   9  -7    4.60    1.50
  -7  -9   7    6.10    1.60
   6   9  -7    0.00    1.30
  -6  -9   7    1.40    1.30
  -6  -9   7    0.50    1.10
   5   9  -7    5.70    1.40
  -5  -9   7    5.40    1.40
   4   9  -7    0.70    1.20
  -4  -9   7    0.60    1.00
  -4  -9   7    0.00    1.10
   3   9  -7    5.60    1.50
  -3  -9   7    2.40    1.00
  -3  -9   7    2.60    1.20
   2   9  -7    6.70    1.50
  -2  -9   7    4.30    1.40
  -2  -9   7    6.00    1.20
   1   9  -7    4.40    1.30
  -1  -9   7    1.80    1.10
   0   9  -7   14.80    1.80
   0  -9   7   12.80    1.60
   0  -9   7   13.50    1.90
  -1   9  -7    5.00    1.20
   1  -9   7    3.80    1.10
   1  -9   7    4.00    1.30
  -2   9  -7    0.80    1.20
   2  -9   7    0.40    1.20
   2  -9   7   -0.40    1.00
  -3   9  -7    4.00    1.30
   3  -9   7    3.60    1.40
  -4   9  -7    0.40    1.10
   4  -9   7    4.10    1.30
  -5   9  -7    9.10    1.70
  -5   9  -7   11.20    1.80
   5  -9   7   10.00    1.60
  -6   9  -7   -0.50    1.50
  -6   9  -7    0.90    1.20
   6  -9   7   -2.00    1.20
  -7   9  -7    0.50    1.20
  -7   9  -7    0.80    1.50
   7  -9   7   -0.90    1.40
  -8   9  -7    1.90    1.60
  -8   9  -7   -3.10    1.20
   8  -9   7   -0.30    1.70
  -9   9  -7    0.50    1.50
  -9   9  -7   -1.60    1.60
   9  -9   7    2.00    1.80
   9   8  -7    4.60    1.40
  -9  -8   7    4.00    1.60
   8   8  -7   -0.80    1.30
  -8  -8   7    0.70    1.30
  -8  -8   7    2.20    1.10
   7   8  -7    0.80    1.10
  -7  -8   7   -0.40    1.20
  -7  -8   7    0.10    0.90
   6   8  -7    2.30    1.30
  -6  -8   7    3.00    1.50
  -6  -8   7    2.40    1.30
   5   8  -7    6.50    1.40
  -5  -8   7    2.10    1.20
   4   8  -7    2.40    1.10
  -4  -8   7    0.00    0.80
  -4  -8   7    2.80    1.20
   3   8  -7   27.30    2.30
  -3  -8   7   28.50    2.20
  -3  -8   7   27.50    2.00
   2   8  -7   11.60    1.70
  -2  -8   7    9.80    1.30
  -2  -8   7   10.70    1.40
   1   8  -7   -0.10    1.80
  -1  -8   7    1.30    1.00
  -1  -8   7    1.30    0.80
   0   8  -7   15.10    2.60
   0  -8   7   12.10    1.50
   0  -8   7   11.80    1.50
  -1   8  -7   33.80    2.80
   1  -8   7   32.50    2.30
   1  -8   7   27.90    2.30
  -2   8  -7    3.80    1.40
   2  -8   7    1.40    1.10
   2  -8   7    2.90    1.00
  -3   8  -7   -0.10    1.00
   3  -8   7   -0.70    0.90
   3  -8   7    0.50    1.00
  -4   8  -7    5.20    1.40
   4  -8   7    7.70    1.40
  -5   8  -7   15.30    1.80
   5  -8   7   14.10    1.90
  -6   8  -7    8.60    1.60
   6  -8   7    7.70    2.50
  -7   8  -7    7.80    2.60
  -7   8  -7    7.80    1.50
   7  -8   7    8.50    1.80
  -8   8  -7    7.50    1.50
  -8   8  -7    5.60    1.60
   8  -8   7    8.10    1.80
  -9   8  -7    0.20    1.60
  -9   8  -7    0.50    1.30
   9  -8   7   -0.40    1.50
 -10   8  -7    4.60    1.70
 -10   8  -7    3.60    1.50
  10  -8   7    3.40    1.70
  10   7  -7    4.40    1.50
 -10  -7   7    3.80    1.60
 -10  -7   7    1.70    1.50
   9   7  -7    7.00    1.40
  -9  -7   7   11.40    1.80
  -9  -7   7    6.40    1.10
   8   7  -7    9.60    1.60
  -8  -7   7    7.80    1.30
  -8  -7   7   12.90    1.70
   7   7  -7    1.40    1.30
  -7  -7   7    2.70    1.40
  -7  -7   7    1.60    1.20
   6   7  -7    3.30    1.70
  -6  -7   7    3.20    1.20
   5   7  -7    8.50    1.40
  -5  -7   7    7.20    1.30
  -5  -7   7    6.10    1.50
   4   7  -7   23.10    2.00
  -4  -7   7   17.60    1.70
  -4  -7   7   22.70    1.90
   3   7  -7   16.60    1.70
  -3  -7   7   15.80    1.60
  -3  -7   7   14.70    1.40
   2   7  -7    1.40    1.00
  -2  -7   7    1.20    0.80
  -2  -7   7    2.90    0.90
   1   7  -7   26.90    2.10
  -1  -7   7   28.30    2.00
  -1  -7   7   27.00    2.00
   0   7  -7   47.40    2.80
   0  -7   7   43.90    2.70
   0  -7   7   47.40    2.70
  -1   7  -7   17.60    1.60
   1  -7   7   12.60    1.50
   1  -7   7   15.80    1.60
  -2   7  -7   17.40    1.70
   2  -7   7   16.40    1.70
   2  -7   7   15.00    1.60
  -3   7  -7   27.60    2.10
   3  -7   7   31.60    2.30
   3  -7   7   26.70    2.00
  -4   7  -7   17.80    1.70
   4  -7   7   15.10    1.80
  -5   7  -7   14.60    1.80
  -5   7  -7   16.40    1.70
   5  -7   7   17.20    1.80
  -6   7  -7    5.70    1.30
  -6   7  -7    6.20    1.30
   6  -7   7    4.30    1.30
  -7   7  -7   14.20    1.70
  -7   7  -7   16.90    1.90
  -8   7  -7    0.00    1.10
  -8   7  -7    0.90    1.30
   8  -7   7   -1.30    1.30
  -9   7  -7    0.20    1.20
  -9   7  -7    1.50    1.40
   9  -7   7    2.90    1.60
 -10   7  -7    2.80    1.30
 -10   7  -7    0.10    1.50
  10  -7   7    0.70    1.60
 -11   7  -7    7.60    1.80
 -11   7  -7    8.30    1.80
  11  -7   7   10.20    1.90
 -12   7  -7   -0.60    2.20
 -12   7  -7   -0.60    1.60
  11   6  -7   -0.50    1.20
 -11  -6   7    0.00    1.10
 -11  -6   7    1.90    1.40
 -10  -6   7    2.90    1.50
 -10  -6   7    4.00    1.00
   9   6  -7    1.30    1.10
  -9  -6   7   -0.70    0.90
  -9  -6   7    1.90    1.10
   8   6  -7    5.80    1.30
  -8  -6   7    6.10    1.30
  -8  -6   7    5.90    1.00
   7   6  -7    9.60    1.40
  -7  -6   7   12.40    1.50
  -7  -6   7    8.70    1.10
   6   6  -7    7.20    1.30
  -6  -6   7    5.50    1.10
  -6  -6   7    4.40    1.20
   5   6  -7    1.20    0.90
  -5  -6   7    1.80    1.40
  -5  -6   7    0.70    0.80
   4   6  -7    2.90    1.10
  -4  -6   7    3.40    0.90
   3   6  -7   17.70    1.70
  -3  -6   7   21.80    2.40
  -3  -6   7   17.60    1.60
   2   6  -7    7.10    1.20
  -2  -6   7    6.40    1.00
  -2  -6   7    5.80    1.00
   1   6  -7  132.49    5.90
  -1  -6   7  127.99    5.60
  -1  -6   7  123.59    5.60
   0   6  -7    1.50    0.70
   0  -6   7    0.50    0.70
   0  -6   7    0.70    0.80
  -1   6  -7   13.90    1.40
   1  -6   7   14.00    1.50
   1  -6   7   13.50    1.40
  -2   6  -7    0.10    0.70
   2  -6   7    0.50    0.70
   2  -6   7   -0.10    0.80
  -3   6  -7    0.60    0.80
   3  -6   7   -0.90    0.70
   3  -6   7   -0.20    0.80
  -4   6  -7    3.70    1.10
   4  -6   7    5.00    1.20
  -5   6  -7    6.90    1.20
  -5   6  -7    8.90    1.30
   5  -6   7    8.00    1.40
  -6   6  -7    2.10    1.00
  -6   6  -7    1.60    1.10
   6  -6   7    0.50    1.00
  -7   6  -7   20.30    1.90
  -7   6  -7   17.40    1.90
   7  -6   7   19.40    2.20
  -8   6  -7   19.50    2.00
  -8   6  -7   17.40    1.70
  -9   6  -7    2.30    1.20
  -9   6  -7    0.60    1.00
   9  -6   7    1.90    1.40
 -10   6  -7    1.20    1.10
  10  -6   7    1.50    1.40
 -11   6  -7    2.10    1.20
 -11   6  -7   -0.20    1.40
  11  -6   7    1.60    1.60
 -12   6  -7    4.50    1.70
 -12   6  -7    4.00    1.40
  12  -6   7    7.20    1.80
  12   5  -7   -0.70    1.30
 -12  -5   7    1.00    1.30
 -12  -5   7    0.30    1.50
  11   5  -7    0.50    1.10
 -11  -5   7    2.40    1.10
 -11  -5   7    2.90    1.50
  10   5  -7    2.90    1.10
 -10  -5   7    1.70    1.00
 -10  -5   7    3.50    1.20
   9   5  -7   13.50    1.60
  -9  -5   7   13.10    1.70
   8   5  -7   20.20    1.80
  -8  -5   7   16.00    1.50
  -8  -5   7   20.00    1.90
   7   5  -7    7.90    1.30
  -7  -5   7   11.80    1.20
  -7  -5   7   11.80    1.50
   6   5  -7    7.80    1.30
  -6  -5   7    7.70    1.20
  -6  -5   7    7.40    1.30
   5   5  -7    0.70    0.80
  -5  -5   7    0.50    0.80
  -5  -5   7    1.80    0.80
   4   5  -7   -0.10    0.70
  -4  -5   7    2.60    0.80
  -4  -5   7    0.50    0.60
   3   5  -7    2.90    0.90
  -3  -5   7    3.00    0.80
  -3  -5   7    2.20    0.70
   2   5  -7   80.89    3.80
  -2  -5   7   72.89    3.50
  -2  -5   7   75.09    3.60
   1   5  -7    5.90    1.10
  -1  -5   7    8.20    1.00
  -1  -5   7   11.90    1.70
   0   5  -7   12.90    1.30
   0  -5   7   13.90    1.30
   0  -5   7   14.00    1.80
  -1   5  -7    7.00    1.10
   1  -5   7    8.10    1.10
  -2   5  -7   61.39    3.10
   2  -5   7   59.19    3.10
  -3   5  -7   11.50    1.30
   3  -5   7   11.30    1.20
   3  -5   7   15.30    1.50
  -4   5  -7    0.30    0.70
  -4   5  -7    0.60    0.70
   4  -5   7    1.60    0.90
  -5   5  -7    2.90    0.90
  -5   5  -7    4.20    1.00
   5  -5   7    2.50    1.00
  -6   5  -7   17.50    1.60
  -6   5  -7   13.10    1.40
   6  -5   7   11.10    1.60
  -7   5  -7   46.30    2.70
  -7   5  -7   49.30    2.80
   7  -5   7   44.70    3.00
  -8   5  -7    0.80    1.00
  -8   5  -7    1.50    0.90
   8  -5   7    2.00    1.20
  -9   5  -7    1.50    1.10
  -9   5  -7    2.40    1.00
 -10   5  -7    6.10    1.30
 -10   5  -7    6.70    1.40
  10  -5   7    7.30    1.70
 -11   5  -7    5.50    1.20
  11  -5   7    6.00    1.70
 -12   5  -7    5.30    1.20
 -12   5  -7    6.10    1.60
  12  -5   7    4.80    1.60
 -13   5  -7   -1.30    1.40
 -13   5  -7    0.60    1.20
  13  -5   7   -0.40    1.50
  12   4  -7   10.00    1.50
 -12  -4   7   11.00    1.90
 -12  -4   7    8.60    1.60
  11   4  -7    0.90    1.00
 -11  -4   7   -0.70    1.00
 -11  -4   7    0.10    1.20
  10   4  -7   31.30    2.20
 -10  -4   7   30.30    2.20
 -10  -4   7   34.80    2.50
   9   4  -7    2.10    1.00
  -9  -4   7    3.10    0.90
  -9  -4   7    0.80    1.00
   8   4  -7   40.80    2.50
  -8  -4   7   37.50    2.30
  -8  -4   7   46.40    2.70
   7   4  -7   41.20    2.40
  -7  -4   7   41.60    2.50
  -7  -4   7   37.40    2.20
   6   4  -7   31.90    2.10
  -6  -4   7   32.80    2.10
  -6  -4   7   30.90    2.20
   5   4  -7    2.00    0.80
  -5  -4   7    1.70    0.80
  -5  -4   7    1.00    0.70
   4   4  -7    7.10    1.10
  -4  -4   7   10.10    1.10
  -4  -4   7    9.00    1.00
   3   4  -7   19.10    1.50
  -3  -4   7   15.30    1.30
   2   4  -7    9.90    1.30
  -2  -4   7   12.30    1.10
  -2  -4   7   10.80    1.00
   1   4  -7  176.48    7.50
  -1  -4   7  177.08    7.30
  -1  -4   7  170.48    7.30
   0   4  -7   72.99    3.50
   0   4  -7   65.39    3.20
   0  -4   7   73.09    3.30
   0  -4   7   73.59    3.30
  -1   4  -7   38.30    2.10
  -1   4  -7   42.40    2.30
   1  -4   7   41.30    2.10
  -2   4  -7   60.09    2.90
  -2   4  -7   51.79    2.60
   2  -4   7   56.09    2.70
   2  -4   7   56.09    2.80
  -3   4  -7    3.60    0.70
  -3   4  -7    3.90    0.90
   3  -4   7    3.90    0.70
   3  -4   7    4.80    0.90
  -4   4  -7    4.10    0.80
  -4   4  -7    3.20    0.80
   4  -4   7    4.90    1.00
  -5   4  -7    0.70    0.80
  -5   4  -7    0.80    0.60
   5  -4   7    0.50    0.70
  -6   4  -7    3.30    0.90
  -6   4  -7    4.60    0.90
  -7   4  -7   13.20    1.40
  -7   4  -7   12.10    1.40
   7  -4   7   13.10    1.60
  -8   4  -7    0.30    0.80
  -8   4  -7    1.30    0.80
   8  -4   7   -0.80    0.90
  -9   4  -7    1.20    1.00
  -9   4  -7    2.20    0.90
   9  -4   7   -0.10    1.00
 -10   4  -7    4.70    1.10
 -10   4  -7    3.00    1.10
  10  -4   7    2.10    2.00
 -11   4  -7    3.90    1.20
 -11   4  -7    3.60    1.10
  11  -4   7    3.70    1.30
 -12   4  -7    2.30    1.10
 -12   4  -7    5.30    1.30
  12  -4   7    2.90    1.40
 -13   4  -7    1.70    1.30
 -13   4  -7    2.60    1.10
  13  -4   7    5.40    1.60
 -14   4  -7    1.00    1.50
 -14   4  -7   -0.90    1.20
  14  -4   7   -0.80    1.50
 -13  -3   7    7.90    2.60
 -13  -3   7    6.30    1.60
  12   3  -7    8.90    1.40
 -12  -3   7    8.20    1.50
 -12  -3   7    7.30    1.50
  11   3  -7   10.70    1.30
 -11  -3   7   10.00    1.60
 -11  -3   7   10.00    1.50
  10   3  -7    9.80    1.20
 -10  -3   7   10.90    1.50
   9   3  -7    1.60    0.80
  -9  -3   7    1.70    0.90
  -9  -3   7    0.80    0.90
   8   3  -7    1.40    0.80
  -8  -3   7    1.50    0.80
  -8  -3   7    1.00    0.80
   7   3  -7    0.50    0.70
  -7  -3   7    0.70    0.60
  -7  -3   7    1.70    0.80
   6   3  -7    5.50    1.00
  -6  -3   7    4.30    1.00
  -6  -3   7    5.70    1.00
   5   3  -7   64.69    3.30
  -5  -3   7   69.09    3.20
  -5  -3   7   67.39    3.20
   4   3  -7   -0.20    0.50
  -4  -3   7    1.20    0.60
  -4  -3   7    0.30    0.60
   3   3  -7   11.10    1.30
   3   3  -7    8.80    1.00
  -3  -3   7    9.80    0.90
  -3  -3   7   10.00    1.00
   2   3  -7   27.20    1.60
   2   3  -7   29.90    1.80
  -2  -3   7   29.30    1.60
  -2  -3   7   29.10    1.70
   1   3  -7   22.50    1.50
   1   3  -7   22.20    1.40
  -1  -3   7   24.40    1.50
  -1  -3   7   25.40    1.40
   0   3  -7    7.40    1.00
   0   3  -7    5.40    0.80
   0  -3   7    5.80    0.80
   0  -3   7    6.00    0.70
  -1   3  -7   51.69    2.40
  -1   3  -7   53.09    2.70
   1  -3   7   50.99    2.40
   1  -3   7   54.49    2.60
  -2   3  -7   95.99    4.40
  -2   3  -7  103.49    4.60
   2  -3   7  102.49    4.40
   2  -3   7  108.29    4.60
  -3   3  -7  101.19    4.60
   3  -3   7   98.49    4.50
   3  -3   7  101.99    4.30
  -4   3  -7   18.40    1.40
  -4   3  -7   17.60    1.20
  -4   3  -7   14.10    1.20
   4  -3   7   15.30    1.40
  -5   3  -7   21.80    1.50
  -5   3  -7   24.10    1.60
  -5   3  -7   23.20    1.50
   5  -3   7   20.50    1.70
  -6   3  -7   60.19    3.00
  -6   3  -7   58.49    2.90
   6  -3   7   56.99    3.10
  -7   3  -7   80.69    4.30
  -7   3  -7   74.39    3.60
   7  -3   7   69.59    3.80
  -8   3  -7   27.30    1.90
  -8   3  -7   27.50    1.90
   8  -3   7   28.00    2.10
  -9   3  -7   64.89    3.20
  -9   3  -7   65.29    3.30
   9  -3   7   55.79    3.50
 -10   3  -7   -1.70    0.80
 -10   3  -7    1.20    1.00
  10  -3   7    0.10    1.00
 -11   3  -7    8.40    1.40
 -11   3  -7    8.50    1.20
  11  -3   7   10.10    1.70
 -12   3  -7    1.40    1.00
 -12   3  -7   -0.10    1.10
  12  -3   7    0.60    1.30
 -13   3  -7    0.90    1.00
 -13   3  -7    0.70    1.20
  13  -3   7   -1.60    1.30
 -14   3  -7    1.10    1.10
 -14   3  -7   -1.50    1.30
  14  -3   7    1.80    1.60
 -13  -2   7    7.20    1.70
 -13  -2   7    5.80    1.50
  12   2  -7   14.10    1.50
 -12  -2   7   12.80    1.70
 -12  -2   7   13.80    1.70
  11   2  -7    5.90    1.20
 -11  -2   7    5.60    1.30
 -11  -2   7    6.10    1.30
 -10  -2   7   16.20    1.80
 -10  -2   7   15.50    1.70
  -9  -2   7    8.90    1.30
  -9  -2   7    8.70    1.30
  -8  -2   7   16.50    1.50
  -8  -2   7   15.20    1.50
   7   2  -7   17.30    2.30
  -7  -2   7   11.80    1.30
  -7  -2   7   12.40    1.30
   6   2  -7   29.00    2.00
  -6  -2   7   28.40    1.80
  -6  -2   7   27.30    2.00
   5   2  -7   56.09    2.80
  -5  -2   7   55.99    2.80
  -5  -2   7   56.29    2.80
   4   2  -7    4.40    0.80
   4   2  -7    3.10    0.70
  -4  -2   7    4.20    0.70
  -4  -2   7    3.60    0.70
   3   2  -7   36.10    2.30
   3   2  -7   38.10    2.10
   3   2  -7   35.90    1.90
  -3  -2   7   37.30    2.00
  -3  -2   7   40.00    1.90
   2   2  -7    7.60    1.00
   2   2  -7    7.10    0.70
   2   2  -7    6.30    0.90
  -2  -2   7    6.50    0.70
  -2  -2   7    7.30    0.90
   1   2  -7   16.30    1.20
   1   2  -7   16.20    1.00
   1   2  -7   16.90    1.20
  -1  -2   7   16.80    1.20
  -1  -2   7   16.80    1.00
   0   2  -7    2.20    0.40
   0   2  -7    2.30    0.60
   0   2  -7    1.10    0.50
   0  -2   7    1.90    0.60
   0  -2   7    1.60    0.40
  -1   2  -7   61.39    2.70
  -1   2  -7   60.29    3.10
  -1   2  -7   62.29    3.00
   1  -2   7   62.79    2.90
   1  -2   7   61.59    2.70
  -2   2  -7    0.80    0.50
  -2   2  -7    0.80    0.40
   2  -2   7    0.40    0.50
   2  -2   7    1.10    0.40
  -3   2  -7   12.70    1.10
  -3   2  -7   11.00    0.80
  -3   2  -7   12.60    1.00
   3  -2   7   12.60    1.10
  -4   2  -7    5.40    0.60
  -4   2  -7    6.90    1.00
  -4   2  -7    5.30    0.70
   4  -2   7    5.70    1.00
  -5   2  -7    9.20    0.90
   5  -2   7    6.60    1.00
  -6   2  -7    3.90    0.70
  -6   2  -7    4.60    0.80
  -6   2  -7    4.70    0.80
   6  -2   7    6.90    1.10
  -7   2  -7    1.00    0.70
  -7   2  -7    1.40    0.70
   7  -2   7    1.00    0.90
  -8   2  -7   16.70    1.40
  -8   2  -7   14.90    1.50
   8  -2   7   13.60    1.50
  -9   2  -7    0.20    0.70
  -9   2  -7    1.00    0.70
   9  -2   7    1.80    1.00
 -10   2  -7    8.10    1.10
 -10   2  -7    5.80    1.10
  10  -2   7    4.90    1.30
 -11   2  -7   40.50    2.30
 -11   2  -7   36.20    2.40
  11  -2   7   38.70    2.90
 -12   2  -7   28.20    2.00
 -12   2  -7   28.80    2.20
  12  -2   7   25.30    2.60
 -13   2  -7    7.70    1.20
  13  -2   7    8.60    1.80
 -14   2  -7    9.70    1.70
 -14   2  -7    7.70    1.30
  14  -2   7    8.60    1.80
 -15   2  -7    7.80    1.70
  15  -2   7    2.90    1.80
 -14  -1   7   -2.00    1.30
 -13  -1   7    1.20    1.30
 -13  -1   7    1.70    1.20
  12   1  -7    0.90    0.80
 -12  -1   7   -0.20    1.00
 -12  -1   7    1.00    1.10
  11   1  -7    1.10    0.70
 -11  -1   7   -0.10    1.00
  10   1  -7    5.30    0.90
 -10  -1   7    4.40    1.00
 -10  -1   7    7.00    1.20
 -10  -1   7    5.80    1.20
   9   1  -7    0.80    0.70
  -9  -1   7    1.60    0.90
  -9  -1   7    0.20    0.80
  -9  -1   7   -0.50    0.70
   8   1  -7    2.50    0.80
  -8  -1   7    1.80    0.80
  -8  -1   7    2.50    0.80
  -8  -1   7    1.70    0.80
   7   1  -7    3.60    0.80
  -7  -1   7    2.30    0.70
  -7  -1   7    2.10    0.80
  -7  -1   7    1.50    0.70
   6   1  -7   34.20    1.90
  -6  -1   7   36.90    2.10
  -6  -1   7   30.60    1.90
   5   1  -7   12.50    1.10
   5   1  -7   13.40    1.20
  -5  -1   7   15.60    1.30
  -5  -1   7   15.60    1.10
  -5  -1   7   12.60    1.10
   4   1  -7   10.60    1.00
   4   1  -7    8.50    0.90
  -4  -1   7   10.40    0.90
  -4  -1   7    9.50    1.00
  -4  -1   7   10.90    1.00
   3   1  -7   98.59    4.40
   3   1  -7  102.59    4.40
   3   1  -7   97.99    4.20
  -3  -1   7   90.19    4.30
  -3  -1   7  104.59    4.40
   2   1  -7  101.49    4.60
   2   1  -7  103.19    4.30
   2   1  -7  110.79    4.60
  -2  -1   7   96.79    4.50
  -2  -1   7  100.49    4.30
  -2  -1   7  103.29    4.50
   1   1  -7   67.29    2.90
   1   1  -7   70.09    3.10
   1   1  -7   64.39    3.10
  -1  -1   7   67.19    3.10
  -1  -1   7   66.99    2.90
  -1  -1   7   64.59    3.10
   0   1  -7  439.86   18.20
   0   1  -7  476.65   18.30
   0   1  -7  454.45   18.00
   0  -1   7  451.05   18.00
   0  -1   7  475.05   18.20
   0  -1   7  430.56   18.20
  -1   1  -7  222.88    8.90
  -1   1  -7  237.78    9.20
  -1   1  -7  207.58    9.10
   1  -1   7  224.68    8.90
   1  -1   7  216.58    9.20
   1  -1   7  228.18    9.10
  -2   1  -7   80.29    3.40
  -2   1  -7   67.69    3.30
  -2   1  -7   71.69    3.10
   2  -1   7   68.29    3.40
   2  -1   7   74.99    3.10
   2  -1   7   76.69    3.30
  -3   1  -7    3.50    0.50
  -3   1  -7    4.10    0.70
  -3   1  -7    4.20    0.50
   3  -1   7    3.50    0.70
  -4   1  -7   10.60    1.00
  -4   1  -7   11.40    0.80
  -4   1  -7   13.10    0.90
   4  -1   7   10.00    1.10
  -5   1  -7   11.90    1.10
  -5   1  -7   12.90    0.90
  -5   1  -7   11.90    0.90
   5  -1   7   12.40    1.40
  -6   1  -7   18.90    1.40
  -6   1  -7   21.70    1.30
  -6   1  -7   21.80    1.50
   6  -1   7   20.60    1.50
  -7   1  -7    4.40    0.80
  -7   1  -7    2.60    0.70
  -7   1  -7    2.70    0.80
   7  -1   7    4.60    1.00
  -8   1  -7    2.80    0.90
  -8   1  -7    5.10    0.80
   8  -1   7    5.30    1.10
  -9   1  -7  105.59    4.70
  -9   1  -7  104.19    4.70
   9  -1   7  102.19    5.00
 -10   1  -7    1.70    0.80
 -10   1  -7    2.20    0.90
  10  -1   7    2.90    1.20
 -11   1  -7    1.00    1.00
 -11   1  -7    2.10    0.80
  11  -1   7    0.60    1.00
 -12   1  -7    0.20    1.00
 -12   1  -7    0.00    0.80
  12  -1   7   -0.50    1.40
 -13   1  -7    2.90    1.20
 -13   1  -7    1.10    0.90
  13  -1   7    1.40    1.30
 -14   1  -7    1.20    1.30
 -14   1  -7   -1.50    0.90
  14  -1   7    1.90    1.40
 -15   1  -7    2.30    1.20
 -15   1  -7    1.10    1.40
  15  -1   7    2.30    1.60
 -14   0   7    9.90    1.90
 -14   0   7   12.50    1.80
 -13   0   7    3.10    1.30
 -13   0   7    3.90    1.50
 -12   0   7   22.30    2.30
 -12   0   7   24.10    2.20
  11   0  -7   18.90    1.20
  11   0  -7   17.40    1.40
 -11   0   7   18.50    1.80
 -11   0   7   20.60    2.10
  10   0  -7    9.90    0.90
 -10   0   7    7.80    0.90
 -10   0   7    7.70    1.20
 -10   0   7   10.10    1.60
   9   0  -7   61.29    2.70
  -9   0   7   51.09    2.80
  -9   0   7   59.69    3.10
  -9   0   7   58.79    3.30
   8   0  -7   24.90    1.50
  -8   0   7   23.00    1.70
  -8   0   7   23.60    1.80
   7   0  -7   57.49    2.60
  -7   0   7   53.89    2.90
  -7   0   7   50.49    2.80
  -7   0   7   56.39    2.80
   6   0  -7   68.99    3.00
  -6   0   7   63.69    3.00
  -6   0   7   59.49    3.00
  -6   0   7   63.69    3.20
   5   0  -7    0.80    0.50
   5   0  -7    1.40    0.50
  -5   0   7    0.90    0.50
  -5   0   7    2.20    0.50
  -5   0   7    1.50    0.50
   4   0  -7   17.30    1.10
   4   0  -7   18.50    1.20
  -4   0   7   14.80    1.20
  -4   0   7   16.00    1.10
  -4   0   7   17.90    1.10
   3   0  -7    1.60    0.50
   3   0  -7    1.60    0.40
   3   0  -7    0.40    0.50
  -3   0   7    1.40    0.40
  -3   0   7    1.40    0.40
  -3   0   7    1.90    0.50
   2   0  -7    2.90    0.60
   2   0  -7    2.70    0.40
   2   0  -7    1.70    0.50
  -2   0   7    2.80    0.50
  -2   0   7    1.80    0.50
  -2   0   7    2.20    0.40
   1   0  -7   31.50    1.50
   1   0  -7   33.60    1.70
   1   0  -7   30.40    1.70
  -1   0   7   29.30    1.40
  -1   0   7   32.80    1.70
  -1   0   7   27.90    1.60
   0   0  -7   32.10    1.50
   0   0  -7   31.70    1.70
   0   0  -7   31.20    1.70
   0   0   7   30.80    1.70
   0   0   7   36.00    1.70
  -1   0  -7   77.19    3.40
  -1   0  -7   67.79    3.30
   1   0   7   75.19    3.00
   1   0   7   69.69    3.30
   1   0   7   77.09    3.30
  -2   0  -7   63.99    2.70
  -2   0  -7   72.89    2.80
  -2   0  -7   65.59    3.00
  -2   0  -7   62.39    3.00
   2   0   7   65.39    3.00
   2   0   7   61.99    3.00
  -3   0  -7   23.40    1.10
  -3   0  -7   23.30    1.40
  -3   0  -7   24.00    1.10
  -3   0  -7   20.50    1.30
   3   0   7   21.10    1.30
   3   0   7   21.90    1.40
  -4   0  -7   41.50    2.50
  -4   0  -7   46.40    2.00
  -4   0  -7   48.20    2.30
  -4   0  -7   45.60    2.00
   4   0   7   44.00    2.30
   4   0   7   49.00    2.30
  -5   0  -7   99.59    4.30
  -5   0  -7  106.69    4.50
  -5   0  -7   99.79    4.20
   5   0   7  103.99    4.50
   5   0   7   96.09    4.40
  -6   0  -7    1.00    0.40
  -6   0  -7    1.20    0.60
  -6   0  -7    1.30    0.50
   6   0   7    1.00    0.70
  -7   0  -7  101.19    4.60
  -7   0  -7  100.49    4.40
  -7   0  -7  101.99    4.50
   7   0   7  105.29    4.70
  -8   0  -7  208.48    8.80
  -8   0  -7  206.88    8.90
   8   0   7  219.08    9.10
  -9   0  -7   44.20    3.30
   9   0   7   37.40    2.50
 -10   0  -7   11.60    1.20
 -10   0  -7    6.90    1.00
  10   0   7    7.20    1.40
 -11   0  -7   14.70    1.50
 -11   0  -7   16.10    1.50
  11   0   7   13.70    1.70
 -12   0  -7   -0.20    0.80
 -12   0  -7    0.40    0.80
  12   0   7    1.10    1.30
 -13   0  -7    0.40    1.00
 -13   0  -7    0.40    0.80
  13   0   7    1.20    1.30
 -14   0  -7   -2.30    1.10
 -14   0  -7    0.60    1.00
  14   0   7    1.20    1.40
 -15   0  -7    1.10    1.40
 -15   0  -7    0.40    1.10
  15   0   7   -0.20    1.40
 -14   1   7   -0.90    1.40
 -14   1   7   -0.90    1.30
 -13   1   7   -1.80    1.20
 -13   1   7   -0.50    1.00
 -12   1   7    1.10    1.00
 -11   1   7   23.90    2.10
 -11   1   7   22.60    1.90
  10  -1  -7   37.30    1.80
 -10   1   7   39.10    2.40
 -10   1   7   39.50    2.70
   9  -1  -7   10.00    0.90
  -9   1   7   12.00    1.00
  -9   1   7   11.30    1.50
  -9   1   7   12.70    1.40
   8  -1  -7    1.00    0.50
  -8   1   7    0.60    0.60
  -8   1   7    1.60    0.60
  -8   1   7    1.50    0.80
   7  -1  -7   28.20    1.50
  -7   1   7   29.80    2.00
  -7   1   7   27.40    1.70
  -7   1   7   27.70    1.60
   6  -1  -7   88.99    3.70
  -6   1   7   82.29    3.80
  -6   1   7   80.99    3.70
  -6   1   7   89.09    4.10
   5  -1  -7   30.60    1.60
   5  -1  -7   29.10    1.60
  -5   1   7   27.80    1.60
  -5   1   7   30.90    1.60
  -5   1   7   29.90    1.80
   4  -1  -7   32.30    1.70
   4  -1  -7   29.60    1.60
  -4   1   7   31.00    1.60
  -4   1   7   29.20    1.60
  -4   1   7   33.50    1.80
   3  -1  -7   87.89    3.70
   3  -1  -7   85.19    3.50
  -3   1   7   79.59    3.80
  -3   1   7   84.69    3.50
  -3   1   7   81.89    3.90
  -3   1   7   77.99    3.60
   2  -1  -7   97.09    3.90
   2  -1  -7   94.29    4.10
   2  -1  -7   93.79    4.20
  -2   1   7   92.49    4.10
  -2   1   7   93.49    4.10
  -2   1   7   91.19    3.90
   1  -1  -7  122.39    5.20
   1  -1  -7  114.69    4.90
   1  -1  -7  122.49    5.10
  -1   1   7  121.89    5.30
  -1   1   7  127.89    5.20
  -1   1   7  114.89    4.90
   0  -1  -7   14.10    1.00
   0  -1  -7   12.90    1.00
   0  -1  -7   14.00    0.70
   0   1   7   14.40    0.70
   0   1   7   14.50    1.00
  -1  -1  -7  133.89    5.50
  -1  -1  -7  129.89    5.50
   1   1   7  121.29    5.50
   1   1   7  132.89    5.50
  -2  -1  -7   81.19    3.40
  -2  -1  -7   68.59    3.30
  -2  -1  -7   77.09    3.00
  -2  -1  -7   73.79    3.00
   2   1   7   75.49    3.30
   2   1   7   74.49    3.40
  -3  -1  -7    6.90    0.70
  -3  -1  -7    5.70    0.70
  -3  -1  -7    6.60    0.40
  -3  -1  -7    6.30    0.40
   3   1   7    7.30    0.70
   3   1   7    6.40    0.70
  -4  -1  -7    1.30    0.40
  -4  -1  -7    1.40    0.30
  -4  -1  -7    1.20    0.30
  -4  -1  -7    2.00    0.60
   4   1   7    0.20    0.40
   4   1   7    1.00    0.40
  -5  -1  -7    1.00    0.30
  -5  -1  -7    0.30    0.50
  -5  -1  -7    0.50    0.30
  -5  -1  -7    0.20    0.40
   5   1   7    1.00    0.50
   5   1   7    0.50    0.50
  -6  -1  -7   32.30    1.60
  -6  -1  -7   34.30    1.90
   6   1   7   28.90    1.80
   6   1   7   34.80    1.90
   6   1   7   32.60    1.60
  -7  -1  -7    1.70    0.50
  -7  -1  -7    2.50    0.70
   7   1   7    1.10    0.60
   7   1   7    1.40    0.50
  -8  -1  -7    1.90    0.70
  -8  -1  -7    0.60    0.60
   8   1   7   -0.50    0.60
   8   1   7    0.40    0.70
  -9  -1  -7   62.49    3.50
  -9  -1  -7   65.79    3.10
   9   1   7   65.19    3.40
 -10  -1  -7   -1.00    0.60
 -10  -1  -7   -0.50    0.60
  10   1   7    0.00    0.90
 -11  -1  -7    3.70    1.00
 -11  -1  -7    2.90    0.90
  11   1   7    4.60    1.30
 -12  -1  -7   10.60    1.40
 -12  -1  -7   12.50    1.40
  12   1   7   12.80    1.70
 -13  -1  -7    1.20    1.10
 -13  -1  -7   -0.40    0.80
  13   1   7    2.30    1.30
 -14  -1  -7    2.60    1.30
 -14  -1  -7    2.40    1.10
  14   1   7    3.70    1.50
 -15  -1  -7    3.50    1.20
 -15  -1  -7    1.40    1.30
  15   1   7    3.10    1.50
 -16  -1  -7    6.80    1.60
  16   1   7    6.20    2.00
 -14   2   7    7.70    1.50
 -14   2   7    6.00    1.80
 -13   2   7    2.80    1.20
 -13   2   7    3.90    1.50
 -12   2   7    1.00    1.00
 -12   2   7    0.60    1.10
 -11   2   7    3.70    1.10
 -11   2   7    2.50    1.10
 -10   2   7    6.90    1.10
 -10   2   7    9.60    1.50
   9  -2  -7    0.00    0.40
  -9   2   7   -0.30    0.80
  -9   2   7    0.40    0.50
  -9   2   7   -0.20    0.60
   8  -2  -7   16.90    1.00
  -8   2   7   15.90    1.60
  -8   2   7   17.20    1.30
  -8   2   7   14.90    1.10
   7  -2  -7    3.70    0.60
  -7   2   7    3.00    0.60
  -7   2   7    3.80    1.00
  -7   2   7    3.30    0.70
   6  -2  -7   10.70    1.10
   6  -2  -7   12.50    0.90
  -6   2   7   13.50    1.30
  -6   2   7   13.20    1.00
  -6   2   7   12.40    0.90
   5  -2  -7    3.30    0.60
   5  -2  -7    3.10    0.70
  -5   2   7    3.50    0.50
  -5   2   7    3.70    0.60
  -5   2   7    3.80    1.00
   4  -2  -7    0.40    0.40
   4  -2  -7   -0.10    0.40
  -4   2   7    0.90    0.40
  -4   2   7    1.00    0.50
  -4   2   7    0.50    0.40
   3  -2  -7    5.50    0.70
   3  -2  -7    3.80    0.60
  -3   2   7    4.80    0.60
  -3   2   7    4.80    0.80
  -3   2   7    5.60    0.80
  -3   2   7    4.90    0.50
   2  -2  -7   35.40    1.80
   2  -2  -7   33.10    1.80
   2  -2  -7   36.10    1.60
  -2   2   7   35.00    1.60
  -2   2   7   32.20    1.70
  -2   2   7   36.80    1.90
   1  -2  -7   66.19    3.20
   1  -2  -7   70.89    2.80
   1  -2  -7   71.29    3.10
  -1   2   7   72.49    3.20
  -1   2   7   67.79    2.80
  -1   2   7   65.29    3.00
   0  -2  -7   92.59    4.30
   0  -2  -7   95.69    4.10
   0   2   7   86.59    4.00
   0   2   7  101.29    4.10
  -1  -2  -7    9.40    0.80
   1   2   7    6.80    0.80
   1   2   7    9.70    0.80
  -2  -2  -7   75.69    3.50
   2   2   7   78.29    3.40
   2   2   7   78.99    3.60
  -3  -2  -7  112.09    5.00
  -3  -2  -7  119.39    5.10
  -3  -2  -7  119.49    4.70
  -3  -2  -7  123.29    4.70
   3   2   7  122.59    5.00
   3   2   7  110.59    5.00
  -4  -2  -7   31.80    1.70
  -4  -2  -7   34.10    1.80
  -4  -2  -7   36.90    1.50
   4   2   7   37.20    1.80
   4   2   7   34.20    1.70
   4   2   7   32.70    1.80
  -5  -2  -7   27.00    1.60
  -5  -2  -7   29.40    1.40
  -5  -2  -7   32.20    1.70
   5   2   7   29.80    1.70
   5   2   7   30.00    1.50
   5   2   7   30.80    1.70
  -6  -2  -7   58.39    2.50
  -6  -2  -7   50.79    2.70
  -6  -2  -7   58.09    2.80
   6   2   7   54.79    2.50
   6   2   7   59.49    2.70
   6   2   7   53.89    2.70
  -7  -2  -7   21.20    1.30
  -7  -2  -7   20.70    1.40
   7   2   7   22.00    1.30
   7   2   7   21.20    1.50
  -8  -2  -7   28.80    1.60
  -8  -2  -7   25.60    1.70
   8   2   7   28.00    1.70
   8   2   7   29.30    1.90
  -9  -2  -7    7.70    1.00
  -9  -2  -7    6.80    1.60
   9   2   7    5.30    1.10
 -10  -2  -7   32.50    2.00
 -10  -2  -7   33.10    2.00
  10   2   7   34.40    2.30
 -11  -2  -7   13.10    1.40
 -11  -2  -7   12.70    1.40
  11   2   7   14.10    1.70
 -12  -2  -7    4.30    1.00
 -12  -2  -7    2.80    1.00
  12   2   7    5.90    1.40
 -13  -2  -7    2.70    1.00
 -13  -2  -7    4.00    1.20
  13   2   7    4.10    1.20
 -14  -2  -7    0.70    1.80
 -14  -2  -7    3.40    1.10
 -15  -2  -7    2.20    1.30
 -15  -2  -7    0.20    1.10
  15   2   7   -0.70    1.50
 -16  -2  -7    4.10    1.40
  16   2   7   -0.10    1.70
 -14   3   7    3.40    1.30
 -14   3   7    1.60    1.40
 -13   3   7    1.20    1.40
 -13   3   7    2.60    1.10
 -12   3   7    2.60    1.40
 -12   3   7    4.90    1.30
 -11   3   7   17.60    1.70
 -11   3   7   15.10    1.90
 -10   3   7   41.30    2.80
 -10   3   7   38.70    2.40
  -9   3   7   32.50    2.40
  -9   3   7   33.10    2.10
   8  -3  -7   64.99    3.00
  -8   3   7   66.39    2.90
  -8   3   7   71.19    3.70
  -8   3   7   68.19    3.30
   7  -3  -7  106.09    4.40
  -7   3   7  105.29    4.90
  -7   3   7  107.59    5.10
  -7   3   7  102.09    4.40
   6  -3  -7   36.40    1.70
   6  -3  -7   30.20    1.90
  -6   3   7   35.90    1.90
  -6   3   7   36.10    1.70
  -6   3   7   29.50    2.10
   5  -3  -7   11.40    0.90
   5  -3  -7   11.40    0.80
  -5   3   7   10.10    0.80
  -5   3   7   11.70    1.40
  -5   3   7   11.00    0.90
   4  -3  -7    1.30    0.40
   4  -3  -7    1.90    0.50
  -4   3   7    0.20    0.30
  -4   3   7    0.60    0.30
  -4   3   7    0.50    0.50
   3  -3  -7   17.30    1.00
   3  -3  -7   16.90    1.10
  -3   3   7   19.30    1.30
  -3   3   7   21.80    1.30
  -3   3   7   19.00    1.10
  -3   3   7   19.40    1.00
   2  -3  -7   36.70    1.80
   2  -3  -7   34.30    1.60
  -2   3   7   37.10    1.90
  -2   3   7   36.00    2.00
  -2   3   7   35.50    1.70
  -2   3   7   36.40    1.60
   1  -3  -7    3.60    0.60
   1  -3  -7    3.20    0.60
  -1   3   7    3.30    0.60
  -1   3   7    2.40    0.40
  -1   3   7    3.80    0.40
   0  -3  -7    3.50    0.60
   0   3   7    3.60    0.50
   0   3   7    2.40    0.50
  -1  -3  -7    1.30    0.40
  -1  -3  -7    1.10    0.40
   1   3   7    1.40    0.40
   1   3   7    1.30    0.40
  -2  -3  -7   26.50    1.50
  -2  -3  -7   24.30    1.40
   2   3   7   27.30    1.40
   2   3   7   27.70    1.60
  -3  -3  -7    7.30    0.80
  -3  -3  -7    6.10    0.40
  -3  -3  -7    6.00    0.70
   3   3   7    7.10    0.40
   3   3   7    6.70    0.70
   3   3   7    7.00    0.70
  -4  -3  -7    0.20    0.20
  -4  -3  -7    0.30    0.40
   4   3   7   -0.50    0.40
   4   3   7    0.30    0.40
   4   3   7   -0.10    0.20
  -5  -3  -7    7.70    0.90
  -5  -3  -7    6.10    0.50
  -5  -3  -7    5.50    0.70
   5   3   7    5.60    0.60
   5   3   7    7.40    0.80
   5   3   7    5.50    0.80
  -6  -3  -7   30.20    1.70
  -6  -3  -7   31.20    1.80
  -6  -3  -7   34.00    1.60
   6   3   7   29.30    1.60
   6   3   7   31.80    1.70
   6   3   7   29.60    1.70
  -7  -3  -7   40.80    2.20
  -7  -3  -7   40.10    1.90
  -7  -3  -7   34.60    2.20
   7   3   7   38.90    1.90
   7   3   7   38.20    2.10
  -8  -3  -7    1.10    0.60
  -8  -3  -7    0.20    0.50
   8   3   7    1.60    0.60
   8   3   7   -0.20    0.60
  -9  -3  -7   46.20    2.40
  -9  -3  -7   44.80    2.80
   9   3   7   49.50    2.60
 -10  -3  -7   15.20    1.30
 -10  -3  -7   13.50    1.30
  10   3   7   16.20    1.60
 -11  -3  -7   10.60    1.30
 -11  -3  -7   10.60    1.30
  11   3   7   13.70    1.60
 -12  -3  -7   68.09    3.60
 -12  -3  -7   69.19    3.60
  12   3   7   77.09    3.90
 -13  -3  -7   14.70    1.60
 -13  -3  -7   12.70    1.60
  13   3   7   14.90    1.90
 -14  -3  -7    6.10    1.30
  14   3   7    7.00    1.60
 -15  -3  -7    4.30    1.30
 -15  -3  -7    2.50    1.30
  15   3   7    4.30    1.70
 -16  -3  -7    1.70    1.40
  16   3   7    3.00    1.80
  16   3   7    0.50    1.80
 -14   4   7    2.30    1.30
 -14   4   7    0.50    1.70
 -13   4   7    1.60    1.40
 -13   4   7    1.10    1.10
 -12   4   7    0.80    1.00
 -11   4   7    3.00    0.90
  10  -4  -7    6.80    1.30
 -10   4   7    5.40    1.00
  -9   4   7   40.10    2.30
   8  -4  -7    2.30    0.40
  -8   4   7    3.10    0.80
  -8   4   7    2.80    0.50
   7  -4  -7   12.10    0.80
  -7   4   7   15.20    1.70
  -7   4   7   11.90    0.80
  -7   4   7   14.00    1.20
   6  -4  -7   42.70    2.00
  -6   4   7   40.00    1.90
  -6   4   7   42.30    2.50
  -6   4   7   43.20    2.20
   5  -4  -7   14.00    0.90
   5  -4  -7   11.10    1.00
  -5   4   7   15.30    1.30
  -5   4   7   14.20    1.00
  -5   4   7   13.20    0.90
   4  -4  -7   18.80    1.10
   4  -4  -7   17.60    1.10
  -4   4   7   17.10    1.00
  -4   4   7   17.20    1.40
  -4   4   7   17.60    1.10
   3  -4  -7   44.30    2.00
   3  -4  -7   46.00    2.10
  -3   4   7   40.70    2.00
  -3   4   7   42.80    2.50
  -3   4   7   44.10    2.30
  -3   4   7   43.10    2.00
   2  -4  -7  166.08    6.70
  -2   4   7  163.68    6.90
  -2   4   7  165.08    6.60
  -2   4   7  154.18    6.60
  -2   4   7  160.78    6.50
  -2   4   7  160.58    6.90
   1  -4  -7  301.57   12.10
  -1   4   7  289.97   12.10
  -1   4   7  303.17   12.20
  -1   4   7  301.97   11.90
  -1   4   7  301.97   12.30
   0  -4  -7  320.47   13.20
   0  -4  -7  325.77   12.90
   0   4   7  317.97   12.80
   0   4   7  310.97   12.50
   0   4   7  320.97   12.50
   0   4   7  313.47   12.80
  -1  -4  -7  280.97   11.40
  -1  -4  -7  284.57   11.40
   1   4   7  277.47   11.00
   1   4   7  283.27   11.30
   1   4   7  277.57   11.00
  -2  -4  -7   23.20    1.40
  -2  -4  -7   21.50    0.90
  -2  -4  -7   21.10    1.30
   2   4   7   21.20    0.90
   2   4   7   21.30    1.20
   2   4   7   21.10    1.20
  -3  -4  -7  480.65   19.90
  -3  -4  -7  518.65   20.00
  -3  -4  -7  503.25   19.60
   3   4   7  495.95   19.60
   3   4   7  479.15   19.90
   3   4   7  516.95   19.80
  -4  -4  -7   41.40    2.10
  -4  -4  -7   44.90    2.00
  -4  -4  -7   44.60    2.30
   4   4   7   46.00    2.00
   4   4   7   46.40    2.30
   4   4   7   47.90    2.20
  -5  -4  -7   42.20    2.20
  -5  -4  -7   42.90    1.90
  -5  -4  -7   35.60    2.20
   5   4   7   44.60    2.00
   5   4   7   42.40    1.90
   5   4   7   41.80    2.20
  -6  -4  -7  122.89    5.30
  -6  -4  -7  122.09    5.10
  -6  -4  -7  115.29    5.10
   6   4   7  116.49    5.00
   6   4   7  128.79    5.20
  -7  -4  -7   45.30    2.40
  -7  -4  -7   41.90    2.20
  -7  -4  -7   45.30    2.20
   7   4   7   43.80    2.20
   7   4   7   46.40    2.30
  -8  -4  -7   31.30    1.70
   8   4   7   26.80    1.70
   8   4   7   31.20    1.80
  -9  -4  -7   26.00    1.80
  -9  -4  -7   27.70    1.70
   9   4   7   28.90    1.90
 -10  -4  -7    1.20    0.70
 -10  -4  -7    0.10    0.70
  10   4   7    1.10    0.80
 -11  -4  -7    2.70    0.90
 -11  -4  -7    2.30    0.90
  11   4   7    3.50    1.00
 -12  -4  -7    4.80    1.10
 -12  -4  -7    5.90    1.20
  12   4   7    5.70    1.30
 -13  -4  -7    1.90    1.20
 -13  -4  -7    1.30    1.00
  13   4   7    0.40    1.10
 -14  -4  -7   -1.10    1.10
 -14  -4  -7    1.20    1.30
  14   4   7   -0.50    1.30
 -15  -4  -7    0.30    1.20
  15   4   7   -2.00    2.40
 -16  -4  -7    1.30    1.30
  16   4   7    1.30    1.80
  16   4   7    1.20    1.70
  14  -5  -7   12.50    2.00
 -14   5   7   13.10    1.90
  13  -5  -7   11.40    1.80
 -13   5   7   13.80    1.80
  12  -5  -7   23.90    2.30
 -12   5   7   23.40    2.10
  11  -5  -7   20.30    2.00
 -11   5   7   21.40    1.90
  10  -5  -7   15.90    1.90
 -10   5   7   13.20    1.40
   9  -5  -7   34.20    2.40
  -9   5   7   32.60    2.10
   8  -5  -7    0.60    0.70
  -8   5   7    0.80    0.60
   7  -5  -7   15.00    0.90
   7  -5  -7   15.90    1.50
  -7   5   7   17.00    1.30
  -7   5   7   15.90    0.90
   6  -5  -7    0.60    0.40
  -6   5   7    1.00    0.40
  -6   5   7    2.30    0.60
   5  -5  -7  139.79    5.60
   5  -5  -7  128.89    5.70
  -5   5   7  128.89    5.50
  -5   5   7  137.89    5.70
  -5   5   7  137.19    6.10
   4  -5  -7   47.90    2.20
  -4   5   7   46.80    2.20
  -4   5   7   44.80    2.10
   3  -5  -7   41.80    2.00
  -3   5   7   41.40    2.00
  -3   5   7   41.90    2.00
  -3   5   7   38.30    1.90
  -3   5   7   43.30    2.30
   2  -5  -7    9.90    0.80
  -2   5   7    9.30    1.00
  -2   5   7    9.50    0.70
  -2   5   7   10.90    0.70
  -2   5   7    8.70    0.70
  -2   5   7    9.20    1.00
   1  -5  -7   23.30    1.40
  -1   5   7   23.40    1.50
  -1   5   7   22.80    1.30
  -1   5   7   24.20    1.20
  -1   5   7   24.10    1.20
  -1   5   7   24.70    1.40
   0  -5  -7    1.60    0.50
   0   5   7    2.10    0.30
   0   5   7    2.20    0.40
   0   5   7    2.10    0.50
  -1  -5  -7   13.90    1.00
  -1  -5  -7   15.10    1.10
  -1  -5  -7   12.80    0.80
   1   5   7   13.80    0.90
   1   5   7   13.70    1.00
   1   5   7   12.00    0.70
  -2  -5  -7   90.99    4.00
  -2  -5  -7   94.59    4.10
  -2  -5  -7   90.19    3.80
   2   5   7   90.59    3.70
   2   5   7   89.09    4.00
   2   5   7   94.09    3.90
  -3  -5  -7    0.40    0.20
  -3  -5  -7    0.30    0.40
  -3  -5  -7    0.70    0.50
   3   5   7    1.30    0.30
   3   5   7    0.20    0.40
   3   5   7    1.40    0.40
  -4  -5  -7   18.20    1.00
  -4  -5  -7   15.60    1.10
  -4  -5  -7   18.30    1.30
   4   5   7   17.80    0.90
   4   5   7   16.60    1.20
   4   5   7   16.40    1.00
  -5  -5  -7   19.60    1.10
  -5  -5  -7   16.60    1.30
  -5  -5  -7   18.60    1.20
   5   5   7   19.80    1.20
   5   5   7   17.70    1.10
  -6  -5  -7   13.50    1.00
  -6  -5  -7   15.20    1.30
  -6  -5  -7   15.40    1.00
   6   5   7   14.50    1.00
   6   5   7   14.70    1.10
  -7  -5  -7   15.30    1.10
  -7  -5  -7   10.80    1.00
   7   5   7   11.50    1.00
   7   5   7   12.70    1.00
  -8  -5  -7    8.70    1.00
  -8  -5  -7   12.10    1.10
  -8  -5  -7   12.80    1.20
   8   5   7    8.60    1.00
   8   5   7   10.40    1.10
  -9  -5  -7   19.60    1.60
   9   5   7   19.90    1.50
 -10  -5  -7   90.09    4.40
 -10  -5  -7   87.59    4.20
  10   5   7  102.69    5.30
 -11  -5  -7   13.80    1.60
 -11  -5  -7   12.00    1.40
  11   5   7   13.50    1.50
 -12  -5  -7   44.00    2.70
 -12  -5  -7   47.50    2.90
  12   5   7   51.49    2.90
 -13  -5  -7   27.50    2.10
 -13  -5  -7   22.70    2.10
  13   5   7   24.80    2.20
 -14  -5  -7    9.80    1.50
  14   5   7   10.60    1.70
 -15  -5  -7    6.90    1.60
  15   5   7    8.50    1.80
  15   5   7    5.60    1.90
 -16  -5  -7   -0.50    1.50
  16   5   7    5.10    1.90
  16   5   7    0.50    1.90
 -14   6   7    2.10    1.40
  13  -6  -7    3.30    1.40
 -13   6   7   -0.30    1.10
  12  -6  -7    0.10    1.10
 -12   6   7    0.10    1.00
  11  -6  -7    0.80    0.90
  10  -6  -7    0.20    1.10
 -10   6   7    1.10    0.90
   9  -6  -7    5.40    1.20
  -9   6   7    6.50    1.20
   8  -6  -7   32.60    2.20
  -8   6   7   28.60    1.90
   7  -6  -7   22.90    1.80
  -7   6   7   21.30    1.10
  -7   6   7   23.80    1.60
   6  -6  -7  132.19    6.00
   6  -6  -7  134.29    5.50
  -6   6   7  125.49    5.40
  -6   6   7  131.69    5.90
   5  -6  -7  121.89    5.60
   5  -6  -7  127.89    5.20
  -5   6   7  120.59    5.10
  -5   6   7  124.39    5.30
   4  -6  -7  263.27   10.40
  -4   6   7  257.67   10.70
  -4   6   7  248.88   10.40
  -4   6   7  259.27   10.40
  -4   6   7  247.58   10.30
   3  -6  -7  198.38    8.00
  -3   6   7  186.78    8.00
  -3   6   7  198.58    8.30
  -3   6   7  187.18    7.90
  -3   6   7  199.88    8.00
   2  -6  -7  230.98    9.20
  -2   6   7  217.88    9.20
  -2   6   7  222.68    9.10
  -2   6   7  227.38    9.10
  -2   6   7  227.48    9.40
  -2   6   7  217.68    9.40
   1  -6  -7  204.58    8.40
  -1   6   7  194.58    8.40
  -1   6   7  203.78    8.40
  -1   6   7  200.68    8.50
  -1   6   7  197.48    8.10
  -1   6   7  206.88    8.20
   0  -6  -7    3.70    0.70
   0   6   7    3.80    0.60
   0   6   7    4.00    0.50
   0   6   7    4.30    0.60
  -1  -6  -7   10.20    1.00
  -1  -6  -7   10.60    0.70
   1   6   7   11.50    0.90
   1   6   7   10.40    0.80
   1   6   7   10.30    0.70
   1   6   7    9.60    0.90
  -2  -6  -7    1.60    0.60
  -2  -6  -7    1.90    0.40
  -2  -6  -7    1.10    0.50
   2   6   7    0.30    0.30
   2   6   7    0.20    0.40
   2   6   7    0.70    0.40
  -3  -6  -7  103.79    4.30
  -3  -6  -7  107.69    4.50
  -3  -6  -7  104.39    4.70
   3   6   7  112.39    4.40
   3   6   7   96.79    4.90
   3   6   7  100.09    4.30
  -4  -6  -7   36.00    2.00
  -4  -6  -7   33.90    1.80
  -4  -6  -7   37.90    1.70
   4   6   7   32.90    1.70
   4   6   7   38.00    1.80
  -5  -6  -7    2.40    0.70
  -5  -6  -7    2.70    0.50
  -5  -6  -7    2.90    0.50
   5   6   7    3.60    0.50
   5   6   7    3.00    0.50
  -6  -6  -7   33.60    1.70
  -6  -6  -7   32.70    2.00
  -6  -6  -7   25.10    1.60
   6   6   7   30.50    1.60
   6   6   7   30.70    1.80
  -7  -6  -7    1.50    0.70
  -7  -6  -7    2.30    0.70
  -7  -6  -7    1.30    0.60
   7   6   7    0.70    0.50
   7   6   7    1.90    0.60
  -8  -6  -7    5.60    0.80
  -8  -6  -7    4.80    0.90
  -8  -6  -7    6.00    1.00
   8   6   7    6.40    0.80
  -9  -6  -7   -0.50    0.70
  -9  -6  -7    0.00    0.60
  -9  -6  -7   -0.90    0.60
   9   6   7    0.10    0.70
 -10  -6  -7    2.90    0.90
 -10  -6  -7    2.20    0.90
  10   6   7    3.00    0.90
 -11  -6  -7    3.50    1.00
 -11  -6  -7    2.20    1.00
  11   6   7    6.10    1.90
 -12  -6  -7   -0.40    0.90
 -12  -6  -7   -1.20    1.00
  12   6   7    0.20    1.00
 -13  -6  -7    1.10    1.00
  13   6   7    4.60    1.30
 -14  -6  -7   -1.00    1.20
  14   6   7    0.30    1.40
  14   6   7   -0.50    1.20
 -15  -6  -7    0.90    1.30
  15   6   7    1.30    1.60
  15   6   7    3.50    1.60
  13  -7  -7    6.60    1.70
 -13   7   7    7.20    1.40
  12  -7  -7   12.90    1.90
 -12   7   7   15.40    1.80
  11  -7  -7   21.70    2.20
 -11   7   7   20.70    2.00
  10  -7  -7   17.10    1.90
 -10   7   7   19.40    1.80
   9  -7  -7   16.30    1.90
  -9   7   7   21.10    1.70
   8  -7  -7    6.80    1.20
  -8   7   7    6.80    1.10
   7  -7  -7    0.60    0.70
  -7   7   7    1.40    0.70
  -7   7   7    1.20    0.40
  -7   7   7    0.80    0.40
   6  -7  -7   48.90    2.80
  -6   7   7   50.89    2.30
  -6   7   7   41.60    2.10
  -6   7   7   46.00    2.50
   5  -7  -7   12.30    1.40
   5  -7  -7    9.80    0.90
  -5   7   7   12.30    1.20
  -5   7   7   10.80    0.90
   4  -7  -7   12.60    1.00
  -4   7   7   14.40    1.10
  -4   7   7   12.00    1.00
  -4   7   7   12.10    1.00
   3  -7  -7    5.10    0.80
  -3   7   7    3.40    0.80
  -3   7   7    4.60    0.80
  -3   7   7    4.10    0.70
   2  -7  -7    0.90    0.40
  -2   7   7    1.10    0.50
  -2   7   7    1.60    0.40
  -2   7   7    1.40    0.50
  -2   7   7    1.40    0.60
   1  -7  -7   53.99    2.70
  -1   7   7   53.59    2.50
  -1   7   7   55.89    2.70
  -1   7   7   52.29    2.70
  -1   7   7   54.09    2.60
  -1   7   7   56.29    2.50
   0  -7  -7   54.29    2.70
   0  -7  -7   55.59    2.40
   0   7   7   51.89    2.60
   0   7   7   52.89    2.40
   0   7   7   51.49    2.60
   0   7   7   53.59    2.60
  -1  -7  -7   65.59    3.10
  -1  -7  -7   62.89    2.80
   1   7   7   61.39    2.80
   1   7   7   63.59    3.20
   1   7   7   62.89    3.00
   1   7   7   65.69    2.90
  -2  -7  -7   59.59    2.70
  -2  -7  -7   61.09    3.00
   2   7   7   57.79    2.60
   2   7   7   60.49    2.80
   2   7   7   60.69    2.70
  -3  -7  -7   82.39    3.90
  -3  -7  -7   82.39    3.50
   3   7   7   87.69    3.50
   3   7   7   75.09    3.50
  -4  -7  -7  217.68    8.80
  -4  -7  -7  213.08    8.80
  -4  -7  -7  227.88   10.10
   4   7   7  221.08    8.70
   4   7   7  201.68    8.70
  -5  -7  -7   40.80    2.00
  -5  -7  -7   40.50    2.30
  -5  -7  -7   40.60    2.00
   5   7   7   38.80    1.90
  -6  -7  -7    2.30    0.70
  -6  -7  -7    2.10    0.60
  -6  -7  -7    2.60    0.70
   6   7   7    0.90    0.50
   6   7   7    1.40    0.50
  -7  -7  -7   24.10    1.50
  -7  -7  -7   27.00    1.60
  -7  -7  -7   30.20    1.90
   7   7   7   29.00    1.50
  -8  -7  -7   23.60    1.80
  -8  -7  -7   18.70    1.40
  -8  -7  -7   21.00    1.70
   8   7   7   22.30    1.40
  -9  -7  -7    5.10    0.90
  -9  -7  -7    3.30    1.00
  -9  -7  -7    6.50    1.10
   9   7   7    5.50    0.90
 -10  -7  -7    4.80    1.10
 -10  -7  -7    6.10    1.20
 -10  -7  -7    4.40    0.90
  10   7   7    5.50    0.90
 -11  -7  -7    4.40    1.00
 -11  -7  -7    7.40    1.30
 -11  -7  -7    5.30    1.10
  11   7   7    7.40    1.10
 -12  -7  -7    0.40    0.90
  12   7   7    0.80    1.10
  13   7   7   20.90    2.30
  13   7   7   18.00    1.90
 -14  -7  -7    2.40    1.20
  14   7   7    0.20    1.40
  14   7   7    0.60    1.40
 -15  -7  -7    0.90    1.30
  15   7   7    1.40    1.50
  15   7   7   -0.10    1.60
  13  -8  -7    2.20    1.50
 -13   8   7    4.40    1.40
  12  -8  -7   24.40    2.40
 -12   8   7   23.80    2.20
  11  -8  -7   18.10    2.20
 -11   8   7   23.70    2.10
  10  -8  -7   40.20    3.00
   9  -8  -7   44.60    3.60
  -9   8   7   41.30    2.60
   8  -8  -7   15.80    1.90
  -8   8   7   14.60    1.40
  -8   8   7   12.60    0.90
  -8   8   7   11.80    0.80
   7  -8  -7    0.00    0.80
  -7   8   7    1.10    0.60
  -7   8   7    1.10    0.50
  -7   8   7    0.60    0.40
   6  -8  -7    5.10    1.10
  -6   8   7    6.30    1.00
  -6   8   7    5.10    0.70
  -6   8   7    4.90    0.80
   5  -8  -7   47.20    2.80
  -5   8   7   49.60    2.50
  -5   8   7   50.89    2.60
   4  -8  -7   85.09    4.10
  -4   8   7   80.79    3.70
  -4   8   7   84.09    4.00
   3  -8  -7   50.19    2.50
  -3   8   7   49.80    2.50
  -3   8   7   52.39    2.70
  -3   8   7   47.10    2.40
   2  -8  -7   73.89    3.30
  -2   8   7   66.19    3.10
  -2   8   7   71.39    3.40
  -2   8   7   65.29    3.20
  -2   8   7   67.99    3.20
   1  -8  -7   45.00    2.40
  -1   8   7   44.50    2.30
  -1   8   7   44.20    2.20
  -1   8   7   45.90    2.40
   0  -8  -7    2.90    0.60
   0  -8  -7    1.90    0.60
   0   8   7    0.90    0.50
   0   8   7    1.30    0.60
  -1  -8  -7    2.40    0.70
  -1  -8  -7    2.80    0.60
   1   8   7    2.40    0.50
   1   8   7    2.30    0.60
   1   8   7    2.50    0.60
  -2  -8  -7    6.30    1.20
  -2  -8  -7    6.80    0.80
   2   8   7    6.20    0.70
   2   8   7    5.90    0.70
   2   8   7    5.70    0.80
  -3  -8  -7    2.20    0.70
  -3  -8  -7    1.50    0.50
   3   8   7    2.40    0.50
   3   8   7    2.30    0.60
   3   8   7    2.70    0.50
  -4  -8  -7    4.20    0.70
  -4  -8  -7    4.50    0.90
   4   8   7    4.50    0.70
   4   8   7    5.20    0.60
   4   8   7    4.00    0.60
  -5  -8  -7   90.19    4.30
  -5  -8  -7   91.89    3.90
   5   8   7   90.09    3.70
   5   8   7   81.09    3.90
  -6  -8  -7   31.50    1.80
  -6  -8  -7   29.90    1.60
  -6  -8  -7   34.10    2.10
   6   8   7   29.30    1.50
  -7  -8  -7    2.20    0.80
  -7  -8  -7    0.60    0.70
  -7  -8  -7    0.50    0.60
   7   8   7    0.70    0.50
  -8  -8  -7   16.00    1.60
  -8  -8  -7   14.10    1.20
  -8  -8  -7   19.00    1.50
   8   8   7   16.70    1.20
  -9  -8  -7   22.20    1.90
  -9  -8  -7   22.60    1.80
  -9  -8  -7   18.10    1.40
   9   8   7   21.70    1.40
 -10  -8  -7    6.00    1.20
 -10  -8  -7    4.10    0.90
 -10  -8  -7    5.40    1.10
  10   8   7    4.70    0.90
 -11  -8  -7    9.10    1.50
 -11  -8  -7   16.50    1.70
  11   8   7   12.30    1.70
  11   8   7   15.00    1.40
 -12  -8  -7   11.20    1.60
  12   8   7   14.70    1.90
  12   8   7    9.70    1.20
 -13  -8  -7    0.00    1.10
  13   8   7   -0.90    1.00
  13   8   7    0.70    1.30
 -14  -8  -7   -0.20    1.20
 -15  -8  -7    5.30    1.70
  15   8   7    8.80    2.00
  12  -9  -7    2.90    1.40
 -12   9   7    1.00    1.10
  11  -9  -7    1.00    1.20
 -11   9   7    0.90    1.10
  10  -9  -7   -0.20    1.00
 -10   9   7    0.20    0.90
   9  -9  -7    1.20    1.00
  -9   9   7   -0.40    0.90
   8  -9  -7    7.70    1.40
  -8   9   7    8.90    0.80
  -8   9   7   10.40    1.30
  -8   9   7    8.90    0.90
   7  -9  -7   15.40    1.70
  -7   9   7   17.20    1.60
  -7   9   7   16.50    1.10
  -7   9   7   17.30    1.20
   6  -9  -7   12.90    1.50
  -6   9   7   13.40    1.40
  -6   9   7   10.30    1.00
  -6   9   7   10.10    1.00
   5  -9  -7    1.30    0.80
  -5   9   7   -0.10    0.70
  -5   9   7    0.90    0.60
  -5   9   7    0.10    0.50
   4  -9  -7   43.30    2.60
  -4   9   7   45.00    2.40
  -4   9   7   47.00    2.50
  -4   9   7   48.60    2.40
  -3   9   7    2.20    0.70
  -3   9   7    2.60    0.70
  -2   9   7    9.70    1.10
   1  -9  -7    4.10    0.80
  -1   9   7    3.20    0.70
   0  -9  -7    1.20    0.70
   0  -9  -7    1.60    0.60
   0   9   7    2.10    0.70
   0   9   7    1.20    0.50
   0   9   7    2.80    0.60
  -1  -9  -7   17.40    1.20
  -1  -9  -7   13.90    1.40
   1   9   7   13.30    1.10
   1   9   7   13.90    1.10
  -2  -9  -7   79.99    3.90
  -2  -9  -7   80.49    3.60
   2   9   7   79.59    3.40
   2   9   7   73.99    3.50
   2   9   7   75.49    3.50
  -3  -9  -7   46.40    2.30
  -3  -9  -7   47.30    2.70
   3   9   7   44.10    2.30
   3   9   7   44.80    2.40
   3   9   7   46.80    2.10
  -4  -9  -7  155.58    6.50
  -4  -9  -7  151.18    6.90
   4   9   7  148.89    6.40
   4   9   7  160.08    6.30
  -5  -9  -7   45.40    2.70
  -5  -9  -7   46.40    2.40
   5   9   7   47.00    2.20
   5   9   7   46.00    2.10
  -6  -9  -7    3.90    0.80
  -6  -9  -7    3.60    1.00
   6   9   7    3.10    0.60
   6   9   7    3.80    0.50
  -7  -9  -7    6.10    1.00
  -7  -9  -7    6.40    1.20
   7   9   7    6.60    0.70
  -8  -9  -7   39.90    2.40
   8   9   7   40.40    1.90
  -9  -9  -7    8.80    1.40
   9   9   7    7.00    1.30
   9   9   7    8.70    0.90
 -10  -9  -7    3.70    1.10
 -10  -9  -7    3.80    0.80
  10   9   7    2.40    1.20
  10   9   7    3.80    0.60
 -11  -9  -7   12.80    1.40
 -11  -9  -7   19.50    1.90
  11   9   7   17.40    1.20
  11   9   7   16.10    2.00
 -12  -9  -7    6.50    1.70
  12   9   7    3.70    0.80
  12   9   7    4.50    1.60
 -13  -9  -7    6.30    1.50
  13   9   7    3.70    1.60
 -14  -9  -7    1.00    1.40
  14   9   7    1.80    1.70
  12 -10  -7    2.80    2.00
 -12  10   7    0.40    1.30
  11 -10  -7   10.20    1.90
 -11  10   7   10.70    1.70
  10 -10  -7    5.50    1.50
 -10  10   7    4.60    1.30
   9 -10  -7   10.00    1.70
  -9  10   7    7.60    1.40
  -9  10   7    8.50    0.80
   8 -10  -7   -0.50    1.50
  -8  10   7   -1.50    0.70
  -8  10   7    0.10    0.60
  -8  10   7    0.90    0.60
   7 -10  -7    7.00    1.30
  -7  10   7    7.70    1.00
  -7  10   7    8.20    1.30
  -7  10   7    5.80    0.80
   6 -10  -7   15.60    1.70
  -6  10   7   11.90    1.20
  -6  10   7   12.60    1.40
  -6  10   7   14.80    1.60
   5 -10  -7    0.60    0.70
  -5  10   7    0.40    0.80
  -5  10   7    0.00    0.60
   4 -10  -7   85.89    4.20
  -4  10   7   82.69    4.00
   3 -10  -7   71.59    3.60
  -3  10   7   67.89    3.50
  -3  10   7   70.19    3.50
  -2  10   7   41.70    2.50
  -2  10   7   46.10    2.50
  -2  10   7   42.80    2.40
   1 -10  -7   18.40    1.40
  -1  10   7   20.90    1.60
  -1  10   7   18.90    1.50
   0 -10  -7   49.90    2.80
   0  10   7   54.89    2.90
   0  10   7   47.90    2.60
   0  10   7   50.69    2.60
   1  10   7   91.19    4.20
   1  10   7   91.59    4.10
   1  10   7   94.69    4.50
   2  10   7   17.00    1.30
   2  10   7   15.90    1.10
   2  10   7   15.20    1.50
  -3 -10  -7   12.90    1.30
   3  10   7   12.60    1.50
   3  10   7    9.70    0.80
   3  10   7    9.20    1.00
  -4 -10  -7   86.09    3.90
   4  10   7   85.79    3.60
   4  10   7   87.39    4.30
   4  10   7   81.19    3.70
  -5 -10  -7   40.60    2.30
   5  10   7   44.50    2.70
   5  10   7   41.90    2.00
   5  10   7   39.60    1.80
  -6 -10  -7   10.70    1.20
   6  10   7    9.40    1.00
   6  10   7   12.90    1.70
  -7 -10  -7   17.00    1.60
   7  10   7   18.60    1.90
  -8 -10  -7    9.30    1.30
   8  10   7    8.30    1.50
  -9 -10  -7   40.70    2.50
   9  10   7   39.10    2.80
 -10 -10  -7   22.00    2.00
  10  10   7   23.40    2.20
  11  10   7   40.70    4.40
 -12 -10  -7   18.00    2.00
  12  10   7   22.90    2.50
 -13 -10  -7    7.20    1.60
  13  10   7    2.70    1.60
 -14 -10  -7   -0.30    1.60
  14  10   7    2.20    1.90
  11 -11  -7   -0.10    1.40
 -11  11   7    1.60    1.30
  10 -11  -7    1.10    1.30
 -10  11   7   -0.20    1.00
   9 -11  -7    7.30    1.60
  -9  11   7    3.20    1.20
   8 -11  -7   13.30    1.90
  -8  11   7   12.70    1.80
  -8  11   7   10.80    1.20
   7 -11  -7   17.20    2.00
  -7  11   7   13.70    1.30
  -7  11   7   10.80    1.50
   6 -11  -7   23.40    2.20
  -6  11   7   26.10    2.00
  -6  11   7   24.90    1.70
   5 -11  -7   42.00    2.80
  -5  11   7   45.00    2.50
  -5  11   7   43.70    2.60
   4 -11  -7  104.99    5.10
  -4  11   7  105.79    5.00
  -4  11   7  107.59    5.00
   3 -11  -7   55.39    3.10
  -3  11   7   57.89    3.10
  -3  11   7   57.99    3.10
  -2  11   7   56.29    3.10
  -2  11   7   59.79    3.10
   1 -11  -7   41.10    2.40
  -1  11   7   44.90    2.60
   0 -11  -7   36.30    2.30
   0  11   7   43.70    2.60
   0  11   7   38.20    2.50
   0  11   7   43.80    2.30
  -1 -11  -7   30.20    2.00
   1  11   7   36.00    1.80
   1  11   7   28.50    1.80
   1  11   7   32.00    2.20
  -2 -11  -7    3.20    0.90
   2  11   7    3.50    0.70
   2  11   7    1.80    0.90
   2  11   7    3.50    0.70
  -3 -11  -7   31.60    2.00
   3  11   7   30.00    2.20
   3  11   7   33.90    1.60
   3  11   7   30.20    1.70
  -4 -11  -7   60.89    3.00
   4  11   7   56.49    2.50
   4  11   7   55.49    2.60
   4  11   7   55.49    3.30
  -5 -11  -7   82.89    4.00
   5  11   7   83.59    4.40
  -6 -11  -7   34.00    2.20
   6  11   7   28.20    2.30
  -7 -11  -7    3.40    1.00
   7  11   7    2.70    1.30
  -8 -11  -7    1.70    1.00
   8  11   7    3.10    1.30
  -9 -11  -7    6.90    1.30
  10  11   7    5.60    1.50
 -11 -11  -7   -0.10    1.10
  11  11   7    0.20    1.30
 -12 -11  -7    5.00    1.40
  12  11   7    2.90    1.50
 -13 -11  -7    1.90    1.60
  13  11   7    0.50    1.70
  10 -12  -7   14.50    2.10
 -10  12   7   10.70    1.70
   9 -12  -7    2.30    1.30
  -9  12   7    2.60    1.20
  -9  12   7    3.10    1.60
   8 -12  -7    5.00    1.40
  -8  12   7    4.80    1.30
   7 -12  -7    3.30    1.10
  -7  12   7    3.80    1.00
  -7  12   7    3.40    1.30
   6 -12  -7    1.60    1.10
  -6  12   7    1.40    0.90
  -6  12   7    4.80    1.90
   5 -12  -7    2.00    1.00
  -5  12   7    1.40    0.90
  -5  12   7    3.00    1.00
   4 -12  -7    0.70    0.80
  -4  12   7    0.80    0.80
  -4  12   7    1.50    0.80
  -3  12   7    4.60    1.00
  -3  12   7    3.80    1.00
  -2  12   7    0.10    0.70
  -2  12   7    0.50    0.80
   1 -12  -7   12.50    1.50
  -1  12   7   13.60    1.50
  -1  12   7   12.30    1.40
   0 -12  -7   27.10    2.00
   0  12   7   28.20    1.80
   0  12   7   29.30    2.10
  -1 -12  -7   11.40    1.40
   1  12   7   10.70    1.10
   1  12   7    9.80    1.10
   1  12   7   11.50    1.60
  -2 -12  -7   38.80    2.30
   2  12   7   30.50    1.90
   2  12   7   38.00    2.60
   2  12   7   39.20    1.90
  -3 -12  -7   25.30    1.90
   3  12   7   26.90    1.40
   3  12   7   31.40    2.30
   3  12   7   27.00    1.60
  -4 -12  -7   48.10    2.70
   4  12   7   48.50    3.10
  -5 -12  -7    1.10    0.80
   5  12   7   -0.50    0.90
  -6 -12  -7   18.60    1.70
   6  12   7   21.70    2.10
  -7 -12  -7   10.10    1.50
   7  12   7    9.10    2.00
  -8 -12  -7   28.80    2.30
   8  12   7   29.00    2.50
  -9 -12  -7    7.60    1.60
   9  12   7    6.50    1.60
 -10 -12  -7    5.30    1.50
  10  12   7    6.60    1.60
 -11 -12  -7    7.30    1.60
  11  12   7    9.30    1.80
 -12 -12  -7    9.50    1.90
  12  12   7    9.30    2.10
   9 -13  -7    4.90    1.60
  -9  13   7    6.20    1.60
   8 -13  -7    2.70    1.40
  -8  13   7    4.40    1.10
  -8  13   7    2.70    1.30
   7 -13  -7    4.80    1.40
  -7  13   7    6.00    1.20
  -7  13   7    5.30    1.30
   6 -13  -7   17.80    2.10
  -6  13   7   19.50    2.10
  -6  13   7   19.00    1.80
   5 -13  -7   23.00    2.10
  -5  13   7   22.30    2.20
  -5  13   7   20.30    1.90
   4 -13  -7   26.10    2.20
  -4  13   7   27.50    2.60
  -4  13   7   27.60    2.10
  -3  13   7   12.20    1.60
  -3  13   7   14.70    1.70
  -2  13   7   32.40    2.20
  -2  13   7   35.30    2.40
   1 -13  -7   25.10    2.00
  -1  13   7   31.40    2.30
  -1  13   7   28.30    2.00
   0 -13  -7   20.40    1.80
   0  13   7   23.00    2.00
   0  13   7   21.00    1.90
  -1 -13  -7   11.50    1.40
   1  13   7   11.10    1.10
   1  13   7   11.60    1.20
   1  13   7   14.90    1.90
  -2 -13  -7    0.70    0.80
   2  13   7    1.20    0.70
   2  13   7    0.70    0.60
   2  13   7    1.40    0.90
  -3 -13  -7    7.50    1.20
   3  13   7    6.90    1.50
   3  13   7    6.50    0.70
   3  13   7    6.00    0.70
  -4 -13  -7    1.60    1.00
  -5 -13  -7    8.80    1.40
   5  13   7    8.50    1.60
  -6 -13  -7   19.00    2.00
   6  13   7   21.00    2.10
   7  13   7    0.90    1.20
  -8 -13  -7    6.50    1.50
   8  13   7    6.70    1.60
  -9 -13  -7    1.50    1.10
   9  13   7    0.10    1.20
 -10 -13  -7    2.20    1.30
  10  13   7   -1.50    1.40
 -11 -13  -7    3.00    1.40
  11  13   7    0.60    1.70
   8 -14  -7    3.70    1.60
  -8  14   7    2.20    1.40
  -8  14   7    1.90    1.30
   7 -14  -7    0.60    1.40
  -7  14   7   -1.50    1.20
  -7  14   7   -0.40    1.10
   6 -14  -7    1.80    1.30
  -6  14   7    3.40    1.30
  -6  14   7    1.30    1.10
   5 -14  -7   -1.20    1.70
  -5  14   7    1.40    1.10
  -5  14   7    0.40    1.00
  -4  14   7    5.50    1.40
  -4  14   7    7.30    1.50
  -3  14   7    0.60    1.00
  -3  14   7   -0.30    1.00
  -3  14   7   -1.20    1.00
  -2  14   7   19.80    2.00
  -2  14   7   17.40    1.80
  -1  14   7   47.80    3.60
  -1  14   7   47.60    2.80
   0 -14  -7   14.80    1.80
   0  14   7   16.00    1.60
   0  14   7   17.60    3.00
  -1 -14  -7   16.90    1.70
   1  14   7   15.70    1.40
   1  14   7   18.20    2.10
  -2 -14  -7    5.10    1.30
   2  14   7    5.00    1.50
   2  14   7    5.30    0.70
  -3 -14  -7   12.10    1.90
   3  14   7   11.50    1.80
   4  14   7    5.40    1.30
  -5 -14  -7    6.40    1.30
   5  14   7    8.90    1.60
  -6 -14  -7    6.40    1.40
   6  14   7   10.90    2.00
  -7 -14  -7    1.20    1.20
   7  14   7    3.80    1.50
  -8 -14  -7   14.30    1.80
   8  14   7   12.30    2.00
  -9 -14  -7   -0.80    1.40
   9  14   7    2.20    1.70
 -10 -14  -7    0.60    1.50
  10  14   7    2.60    1.70
   6 -15  -7    4.00    1.40
  -6  15   7    7.10    1.70
  -6  15   7    4.60    1.60
   5 -15  -7    5.30    1.40
  -5  15   7    4.10    1.50
  -5  15   7    6.10    1.50
  -4  15   7    1.40    1.20
  -4  15   7    1.50    1.30
  -3  15   7    1.20    1.10
  -3  15   7    0.00    1.10
  -3  15   7    1.60    1.20
  -2  15   7    1.10    1.20
  -2  15   7   -0.60    1.10
  -2  15   7   -1.00    1.10
   1 -15  -7   26.90    2.30
  -1  15   7   26.70    2.10
  -1  15   7   27.10    2.40
   0 -15  -7    2.20    1.10
   0  15   7    3.40    1.40
   0  15   7    1.50    0.90
  -1 -15  -7    1.60    1.10
   1  15   7    0.30    0.80
   1  15   7    1.30    1.10
  -2 -15  -7    3.90    1.30
   2  15   7    1.60    1.20
   2  15   7    0.10    0.60
  -3 -15  -7   -0.50    1.00
   3  15   7    0.50    1.20
  -4 -15  -7    1.20    1.10
   4  15   7   -0.10    1.20
  -5 -15  -7    5.30    1.40
   5  15   7    5.90    1.50
  -6 -15  -7    5.30    1.40
   6  15   7    3.90    1.60
  -7 -15  -7    1.80    1.30
   7  15   7    1.40    1.50
  -8 -15  -7   24.20    2.50
   8  15   7   29.40    3.00
  -3  16   7    1.10    1.40
  -3  16   7    0.10    1.40
  -3  16   7    1.30    1.30
  -2  16   7    8.90    1.80
  -2  16   7    8.70    1.70
  -2  16   7    8.00    1.40
   1 -16  -7    9.60    1.70
  -1  16   7    9.50    1.50
  -1  16   7    9.90    1.90
   0 -16  -7    2.00    1.30
   0  16   7    1.40    1.40
   0  16   7    2.20    1.10
  -1 -16  -7   -0.20    1.20
   1  16   7    0.20    1.30
  -2 -16  -7    6.50    1.40
   2  16   7    4.10    1.60
  -3 -16  -7    2.60    1.30
   3  16   7    1.20    1.40
  -4 -16  -7    0.20    1.20
   4  16   7    2.90    1.50
  -5 -16  -7    3.80    1.30
   5  16   7    3.40    1.70
   4  10  -8   13.40    2.60
  -4 -10   8   13.40    2.10
  -4 -10   8   14.80    2.30
   3  10  -8    2.40    1.60
  -3 -10   8    4.80    1.40
  -3 -10   8    6.20    1.60
   2  10  -8    1.50    1.40
  -2 -10   8    3.30    1.30
  -2 -10   8   -0.60    1.30
   1  10  -8    4.10    1.60
  -1 -10   8    4.50    1.50
  -1 -10   8    3.30    1.50
   0  10  -8   -2.10    1.10
   0 -10   8   -0.10    1.30
   0 -10   8    1.10    1.40
  -1  10  -8    0.60    1.40
   1 -10   8    0.00    1.40
   1 -10   8    0.10    1.40
  -2  10  -8    1.40    1.30
   2 -10   8   -0.10    1.40
   2 -10   8    1.30    1.60
  -3  10  -8    2.30    1.50
   3 -10   8    1.90    1.40
   3 -10   8    0.40    1.40
  -4  10  -8   -1.20    1.30
  -4  10  -8    0.70    1.80
   4 -10   8    1.10    1.50
  -5  10  -8    2.50    1.70
  -5  10  -8    1.60    1.50
   5 -10   8    1.10    1.50
   6   9  -8    4.10    1.60
  -6  -9   8    5.60    1.60
   5   9  -8    1.90    1.50
  -5  -9   8    2.90    1.50
  -5  -9   8    0.40    1.10
   4   9  -8    5.10    1.50
  -4  -9   8    7.10    1.40
  -4  -9   8    8.30    1.40
   3   9  -8   -1.30    1.20
  -3  -9   8   -1.70    1.10
  -3  -9   8   -0.30    1.20
   2   9  -8    0.20    1.20
  -2  -9   8    0.90    1.20
  -2  -9   8    0.10    1.10
   1   9  -8    6.00    1.60
  -1  -9   8    4.30    1.20
  -1  -9   8    3.70    1.30
   0   9  -8    0.10    1.10
   0  -9   8    0.70    1.20
   0  -9   8    0.70    1.20
  -1   9  -8   -1.20    1.10
   1  -9   8    1.20    1.20
   1  -9   8    3.60    1.30
  -2   9  -8    0.00    1.20
   2  -9   8    3.30    1.30
   2  -9   8   -1.20    1.20
  -3   9  -8    1.00    1.20
   3  -9   8    0.00    2.20
   3  -9   8    1.30    1.20
  -4   9  -8    2.10    1.40
  -4   9  -8    2.20    1.60
   4  -9   8    2.10    1.50
  -5   9  -8    7.90    1.90
  -5   9  -8   10.90    1.80
   5  -9   8    7.30    1.70
  -6   9  -8   11.40    1.80
  -6   9  -8    6.50    1.80
   6  -9   8    9.60    1.90
  -7   9  -8    1.70    1.80
  -7   9  -8    1.10    1.40
   7  -9   8    0.70    1.60
  -8   9  -8    0.40    1.50
  -8   9  -8    2.40    1.80
   8  -9   8    0.70    1.70
   8   8  -8    3.30    1.50
  -8  -8   8    2.70    1.60
   7   8  -8   -1.60    1.30
  -7  -8   8    0.70    1.30
  -7  -8   8    2.40    1.10
   6   8  -8   -0.80    1.20
  -6  -8   8    0.60    1.10
  -6  -8   8   -1.20    1.00
   5   8  -8    2.90    1.40
  -5  -8   8    3.60    1.20
  -5  -8   8    1.80    1.10
   4   8  -8   13.10    1.80
  -4  -8   8   10.60    1.50
  -4  -8   8   12.90    1.40
   3   8  -8   15.70    2.00
  -3  -8   8   12.40    1.50
   2   8  -8    8.20    1.60
  -2  -8   8    5.60    1.20
  -2  -8   8    6.00    1.20
   1   8  -8    4.10    1.30
  -1  -8   8    0.30    1.00
  -1  -8   8    2.10    1.00
   0   8  -8   -1.10    1.00
   0  -8   8    0.50    0.90
   0  -8   8    0.70    0.90
  -1   8  -8    0.50    0.90
   1  -8   8    0.20    1.10
   1  -8   8    0.10    0.90
  -2   8  -8    2.00    1.00
   2  -8   8    1.20    1.20
   2  -8   8    0.90    1.00
  -3   8  -8    0.80    1.00
   3  -8   8   -0.20    1.10
   3  -8   8    1.00    1.10
  -4   8  -8    0.10    1.30
  -4   8  -8   -1.00    1.00
   4  -8   8    1.00    1.20
  -5   8  -8    1.40    1.40
  -5   8  -8    0.30    1.10
   5  -8   8    0.00    1.20
  -6   8  -8    1.30    1.20
   6  -8   8    1.80    1.40
  -7   8  -8    3.50    1.60
  -7   8  -8    5.40    1.30
   7  -8   8    5.80    1.60
  -8   8  -8    5.00    1.50
  -8   8  -8    6.70    1.80
   8  -8   8    3.60    1.70
  -9   8  -8    1.10    1.70
  -9   8  -8    1.70    1.60
   9  -8   8   -0.20    1.50
   9   7  -8   -1.50    1.20
  -9  -7   8    1.00    1.20
  -9  -7   8   -2.90    1.30
   8   7  -8    4.40    1.40
  -8  -7   8    3.70    1.10
  -8  -7   8    6.20    1.40
   7   7  -8    6.30    1.50
  -7  -7   8    5.30    1.30
  -7  -7   8    5.40    1.20
   6   7  -8    5.90    1.50
  -6  -7   8    7.50    1.40
  -6  -7   8    5.80    1.00
   5   7  -8    3.40    1.30
  -5  -7   8    3.70    1.40
  -5  -7   8    3.80    1.00
   4   7  -8    4.40    1.10
  -4  -7   8    3.90    1.10
  -4  -7   8    3.80    1.00
   3   7  -8    9.70    1.60
  -3  -7   8   11.20    1.40
  -3  -7   8   11.70    1.30
  -2  -7   8   24.40    1.90
  -2  -7   8   21.70    1.80
   1   7  -8    1.50    1.70
  -1  -7   8    1.80    1.00
  -1  -7   8    1.50    0.90
   0   7  -8   43.60    3.00
   0  -7   8   43.00    2.60
   0  -7   8   41.40    2.60
  -1   7  -8    3.40    1.10
   1  -7   8    4.80    1.10
   1  -7   8    3.00    1.00
  -2   7  -8   12.90    1.70
   2  -7   8   12.40    1.60
   2  -7   8   13.00    1.50
  -3   7  -8   12.80    1.80
   3  -7   8   12.40    1.50
   3  -7   8   13.60    1.60
  -4   7  -8   23.10    2.10
  -4   7  -8   21.20    2.10
   4  -7   8   21.80    2.30
  -5   7  -8   12.60    1.70
  -5   7  -8   10.90    1.90
   5  -7   8   11.10    1.70
  -6   7  -8    1.50    1.30
   6  -7   8    3.80    1.50
  -7   7  -8    2.40    1.40
  -7   7  -8    0.60    1.20
   7  -7   8    3.10    1.40
  -8   7  -8    3.30    1.40
   8  -7   8    2.70    1.50
  -9   7  -8    1.70    1.40
  -9   7  -8   -1.40    1.20
   9  -7   8    0.00    1.40
 -10   7  -8    0.60    1.40
 -10   7  -8   -0.20    1.70
  10  -7   8    2.00    1.60
 -11   7  -8    8.70    1.80
 -11   7  -8    8.30    1.80
  11  -7   8    3.80    1.90
  10   6  -8    0.00    1.30
 -10  -6   8    0.20    1.40
 -10  -6   8   -0.10    1.10
   9   6  -8    2.40    1.20
  -9  -6   8   -0.40    1.20
  -9  -6   8    2.10    1.10
   8   6  -8   11.90    1.70
  -8  -6   8   10.10    1.30
  -8  -6   8   20.10    2.00
  -7  -6   8    0.50    0.80
  -7  -6   8    0.40    1.10
   6   6  -8    6.10    1.30
  -6  -6   8    5.60    1.20
  -6  -6   8    5.60    1.00
   5   6  -8    6.60    1.40
  -5  -6   8    3.80    1.00
  -5  -6   8    3.40    0.90
   4   6  -8    3.80    1.10
  -4  -6   8    4.50    1.10
  -4  -6   8    2.60    0.90
   3   6  -8    0.80    1.00
  -3  -6   8    1.60    0.90
  -3  -6   8    2.10    0.80
   2   6  -8   -0.10    0.90
  -2  -6   8    0.00    0.80
  -2  -6   8   -0.40    0.70
   1   6  -8   15.80    1.70
  -1  -6   8   14.80    1.50
  -1  -6   8   14.60    1.50
   0   6  -8   60.59    3.40
   0  -6   8   62.09    3.20
   0  -6   8   62.89    3.30
  -1   6  -8   24.00    1.90
   1  -6   8   26.10    1.90
   1  -6   8   23.80    2.00
  -2   6  -8   44.00    2.60
   2  -6   8   41.40    2.70
   2  -6   8   40.90    2.40
  -3   6  -8    5.20    1.10
   3  -6   8    3.40    1.10
   3  -6   8    4.30    0.90
  -4   6  -8    0.90    0.90
  -4   6  -8    0.50    0.90
   4  -6   8    0.10    0.90
  -5   6  -8    2.00    0.90
  -5   6  -8   -0.10    0.90
   5  -6   8    0.90    1.00
  -6   6  -8    3.70    1.10
  -6   6  -8    2.50    1.20
   6  -6   8    4.50    1.30
  -7   6  -8    0.40    1.00
  -7   6  -8    2.00    1.20
  -8   6  -8    4.10    1.20
  -8   6  -8    3.80    1.50
   8  -6   8    5.70    1.60
  -9   6  -8    5.30    1.50
  -9   6  -8    6.00    1.40
   9  -6   8    4.80    1.60
 -10   6  -8    2.50    1.30
 -10   6  -8    0.70    1.40
  10  -6   8    1.30    1.50
 -11   6  -8    8.70    1.90
  11  -6   8   12.00    2.20
 -12   6  -8   -1.10    1.40
 -12   6  -8    0.10    1.50
  12  -6   8   -0.50    1.70
  11   5  -8    5.30    2.60
 -11  -5   8    3.80    1.20
 -11  -5   8    3.20    1.50
  10   5  -8   -0.20    1.10
 -10  -5   8    0.90    1.10
 -10  -5   8   -0.80    1.20
   9   5  -8   -0.50    1.00
  -9  -5   8   -0.20    1.10
  -9  -5   8   -0.60    0.90
   8   5  -8   25.90    2.10
  -8  -5   8   18.50    1.80
   7   5  -8   16.10    1.80
  -7  -5   8   20.00    1.90
   6   5  -8    1.40    0.80
  -6  -5   8    3.40    1.00
  -6  -5   8    1.60    0.80
   5   5  -8   13.60    1.60
  -5  -5   8   12.40    1.30
  -5  -5   8   10.70    1.30
   4   5  -8    0.60    0.80
  -4  -5   8    1.70    0.80
  -4  -5   8    2.20    0.80
   3   5  -8   22.60    1.90
  -3  -5   8   20.90    1.60
  -3  -5   8   23.20    1.70
   2   5  -8   18.40    1.70
  -2  -5   8   20.70    1.60
  -2  -5   8   20.00    1.60
   1   5  -8   28.00    2.10
  -1  -5   8   30.30    1.90
  -1  -5   8   32.70    1.90
   0   5  -8   25.80    1.90
   0  -5   8   24.40    1.80
   0  -5   8   22.90    1.60
  -1   5  -8   43.20    2.40
   1  -5   8   40.60    2.20
   1  -5   8   35.60    2.30
  -2   5  -8    0.80    0.70
   2  -5   8    0.80    0.80
   2  -5   8    1.60    0.80
  -3   5  -8    0.60    0.80
   3  -5   8    0.40    0.70
   3  -5   8   -0.80    0.80
  -4   5  -8    1.00    0.80
  -4   5  -8    0.20    0.80
   4  -5   8    0.70    1.00
  -5   5  -8    1.50    0.90
  -5   5  -8    3.70    0.90
   5  -5   8    1.60    0.80
  -6   5  -8   -0.20    0.90
  -6   5  -8   -0.20    0.80
   6  -5   8   -0.60    1.00
  -7   5  -8    1.90    1.00
  -7   5  -8    3.50    1.10
   7  -5   8    2.40    1.20
  -8   5  -8   25.80    2.10
  -8   5  -8   25.90    2.20
  -9   5  -8    5.10    1.30
  -9   5  -8    2.60    1.30
   9  -5   8    4.90    1.50
 -10   5  -8    9.00    1.40
 -10   5  -8    9.10    1.50
  10  -5   8    4.90    1.60
 -11   5  -8    2.50    1.20
 -11   5  -8    5.30    1.50
  11  -5   8    2.60    1.50
 -12   5  -8    4.90    1.40
 -12   5  -8    3.60    1.70
  12  -5   8    5.40    1.70
 -13   5  -8    1.70    1.40
 -13   5  -8    2.60    1.60
  11   4  -8    1.80    1.30
 -11  -4   8    4.00    1.30
 -11  -4   8    0.20    1.10
  10   4  -8    0.30    1.10
 -10  -4   8    0.90    1.00
 -10  -4   8    0.40    1.10
   9   4  -8    7.50    1.30
  -9  -4   8    6.00    1.20
  -9  -4   8    5.40    1.50
   8   4  -8    0.40    0.90
  -8  -4   8    1.10    0.80
  -8  -4   8    1.20    1.00
   7   4  -8   18.60    1.60
  -7  -4   8   14.40    1.50
  -7  -4   8   16.90    1.70
   6   4  -8    3.50    1.10
  -6  -4   8    6.50    1.10
  -6  -4   8    5.50    1.00
   5   4  -8   14.50    1.50
  -5  -4   8   15.50    1.30
  -5  -4   8   14.60    1.50
   4   4  -8   23.50    1.80
  -4  -4   8   19.50    1.60
  -4  -4   8   22.60    1.60
   3   4  -8    8.80    1.30
  -3  -4   8    9.30    1.10
  -3  -4   8    7.60    1.00
   2   4  -8   49.70    2.70
  -2  -4   8   45.70    2.50
   1   4  -8    4.40    1.00
  -1  -4   8    6.00    0.90
  -1  -4   8    6.60    1.00
   0   4  -8  105.79    4.90
   0  -4   8  106.29    4.80
   0  -4   8  107.19    4.70
  -1   4  -8    8.50    1.10
   1  -4   8    8.30    1.10
   1  -4   8    7.10    0.90
  -2   4  -8   82.09    3.90
   2  -4   8   76.39    3.80
   2  -4   8   83.99    3.70
  -3   4  -8    8.90    1.30
   3  -4   8   12.80    1.40
   3  -4   8    9.80    1.10
  -4   4  -8   10.20    1.30
  -4   4  -8   11.00    1.20
   4  -4   8    9.50    1.30
  -5   4  -8   35.50    2.20
   5  -4   8   35.70    2.40
  -6   4  -8   28.70    1.90
  -6   4  -8   25.90    2.00
   6  -4   8   25.90    2.10
  -7   4  -8   19.20    1.70
  -7   4  -8   20.20    1.80
   7  -4   8   20.00    2.00
  -8   4  -8   23.10    1.90
  -8   4  -8   22.90    1.90
   8  -4   8   21.70    2.20
  -9   4  -8   10.20    1.40
  -9   4  -8   10.00    1.30
 -10   4  -8    1.90    1.20
 -10   4  -8    5.00    1.20
  10  -4   8    4.60    1.50
 -11   4  -8   -0.20    1.20
 -11   4  -8   -0.60    1.00
  11  -4   8    2.00    1.30
 -12   4  -8   -0.20    1.10
 -12   4  -8    0.20    1.30
  12  -4   8    0.90    1.30
 -13   4  -8   -1.30    1.40
 -13   4  -8    0.40    1.30
  13  -4   8   -0.50    1.60
  12   3  -8    1.70    1.20
 -12  -3   8    0.40    1.30
 -12  -3   8    1.30    1.30
  11   3  -8   -1.30    1.10
 -11  -3   8    0.60    1.20
 -11  -3   8    1.70    1.20
  10   3  -8    5.60    1.20
 -10  -3   8    5.50    1.20
   9   3  -8    0.40    0.90
  -9  -3   8    2.00    1.00
  -9  -3   8    2.40    1.10
   8   3  -8   28.90    2.10
  -8  -3   8   29.80    2.10
  -8  -3   8   33.00    2.20
   7   3  -8   40.10    2.40
  -7  -3   8   43.40    2.40
  -7  -3   8   34.50    2.30
   6   3  -8   17.20    1.50
  -6  -3   8   14.10    1.40
  -6  -3   8   17.10    1.50
   5   3  -8   33.80    2.10
  -5  -3   8   34.90    2.10
  -5  -3   8   33.50    2.00
   4   3  -8   76.39    3.70
  -4  -3   8   73.29    3.60
  -4  -3   8   79.49    3.60
   3   3  -8   14.70    1.30
  -3  -3   8   13.00    1.20
  -3  -3   8   10.80    1.20
   2   3  -8    1.00    0.60
   2   3  -8    0.80    0.70
  -2  -3   8    0.60    0.50
  -2  -3   8    0.00    0.50
   1   3  -8    5.20    0.90
   1   3  -8    7.40    0.80
  -1  -3   8    6.60    0.90
  -1  -3   8    5.60    0.70
   0   3  -8    0.30    0.60
   0   3  -8   -0.10    0.50
   0  -3   8    0.30    0.50
   0  -3   8    0.30    0.60
  -1   3  -8   -0.20    0.50
  -1   3  -8   -0.10    0.60
   1  -3   8   -0.20    0.50
   1  -3   8    0.20    0.60
  -2   3  -8   17.00    1.30
  -2   3  -8   17.10    1.40
   2  -3   8   19.40    1.20
   2  -3   8   15.40    1.40
  -3   3  -8   33.90    1.80
  -3   3  -8   30.90    2.00
   3  -3   8   31.70    2.00
  -4   3  -8    1.50    0.70
  -4   3  -8    0.70    0.60
  -4   3  -8    0.20    0.70
   4  -3   8    0.00    0.70
  -5   3  -8    3.40    0.70
  -5   3  -8    3.60    0.90
  -5   3  -8    2.60    0.70
   5  -3   8    2.30    0.90
  -6   3  -8    7.50    1.10
  -6   3  -8    7.70    1.20
   6  -3   8    8.40    1.30
  -7   3  -8   12.60    1.50
  -7   3  -8   13.70    1.40
   7  -3   8   12.80    1.50
  -8   3  -8   16.70    1.60
  -8   3  -8   14.80    1.50
   8  -3   8   14.80    1.80
  -9   3  -8   10.60    1.40
  -9   3  -8   11.10    1.40
   9  -3   8   10.40    1.60
 -10   3  -8   10.30    1.40
 -10   3  -8   11.50    1.50
  10  -3   8   10.40    2.60
 -11   3  -8   -0.10    1.00
 -11   3  -8    1.00    1.10
  11  -3   8   -1.00    1.00
 -12   3  -8   11.30    1.50
 -12   3  -8   11.10    1.70
  12  -3   8   13.30    2.20
 -13   3  -8    6.30    1.40
 -13   3  -8    2.40    1.30
  13  -3   8    0.00    1.60
 -14   3  -8    0.10    1.20
 -14   3  -8    3.20    1.60
  14  -3   8    4.80    1.80
  12   2  -8   -0.10    1.10
 -12  -2   8    0.40    1.00
  11   2  -8   -0.70    1.00
 -11  -2   8    1.60    1.10
 -11  -2   8    1.00    1.10
  10   2  -8    2.30    1.00
 -10  -2   8    1.50    1.20
 -10  -2   8    2.40    1.30
   9   2  -8   19.60    1.70
  -9  -2   8   19.90    1.90
  -9  -2   8   20.90    1.80
   8   2  -8    3.30    1.00
  -8  -2   8    6.20    1.10
  -8  -2   8    4.50    1.00
   7   2  -8   74.09    3.60
  -7  -2   8   77.19    3.70
  -7  -2   8   72.19    3.70
   6   2  -8   87.89    4.10
  -6  -2   8   85.99    4.10
  -6  -2   8   90.79    4.10
   5   2  -8    6.60    1.00
  -5  -2   8    6.40    1.00
  -5  -2   8    5.90    0.90
   4   2  -8    7.70    1.10
  -4  -2   8    6.60    0.90
  -4  -2   8    7.20    0.90
   3   2  -8   41.90    2.20
   3   2  -8   37.00    2.00
  -3  -2   8   35.70    2.40
  -3  -2   8   40.40    2.00
   2   2  -8   12.70    1.20
  -2  -2   8   13.20    1.80
  -2  -2   8   13.10    1.00
   1   2  -8    4.60    0.60
   1   2  -8    5.80    0.90
  -1  -2   8    4.10    0.80
  -1  -2   8    3.40    0.60
   0   2  -8   31.20    1.60
   0   2  -8   30.00    1.80
   0  -2   8   31.80    1.60
   0  -2   8   31.30    2.30
  -1   2  -8   38.50    2.10
  -1   2  -8   36.20    1.80
   1  -2   8   37.90    1.90
   1  -2   8   39.80    2.40
  -2   2  -8   49.00    2.50
  -2   2  -8   42.30    2.10
   2  -2   8   44.70    2.10
  -3   2  -8    1.70    0.50
  -3   2  -8    1.90    0.70
  -3   2  -8    3.00    0.50
   3  -2   8   -0.10    0.60
  -4   2  -8    1.00    0.50
  -4   2  -8    0.30    0.60
  -4   2  -8    1.00    0.50
   4  -2   8    0.00    0.70
  -5   2  -8   49.20    2.50
  -5   2  -8   51.29    2.40
  -5   2  -8   48.80    2.60
   5  -2   8   47.00    2.70
  -6   2  -8   43.20    2.30
  -6   2  -8   46.20    2.60
  -6   2  -8   49.10    2.40
   6  -2   8   47.80    2.70
  -7   2  -8   36.00    2.00
  -7   2  -8   37.30    2.20
   7  -2   8   35.30    2.40
  -8   2  -8   15.00    1.40
  -8   2  -8   14.40    1.40
   8  -2   8   12.90    1.60
  -9   2  -8    4.70    1.00
  -9   2  -8    4.40    1.00
   9  -2   8    4.90    1.20
 -10   2  -8   35.10    2.20
 -10   2  -8   29.70    2.10
  10  -2   8   32.80    2.60
 -11   2  -8    0.30    0.90
 -11   2  -8    0.50    0.90
  11  -2   8    0.80    1.10
 -12   2  -8    6.70    1.40
 -12   2  -8    8.20    1.20
  12  -2   8    5.90    1.70
 -13   2  -8   -1.10    1.10
 -13   2  -8    0.00    1.40
  13  -2   8   -1.10    1.30
 -14   2  -8    1.50    1.50
 -14   2  -8    2.60    1.30
  14  -2   8    2.60    1.60
 -13  -1   8    3.00    1.40
 -13  -1   8    3.10    1.50
  12   1  -8   13.90    1.50
 -12  -1   8   11.20    1.60
 -12  -1   8   15.80    2.00
  11   1  -8    4.10    1.00
 -11  -1   8    4.30    1.20
 -11  -1   8    3.50    1.20
  10   1  -8    2.30    0.80
 -10  -1   8    2.50    1.10
 -10  -1   8    3.10    1.00
   9   1  -8    2.70    1.00
  -9  -1   8    3.40    1.00
  -9  -1   8    2.30    1.00
   8   1  -8    8.60    1.80
  -8  -1   8    6.30    1.20
  -8  -1   8    7.40    1.10
   7   1  -8   33.70    2.70
  -7  -1   8   25.40    1.90
  -7  -1   8   28.70    1.90
   6   1  -8   15.30    1.60
  -6  -1   8   11.70    1.40
  -6  -1   8   12.80    1.20
   5   1  -8    0.20    0.60
  -5  -1   8    1.40    0.50
  -5  -1   8    2.60    0.70
   4   1  -8    1.40    0.60
   4   1  -8    2.10    0.70
  -4  -1   8    1.50    0.60
  -4  -1   8    2.00    0.60
   3   1  -8   14.00    1.20
   3   1  -8   15.50    1.20
  -3  -1   8   13.70    1.00
  -3  -1   8   13.40    1.40
   2   1  -8   13.30    1.20
   2   1  -8   12.40    0.90
  -2  -1   8   14.70    1.20
  -2  -1   8   12.20    0.90
   1   1  -8    9.30    1.10
   1   1  -8    8.20    0.70
  -1  -1   8    8.10    0.70
  -1  -1   8   10.20    1.00
   0   1  -8    0.10    0.50
   0   1  -8   -0.10    0.30
   0  -1   8   -0.40    0.40
   0  -1   8    0.20    0.30
  -1   1  -8    2.90    0.40
  -1   1  -8    2.40    1.20
   1  -1   8    2.00    0.40
   1  -1   8    2.50    0.70
  -2   1  -8    3.00    0.50
   2  -1   8    3.20    0.50
   2  -1   8    4.00    0.70
  -3   1  -8   32.80    1.90
  -3   1  -8   33.00    1.60
  -3   1  -8   31.40    1.60
  -4   1  -8   49.30    2.30
  -4   1  -8   52.89    2.60
  -4   1  -8   52.09    2.30
   4  -1   8   49.10    2.60
  -5   1  -8    7.20    0.90
  -5   1  -8    7.80    0.90
  -5   1  -8    8.30    0.80
   5  -1   8    8.60    1.20
  -6   1  -8   31.50    1.90
  -6   1  -8   28.30    1.60
   6  -1   8   26.70    1.90
  -7   1  -8   69.79    3.20
  -7   1  -8   64.49    3.10
  -7   1  -8   67.89    3.40
   7  -1   8   69.09    3.50
  -8   1  -8   52.19    2.60
  -8   1  -8   53.09    2.80
   8  -1   8   50.29    3.00
  -9   1  -8   18.50    1.60
  -9   1  -8   17.70    1.50
   9  -1   8   24.40    2.00
 -10   1  -8   36.90    2.30
 -10   1  -8   38.60    2.40
  10  -1   8   39.70    2.70
 -11   1  -8   17.30    1.70
 -11   1  -8   18.10    1.70
  11  -1   8   18.50    2.10
 -12   1  -8    2.10    1.10
 -12   1  -8    3.90    1.10
  12  -1   8    5.10    1.50
 -13   1  -8    4.10    1.30
 -13   1  -8    5.20    1.20
  13  -1   8    2.80    1.40
 -14   1  -8    3.80    1.30
 -14   1  -8    2.80    1.20
  14  -1   8    2.70    1.60
 -15   1  -8    4.50    1.50
 -15   1  -8    4.20    1.40
  15  -1   8    5.20    2.00
 -13   0   8    2.40    1.30
 -13   0   8    0.00    1.30
 -12   0   8    4.00    1.30
 -12   0   8    3.90    1.30
  11   0  -8    5.60    0.90
 -11   0   8   10.10    1.60
 -11   0   8    8.00    2.00
  10   0  -8   10.90    1.10
 -10   0   8    9.30    1.20
 -10   0   8   11.20    1.50
 -10   0   8   10.00    1.50
   9   0  -8    1.30    0.70
  -9   0   8    1.00    0.90
  -9   0   8    1.40    0.90
  -9   0   8    1.50    0.80
   8   0  -8    9.60    1.10
  -8   0   8   10.70    1.40
  -8   0   8    9.10    1.10
  -8   0   8    8.50    1.20
   7   0  -8    0.70    0.60
  -7   0   8    3.00    0.80
  -7   0   8    2.60    0.80
  -7   0   8    1.60    0.80
   6   0  -8  122.59    4.90
  -6   0   8  106.79    5.10
  -6   0   8  117.39    5.10
  -6   0   8   96.99    5.10
   5   0  -8   91.89    4.30
   5   0  -8  102.09    4.40
  -5   0   8   98.19    4.50
  -5   0   8   99.89    4.30
  -5   0   8   91.79    4.60
   4   0  -8   20.60    1.40
  -4   0   8   22.30    1.50
  -4   0   8   21.40    1.30
   3   0  -8  126.89    5.30
   3   0  -8  128.09    5.50
  -3   0   8  125.79    5.30
  -3   0   8  130.79    5.60
   2   0  -8  144.09    6.00
   2   0  -8  140.79    5.80
  -2   0   8  138.09    5.80
  -2   0   8  140.09    6.00
   1   0  -8  102.89    4.20
   1   0  -8  104.39    4.50
  -1   0   8  101.59    4.20
  -1   0   8  100.09    4.50
   0   0  -8   44.90    1.90
   0   0  -8   43.10    2.30
   0   0   8   41.40    1.90
   0   0   8   43.00    2.20
  -1   0  -8   27.40    1.30
  -1   0  -8   28.50    1.70
   1   0   8   26.10    1.60
  -2   0  -8  216.58    8.80
  -2   0  -8  202.68    8.40
   2   0   8  216.28    8.70
  -3   0  -8    4.50    0.50
  -3   0  -8    4.70    0.50
  -3   0  -8    4.30    0.70
   3   0   8    5.90    0.80
  -4   0  -8    2.20    0.60
  -4   0  -8    2.40    0.40
  -4   0  -8    2.30    0.40
  -5   0  -8   24.40    1.30
  -5   0  -8   25.20    1.30
   5   0   8   23.90    1.60
  -6   0  -8    5.10    0.90
  -6   0  -8    4.50    0.60
  -6   0  -8    5.40    0.70
   6   0   8    3.60    0.90
  -7   0  -8    6.40    0.80
  -7   0  -8    6.90    0.90
  -7   0  -8    6.30    1.00
   7   0   8    7.20    1.20
  -8   0  -8    0.80    0.70
  -8   0  -8    2.00    0.60
  -8   0  -8    0.90    0.70
   8   0   8    0.80    0.80
  -9   0  -8    3.20    0.90
   9   0   8    3.00    1.00
 -10   0  -8    6.40    1.10
 -10   0  -8    5.10    1.00
  10   0   8    5.20    1.30
 -11   0  -8    6.30    1.10
 -11   0  -8    7.50    1.10
  11   0   8    8.60    1.60
 -12   0  -8   26.60    2.00
 -12   0  -8   23.10    1.90
  12   0   8   24.10    3.00
 -13   0  -8   17.60    1.90
 -13   0  -8   14.10    1.60
  13   0   8   15.50    2.10
 -14   0  -8    1.80    1.30
 -14   0  -8   -0.40    1.10
  14   0   8    0.70    1.40
 -15   0  -8    0.80    1.40
 -15   0  -8    4.00    1.30
  15   0   8    2.10    1.70
 -13   1   8    2.20    1.30
 -13   1   8   -1.10    1.30
 -12   1   8   -0.80    1.20
 -12   1   8    1.40    1.10
  11  -1  -8    3.00    0.60
 -11   1   8    4.50    1.40
 -11   1   8    4.10    1.30
  10  -1  -8    0.40    0.60
 -10   1   8    0.20    1.00
 -10   1   8    1.30    0.70
 -10   1   8    2.50    0.90
   9  -1  -8    2.80    0.70
  -9   1   8    2.90    0.90
  -9   1   8    2.10    0.80
  -9   1   8    0.80    0.90
   8  -1  -8   11.90    1.10
  -8   1   8   16.70    1.40
  -8   1   8   17.00    1.90
  -8   1   8   14.30    1.60
   7  -1  -8   18.00    1.30
  -7   1   8   16.90    1.30
  -7   1   8   19.00    1.60
  -7   1   8   17.40    1.40
   6  -1  -8   24.30    1.50
  -6   1   8   23.50    1.40
  -6   1   8   23.10    1.50
  -6   1   8   23.10    1.80
   5  -1  -8    6.10    0.80
   5  -1  -8    6.40    0.90
  -5   1   8    6.90    0.80
  -5   1   8    4.80    0.80
  -5   1   8    7.00    1.00
   4  -1  -8   16.10    1.20
   4  -1  -8   17.10    1.10
  -4   1   8   16.90    1.10
  -4   1   8   17.40    1.10
  -4   1   8   16.30    1.40
   3  -1  -8   34.60    1.70
   3  -1  -8   33.10    1.80
  -3   1   8   35.30    1.60
  -3   1   8   27.70    1.70
  -3   1   8   37.40    2.00
   2  -1  -8   79.79    3.40
   2  -1  -8   83.99    3.70
  -2   1   8   87.29    3.80
  -2   1   8   81.99    3.40
  -2   1   8   75.49    3.60
   1  -1  -8   71.19    2.90
   1  -1  -8   70.49    3.20
  -1   1   8   66.69    3.00
  -1   1   8   66.79    3.20
  -1   1   8   73.19    3.20
   0  -1  -8   56.09    2.60
   0  -1  -8   54.29    2.20
   0  -1  -8   47.70    2.60
   0   1   8   49.99    2.50
   0   1   8   54.39    2.50
   0   1   8   49.60    2.10
  -1  -1  -8  143.79    5.90
  -1  -1  -8  133.89    5.90
   1   1   8  145.09    5.80
   1   1   8  128.39    5.80
  -2  -1  -8   31.70    1.80
  -2  -1  -8   29.40    2.00
   2   1   8   29.60    2.00
   2   1   8   33.60    1.70
  -3  -1  -8   44.00    1.90
  -3  -1  -8   45.50    2.30
  -3  -1  -8   43.60    1.90
   3   1   8   47.20    2.30
  -4  -1  -8   16.40    1.20
  -4  -1  -8   14.00    0.80
   4   1   8   14.80    1.20
  -5  -1  -8   17.20    1.00
  -5  -1  -8   16.80    1.30
  -5  -1  -8   17.60    1.00
   5   1   8   18.50    2.20
  -6  -1  -8    3.10    0.50
  -6  -1  -8    4.10    0.60
  -7  -1  -8   72.69    3.50
  -7  -1  -8   70.09    3.20
   7   1   8   74.09    3.60
  -8  -1  -8    9.60    1.00
  -8  -1  -8    9.10    1.20
   8   1   8    9.60    1.30
   8   1   8    9.20    1.10
  -9  -1  -8    1.20    0.80
  -9  -1  -8   -0.20    0.60
   9   1   8    0.10    0.80
 -10  -1  -8   13.10    1.30
 -10  -1  -8   12.20    1.40
  10   1   8   12.00    1.60
 -11  -1  -8    3.10    0.90
 -11  -1  -8    1.90    0.90
  11   1   8    3.50    1.30
 -12  -1  -8   -1.50    0.90
 -12  -1  -8   -1.30    0.90
  12   1   8   -0.30    1.20
 -13  -1  -8    1.00    1.00
 -13  -1  -8    0.80    1.10
  13   1   8   -0.50    1.30
 -14  -1  -8    1.30    1.10
 -14  -1  -8    1.40    1.30
  14   1   8    1.60    1.50
 -15  -1  -8    2.40    1.30
 -15  -1  -8    1.80    1.50
  15   1   8    2.50    1.60
 -13   2   8   23.20    2.60
 -13   2   8   21.90    2.20
 -12   2   8    5.70    1.20
 -12   2   8    9.30    1.80
 -11   2   8   41.20    2.60
 -10   2   8   27.10    2.00
 -10   2   8   27.70    2.40
   9  -2  -8    5.20    0.70
  -9   2   8    5.80    1.00
  -9   2   8    6.20    1.20
  -9   2   8    6.20    0.80
   8  -2  -8   51.19    2.40
  -8   2   8   48.30    2.40
  -8   2   8   51.99    2.70
  -8   2   8   51.49    3.00
   7  -2  -8    9.20    0.90
  -7   2   8    9.10    1.30
  -7   2   8   10.20    1.00
  -7   2   8    8.90    0.90
   6  -2  -8    4.40    0.70
  -6   2   8    4.40    0.70
  -6   2   8    3.70    0.60
  -6   2   8    4.20    0.90
   5  -2  -8   18.50    1.20
   5  -2  -8   19.40    1.30
  -5   2   8   18.80    1.50
  -5   2   8   17.30    1.20
   4  -2  -8   29.30    1.60
   4  -2  -8   29.30    1.60
  -4   2   8   29.60    1.60
  -4   2   8   27.70    1.70
  -4   2   8   32.50    1.90
   3  -2  -8    1.70    0.50
   3  -2  -8    2.60    0.50
  -3   2   8    3.70    0.60
  -3   2   8    2.70    0.70
  -3   2   8    4.40    0.50
   2  -2  -8    7.90    0.60
   2  -2  -8    8.50    0.90
  -2   2   8    7.60    0.60
  -2   2   8    8.20    0.70
  -2   2   8    8.40    0.90
   1  -2  -8   25.30    1.10
   1  -2  -8   25.10    1.50
   1  -2  -8   26.20    1.60
  -1   2   8   22.50    1.40
  -1   2   8   26.70    1.50
  -1   2   8   24.00    1.10
   0  -2  -8    2.70    0.60
   0  -2  -8    2.70    0.60
   0   2   8    3.60    0.60
   0   2   8    3.30    0.60
  -1  -2  -8    0.90    0.50
  -1  -2  -8    0.20    0.40
   1   2   8    0.40    0.40
   1   2   8    0.40    0.40
  -2  -2  -8    7.90    0.80
   2   2   8    8.20    0.80
   2   2   8    8.10    0.70
  -3  -2  -8    0.90    0.50
  -3  -2  -8    0.80    0.40
   3   2   8    0.90    0.50
   3   2   8    1.30    0.50
  -4  -2  -8    4.20    0.40
  -4  -2  -8    3.80    0.40
  -4  -2  -8    4.30    0.70
   4   2   8    4.20    0.70
  -5  -2  -8    3.90    0.70
  -5  -2  -8    4.10    0.50
   5   2   8    3.90    0.80
  -6  -2  -8   16.60    1.30
  -6  -2  -8   15.00    0.90
   6   2   8   14.60    2.00
   6   2   8   12.80    1.00
  -7  -2  -8    3.20    0.60
  -7  -2  -8    3.00    0.70
   7   2   8    3.00    0.70
   7   2   8    2.90    0.60
  -8  -2  -8  110.69    4.90
  -8  -2  -8  108.69    4.70
   8   2   8  102.29    4.70
   8   2   8  110.99    5.00
  -9  -2  -8   32.10    1.90
  -9  -2  -8   31.30    2.00
   9   2   8   31.10    2.20
 -10  -2  -8    9.50    1.20
 -10  -2  -8    9.10    1.20
  10   2   8    9.30    1.40
 -11  -2  -8   16.60    1.50
 -11  -2  -8   15.50    1.60
  11   2   8   17.90    2.00
 -12  -2  -8    4.30    1.00
 -12  -2  -8    3.10    1.00
  12   2   8    3.80    1.30
 -13  -2  -8    7.50    1.40
 -13  -2  -8    5.10    1.20
  13   2   8    6.50    1.40
 -14  -2  -8    7.70    1.40
  14   2   8    9.10    1.70
 -15  -2  -8    3.60    1.40
 -15  -2  -8    2.20    1.30
  15   2   8    6.00    1.80
 -13   3   8   -0.80    1.00
 -13   3   8   -0.60    1.30
 -12   3   8    2.30    1.00
 -12   3   8    0.80    1.20
 -11   3   8   -0.50    1.20
 -11   3   8    0.40    0.80
 -10   3   8   16.80    1.60
 -10   3   8   18.20    2.00
   9  -3  -8   14.60    1.00
  -9   3   8   17.30    1.90
  -9   3   8   14.70    1.10
  -9   3   8   16.50    1.50
   8  -3  -8    0.60    0.40
  -8   3   8    1.00    0.50
  -8   3   8    0.10    0.50
  -8   3   8    0.70    0.80
   7  -3  -8    3.80    0.60
  -7   3   8    4.00    1.10
  -7   3   8    3.70    0.60
  -7   3   8    5.00    0.90
   6  -3  -8   57.99    2.70
  -6   3   8   54.19    2.60
  -6   3   8   60.09    3.20
  -6   3   8   58.89    2.80
   5  -3  -8  245.58    9.70
   5  -3  -8  223.28    9.70
  -5   3   8  238.78    9.70
  -5   3   8  228.08    9.70
  -5   3   8  255.27   10.10
   4  -3  -8  404.76   15.80
   4  -3  -8  378.36   15.70
  -4   3   8  379.86   15.80
  -4   3   8  403.26   15.80
  -4   3   8  405.66   16.10
   3  -3  -8   60.29    2.80
   3  -3  -8   60.49    2.60
  -3   3   8   60.99    2.60
  -3   3   8   55.49    2.90
   2  -3  -8   23.20    1.10
   2  -3  -8   21.90    1.30
  -2   3   8   21.60    1.30
  -2   3   8   22.30    1.40
  -2   3   8   22.70    1.10
   1  -3  -8   21.80    1.40
   1  -3  -8   22.80    1.30
  -1   3   8   20.10    1.30
  -1   3   8   21.10    1.00
  -1   3   8   20.40    1.20
   0  -3  -8   29.70    1.70
   0  -3  -8   31.40    1.70
   0   3   8   32.70    1.70
   0   3   8   30.60    1.60
  -1  -3  -8    0.90    0.40
  -1  -3  -8    0.50    0.50
   1   3   8    1.40    0.40
   1   3   8    1.60    0.50
  -2  -3  -8   35.50    1.90
  -2  -3  -8   34.00    1.80
   2   3   8   31.80    1.70
   2   3   8   34.30    1.80
  -3  -3  -8   33.30    1.90
  -3  -3  -8   39.30    2.00
   3   3   8   35.10    1.90
   3   3   8   39.90    1.90
  -4  -3  -8  138.99    6.20
  -4  -3  -8  151.08    6.30
  -4  -3  -8  145.99    5.80
   4   3   8  156.68    6.20
   4   3   8  142.29    5.90
  -5  -3  -8   64.09    2.70
  -5  -3  -8   68.69    3.10
  -5  -3  -8   53.09    3.10
   5   3   8   63.79    2.70
   5   3   8   64.39    2.90
  -6  -3  -8   59.69    2.60
  -6  -3  -8   60.09    3.00
   6   3   8   59.29    2.80
   6   3   8   54.59    2.60
  -7  -3  -8   27.90    1.50
  -7  -3  -8   29.40    1.80
   7   3   8   26.40    1.50
  -8  -3  -8   34.90    2.10
  -8  -3  -8   37.90    1.90
   8   3   8   38.30    2.20
   8   3   8   31.70    1.90
  -9  -3  -8    2.40    0.70
  -9  -3  -8    2.40    0.90
   9   3   8    2.10    0.80
 -10  -3  -8   -0.20    0.80
 -10  -3  -8   -0.10    0.60
  10   3   8   -1.00    0.70
 -11  -3  -8   -0.90    0.70
 -11  -3  -8    0.40    0.80
  11   3   8   -0.90    0.90
 -12  -3  -8   -0.10    0.80
 -12  -3  -8    0.30    0.90
  12   3   8   -1.00    1.00
 -13  -3  -8   11.10    1.60
 -13  -3  -8   10.10    1.50
  13   3   8   11.60    1.60
 -14  -3  -8   -1.20    1.10
 -15  -3  -8    0.30    1.30
 -15  -3  -8    0.80    1.40
  15   3   8    4.70    1.70
 -13   4   8    4.00    1.30
 -13   4   8    3.40    1.60
 -12   4   8    3.90    1.10
 -12   4   8    6.70    1.60
 -11   4   8    6.40    1.50
 -11   4   8    8.90    1.40
 -10   4   8   32.90    2.20
 -10   4   8   29.80    2.60
  -9   4   8   22.10    2.00
  -9   4   8   19.90    1.60
   8  -4  -8    7.60    0.70
  -8   4   8    3.90    1.00
  -8   4   8    6.50    1.00
  -8   4   8    5.50    0.60
   7  -4  -8   13.30    0.90
  -7   4   8   13.20    1.60
  -7   4   8   12.40    1.20
  -7   4   8   12.20    0.90
   6  -4  -8   72.39    3.20
  -6   4   8   67.59    3.20
  -6   4   8   76.39    3.40
  -6   4   8   72.09    3.70
   5  -4  -8   10.30    1.00
   5  -4  -8    8.30    0.90
  -5   4   8   10.00    1.20
  -5   4   8    8.30    0.80
  -5   4   8    7.80    0.80
   4  -4  -8   44.40    2.20
   4  -4  -8   42.30    2.10
  -4   4   8   48.10    2.50
  -4   4   8   44.60    2.10
  -4   4   8   39.60    2.10
   3  -4  -8   19.60    1.10
   3  -4  -8   22.00    1.30
  -3   4   8   22.90    1.60
  -3   4   8   19.40    1.20
  -3   4   8   20.00    1.10
   2  -4  -8   11.10    0.90
  -2   4   8   11.20    0.70
  -2   4   8   11.70    0.70
  -2   4   8   11.70    1.00
   1  -4  -8    0.90    0.50
  -1   4   8    0.80    0.50
  -1   4   8    1.20    0.40
  -1   4   8    2.20    0.30
  -1   4   8    1.40    0.50
   0  -4  -8    2.50    0.60
   0  -4  -8    3.00    0.60
   0   4   8    2.20    0.50
   0   4   8    2.30    0.50
   0   4   8    2.20    0.20
  -1  -4  -8   12.60    1.00
  -1  -4  -8   12.50    1.00
   1   4   8   12.80    0.90
   1   4   8   11.90    0.90
  -2  -4  -8   35.20    1.90
  -2  -4  -8   36.60    2.00
   2   4   8   33.30    1.80
   2   4   8   38.70    1.90
  -3  -4  -8  118.69    5.30
  -3  -4  -8  123.89    5.40
   3   4   8  131.79    5.30
   3   4   8  123.79    5.60
  -4  -4  -8  292.17   11.40
  -4  -4  -8  285.77   11.90
  -4  -4  -8  276.27   11.70
   4   4   8  297.57   11.60
  -5  -4  -8   31.00    1.40
  -5  -4  -8   32.10    1.90
  -5  -4  -8   29.90    1.70
   5   4   8   32.00    1.70
   5   4   8   29.60    1.50
  -6  -4  -8   30.20    1.80
  -6  -4  -8   34.60    1.60
   6   4   8   32.80    1.80
   6   4   8   30.70    1.60
  -7  -4  -8   60.89    2.80
  -7  -4  -8   63.49    3.10
   7   4   8   55.69    2.80
   7   4   8   63.99    3.00
  -8  -4  -8   11.30    1.00
  -8  -4  -8    9.30    1.20
   8   4   8   10.70    1.10
  -9  -4  -8   78.29    3.60
  -9  -4  -8   75.69    3.80
   9   4   8   77.59    3.70
 -10  -4  -8   13.80    1.50
 -10  -4  -8   18.00    1.40
  10   4   8   14.80    1.70
 -11  -4  -8   50.89    2.70
 -11  -4  -8   47.30    2.80
  11   4   8   50.29    3.00
 -12  -4  -8   12.30    1.50
 -12  -4  -8   10.70    1.40
  12   4   8   11.80    1.60
 -13  -4  -8    5.20    1.40
 -13  -4  -8    5.90    1.30
  13   4   8    8.00    1.50
 -14  -4  -8   10.30    1.60
  14   4   8    9.50    1.70
 -15  -4  -8    0.40    1.40
 -15  -4  -8    2.90    1.30
  15   4   8    2.80    1.60
 -13   5   8   12.60    1.80
 -13   5   8   16.20    2.40
 -12   5   8   12.80    2.10
 -12   5   8    8.20    1.40
 -11   5   8   15.10    2.10
 -10   5   8   18.70    1.70
  -9   5   8   17.60    2.10
  -9   5   8   17.20    1.60
   8  -5  -8    0.00    0.40
  -8   5   8    0.20    0.90
  -8   5   8    0.20    0.40
  -8   5   8    0.40    0.60
   7  -5  -8    6.80    0.70
  -7   5   8    6.80    0.90
  -7   5   8    6.60    0.70
  -7   5   8    6.00    1.20
   6  -5  -8    6.00    0.70
  -6   5   8    3.90    0.90
  -6   5   8    4.90    0.60
  -6   5   8    5.00    0.80
   5  -5  -8    9.50    0.90
   5  -5  -8    7.50    0.90
  -5   5   8    6.60    0.70
  -5   5   8    9.60    1.30
  -5   5   8   10.10    1.00
   4  -5  -8  413.46   16.70
  -4   5   8  385.76   16.60
  -4   5   8  422.96   16.60
  -4   5   8  441.26   17.00
   3  -5  -8  169.28    6.80
  -3   5   8  153.38    6.70
  -3   5   8  167.58    6.70
  -3   5   8  161.58    7.90
  -3   5   8  160.88    6.90
   2  -5  -8   61.79    2.70
  -2   5   8   53.99    2.60
  -2   5   8   55.49    2.50
  -2   5   8   53.79    2.80
  -2   5   8   56.19    2.50
   1  -5  -8  397.36   15.60
  -1   5   8  381.96   15.60
  -1   5   8  364.56   15.50
  -1   5   8  384.96   15.30
  -1   5   8  391.86   15.30
  -1   5   8  394.96   15.80
   0  -5  -8   17.50    1.20
   0   5   8   16.90    1.10
   0   5   8   16.70    1.20
   0   5   8   18.60    0.90
  -1  -5  -8    2.90    0.60
  -1  -5  -8    1.40    0.60
   1   5   8    1.30    0.20
   1   5   8    1.30    0.50
   1   5   8    2.30    0.50
   1   5   8    1.30    0.30
  -2  -5  -8   60.29    3.00
  -2  -5  -8   60.59    2.90
  -2  -5  -8   64.49    2.60
   2   5   8   62.99    2.60
   2   5   8   60.79    2.90
   2   5   8   64.39    2.90
  -3  -5  -8    1.90    0.50
  -3  -5  -8    2.90    0.30
  -3  -5  -8    2.50    0.60
   3   5   8    2.90    0.50
  -4  -5  -8   18.90    1.40
  -4  -5  -8   17.50    1.30
  -4  -5  -8   19.80    1.00
   4   5   8   21.50    1.30
   4   5   8   21.10    1.00
  -5  -5  -8   11.50    0.80
  -5  -5  -8   11.20    1.90
  -5  -5  -8   11.20    1.10
   5   5   8   11.20    1.00
   5   5   8   11.00    0.80
  -6  -5  -8    5.00    0.90
  -6  -5  -8    2.50    0.50
  -6  -5  -8    3.10    0.70
   6   5   8    4.30    0.70
   6   5   8    3.20    0.60
  -7  -5  -8    2.80    0.60
  -7  -5  -8    2.50    0.70
  -7  -5  -8    2.60    0.60
   7   5   8    2.90    0.70
   7   5   8    3.10    0.60
  -8  -5  -8    0.90    0.60
  -8  -5  -8   -0.80    0.60
   8   5   8    0.40    0.60
   8   5   8    0.90    0.60
  -9  -5  -8    9.40    1.20
  -9  -5  -8   11.20    1.30
   9   5   8    9.60    1.30
 -10  -5  -8    0.00    0.80
 -10  -5  -8    0.30    0.70
  10   5   8    0.30    0.80
 -11  -5  -8    7.10    1.30
 -11  -5  -8    8.00    1.10
  11   5   8    7.20    1.20
 -12  -5  -8    0.50    0.90
 -12  -5  -8    1.70    1.10
  12   5   8    2.10    1.10
 -13  -5  -8    7.80    1.50
 -13  -5  -8    8.90    1.40
  13   5   8   10.00    1.60
 -14  -5  -8    0.40    1.20
 -14  -5  -8    0.90    1.30
  14   5   8    1.30    1.40
 -15  -5  -8   -0.40    1.30
  15   5   8    0.10    1.90
 -13   6   8    1.40    1.20
 -13   6   8   -1.70    1.40
 -12   6   8    0.20    1.50
 -12   6   8    0.20    1.00
 -11   6   8    2.10    1.30
 -11   6   8    4.00    1.20
 -10   6   8    3.20    1.00
  -9   6   8   12.10    1.70
  -9   6   8   13.40    1.50
  -8   6   8   -0.40    0.60
  -8   6   8    0.50    0.40
  -8   6   8   -0.50    0.80
   7  -6  -8    7.00    0.70
  -7   6   8    7.50    1.00
  -7   6   8    6.30    0.70
  -7   6   8    7.60    1.30
   6  -6  -8   53.09    2.40
  -6   6   8   51.69    2.80
  -6   6   8   43.30    2.20
  -6   6   8   51.29    2.90
   5  -6  -8  112.39    4.70
  -5   6   8  112.69    5.20
  -5   6   8  109.59    4.80
  -5   6   8  101.59    4.60
   4  -6  -8   20.60    1.30
  -4   6   8   19.90    1.20
  -4   6   8   18.50    1.20
  -4   6   8   19.30    1.60
  -4   6   8   17.80    1.20
   3  -6  -8   39.70    2.00
  -3   6   8   35.70    1.90
  -3   6   8   39.20    1.90
  -3   6   8   37.00    2.20
  -3   6   8   38.50    1.90
   2  -6  -8   86.79    3.90
  -2   6   8   83.09    3.80
  -2   6   8   88.39    3.70
  -2   6   8   85.59    3.70
  -2   6   8   90.69    4.10
   1  -6  -8    4.70    0.80
  -1   6   8    5.10    0.80
  -1   6   8    5.00    0.50
  -1   6   8    4.40    0.70
  -1   6   8    5.50    0.60
   0  -6  -8   38.50    2.10
   0   6   8   39.90    2.10
   0   6   8   41.80    1.90
   0   6   8   40.90    1.80
   0   6   8   41.80    2.10
   0   6   8   37.40    2.20
  -1  -6  -8    0.50    0.40
   1   6   8    0.00    0.40
   1   6   8    0.00    0.40
   1   6   8    0.10    0.20
  -2  -6  -8    1.70    0.60
  -2  -6  -8    1.50    0.40
  -2  -6  -8    1.00    0.50
   2   6   8    2.20    0.50
   2   6   8    2.20    0.30
  -3  -6  -8    1.00    0.50
  -3  -6  -8    1.90    0.70
  -3  -6  -8    1.30    0.30
   3   6   8    1.40    0.40
   3   6   8    1.30    0.40
  -4  -6  -8  217.78    9.50
  -4  -6  -8  228.08    9.20
   4   6   8  241.28    9.30
   4   6   8  224.98    9.20
  -5  -6  -8   96.19    3.90
  -5  -6  -8   86.49    4.10
  -5  -6  -8   91.69    4.30
   5   6   8   99.29    4.10
   5   6   8   90.59    3.90
  -6  -6  -8   62.29    3.00
  -6  -6  -8   68.69    3.00
  -6  -6  -8   68.19    3.40
   6   6   8   68.79    3.00
   6   6   8   62.39    3.00
  -7  -6  -8   57.39    2.90
  -7  -6  -8   66.69    2.90
  -7  -6  -8   61.19    3.20
   7   6   8   65.99    3.00
   7   6   8   59.69    2.90
  -8  -6  -8   32.70    2.00
  -8  -6  -8   39.30    2.30
  -8  -6  -8   39.50    2.10
   8   6   8   40.20    2.10
  -9  -6  -8   20.70    1.70
  -9  -6  -8   19.70    1.70
   9   6   8   20.80    1.60
 -10  -6  -8   25.80    2.00
 -10  -6  -8   24.20    1.70
  10   6   8   23.20    2.10
 -11  -6  -8    2.70    0.90
 -11  -6  -8    1.50    1.00
  11   6   8    0.70    0.90
 -12  -6  -8    3.30    1.10
 -12  -6  -8    4.60    1.20
  12   6   8    5.70    1.20
 -13  -6  -8    0.10    1.10
 -13  -6  -8    2.20    1.30
  13   6   8    0.10    1.10
 -14  -6  -8    1.00    1.30
 -14  -6  -8   -0.20    1.30
  14   6   8   -0.30    1.30
 -15  -6  -8    0.40    1.40
  15   6   8   -0.30    1.70
  15   6   8    0.80    1.60
 -13   7   8    5.50    1.50
  12  -7  -8    7.50    1.70
 -12   7   8   11.30    1.60
  11  -7  -8   26.00    2.40
 -11   7   8   25.30    2.10
  10  -7  -8   12.80    1.60
 -10   7   8   12.40    1.60
   9  -7  -8   25.80    2.60
  -9   7   8   24.20    1.90
   8  -7  -8   62.19    3.50
  -8   7   8   60.49    2.60
  -8   7   8   57.09    2.60
  -8   7   8   61.49    3.20
  -7   7   8   12.50    1.20
  -7   7   8   10.20    0.80
   6  -7  -8  149.29    6.20
  -6   7   8  155.38    6.80
  -6   7   8  133.49    6.10
  -6   7   8  152.28    6.40
   5  -7  -8   30.70    1.70
  -5   7   8   28.60    1.60
  -5   7   8   32.30    2.20
  -5   7   8   31.60    1.80
   4  -7  -8   59.59    2.90
  -4   7   8   56.39    2.80
  -4   7   8   66.29    2.90
  -4   7   8   54.99    2.70
  -4   7   8   58.19    3.20
   3  -7  -8   60.99    2.90
  -3   7   8   54.79    3.00
  -3   7   8   55.69    2.70
  -3   7   8   59.89    2.80
  -3   7   8   58.19    2.70
   2  -7  -8   59.09    2.90
  -2   7   8   58.89    3.80
  -2   7   8   59.19    2.70
  -2   7   8   56.39    2.80
  -2   7   8   58.29    2.60
   1  -7  -8    3.10    0.70
  -1   7   8    4.80    0.80
  -1   7   8    4.50    0.60
  -1   7   8    4.90    0.70
  -1   7   8    5.90    0.80
   0  -7  -8   22.40    1.50
   0   7   8   24.30    1.40
   0   7   8   22.70    1.50
   0   7   8   21.10    1.20
  -1  -7  -8    8.00    1.00
  -1  -7  -8    7.40    0.70
   1   7   8    9.80    1.00
   1   7   8    8.10    0.60
   1   7   8    8.90    0.90
  -2  -7  -8    0.70    0.50
  -2  -7  -8    1.20    0.40
   2   7   8    1.30    0.40
   2   7   8    0.70    0.50
   2   7   8    1.20    0.40
  -3  -7  -8    4.10    0.80
  -3  -7  -8    2.90    0.50
   3   7   8    4.20    0.60
   3   7   8    2.70    0.50
  -4  -7  -8    0.70    0.50
  -4  -7  -8    0.50    0.40
  -4  -7  -8   -0.20    0.50
   4   7   8    0.30    0.40
   4   7   8    0.40    0.40
  -5  -7  -8   43.70    2.40
  -5  -7  -8   36.20    2.10
  -5  -7  -8   42.00    2.00
   5   7   8   46.10    2.10
   5   7   8   38.80    2.00
  -6  -7  -8    6.90    1.20
  -6  -7  -8    6.50    1.10
  -6  -7  -8    7.10    0.80
   6   7   8    5.70    0.80
   6   7   8    6.20    0.80
  -7  -7  -8   38.90    2.40
  -7  -7  -8   35.40    2.20
  -7  -7  -8   38.30    2.00
   7   7   8   32.50    2.00
   7   7   8   40.30    1.90
  -8  -7  -8   14.50    1.30
  -8  -7  -8   19.50    1.40
  -8  -7  -8   18.40    1.60
   8   7   8   16.90    1.30
  -9  -7  -8    9.20    1.10
  -9  -7  -8    8.70    1.00
  -9  -7  -8    7.00    1.30
   9   7   8    9.00    1.10
 -10  -7  -8    4.70    1.00
 -10  -7  -8    4.60    1.20
  10   7   8    3.70    0.90
 -11  -7  -8   17.10    1.90
 -11  -7  -8   19.30    1.70
  11   7   8   26.80    2.90
 -12  -7  -8    5.90    1.40
 -12  -7  -8    3.10    1.10
  12   7   8    3.40    1.10
 -13  -7  -8    6.00    1.50
 -13  -7  -8    5.60    1.40
  13   7   8   10.60    1.50
 -14  -7  -8    2.20    1.40
  14   7   8    1.20    1.40
  14   7   8    4.30    1.70
 -15  -7  -8    1.10    1.40
  15   7   8    0.90    1.60
  15   7   8   -0.40    2.00
  12  -8  -8    2.10    1.40
 -12   8   8    1.30    1.10
  11  -8  -8   -0.10    1.10
 -11   8   8    1.60    1.10
  10  -8  -8    2.20    1.20
 -10   8   8    2.10    1.20
   9  -8  -8    1.30    1.00
  -9   8   8    1.50    0.90
   8  -8  -8    2.00    1.00
  -8   8   8    2.10    0.90
  -8   8   8    3.30    0.50
  -8   8   8    1.60    0.50
   7  -8  -8    2.70    1.00
  -7   8   8    3.20    0.70
  -7   8   8    3.40    0.90
  -7   8   8    2.30    0.60
  -6   8   8    4.50    0.70
  -6   8   8    4.50    0.90
  -6   8   8    4.50    0.70
  -5   8   8   14.00    1.50
  -5   8   8   13.80    1.30
  -5   8   8   15.10    1.10
   4  -8  -8   15.10    1.20
  -4   8   8   17.50    1.50
  -4   8   8   15.60    1.20
  -4   8   8   17.60    1.30
   3  -8  -8  109.19    4.80
  -3   8   8  108.59    4.70
  -3   8   8  100.99    4.60
  -3   8   8  100.19    4.70
  -3   8   8  113.49    5.00
   2  -8  -8   38.00    2.20
  -2   8   8   36.60    2.00
  -2   8   8   41.90    2.30
  -2   8   8   40.60    2.00
   1  -8  -8   79.39    3.80
  -1   8   8   81.39    3.60
  -1   8   8   76.59    3.70
   0  -8  -8   30.10    1.60
   0  -8  -8   31.30    2.00
   0   8   8   28.30    1.50
   0   8   8   25.60    1.80
   0   8   8   30.80    1.70
  -1  -8  -8   87.69    3.90
  -1  -8  -8   91.09    4.30
   1   8   8   89.99    4.10
   1   8   8   91.59    4.00
   1   8   8   87.79    3.80
  -2  -8  -8   67.89    3.00
  -2  -8  -8   67.69    3.40
   2   8   8   63.89    3.00
   2   8   8   68.59    3.20
   2   8   8   71.79    3.10
  -3  -8  -8  107.99    4.50
  -3  -8  -8  109.59    4.90
   3   8   8   95.69    4.80
   3   8   8  100.69    4.50
   3   8   8  113.09    4.50
  -4  -8  -8   43.80    2.10
  -4  -8  -8   42.00    2.50
   4   8   8   45.10    2.10
  -5  -8  -8   21.30    1.40
  -5  -8  -8   22.50    1.70
  -5  -8  -8   23.60    1.40
   5   8   8   21.60    1.30
   5   8   8   21.10    1.30
  -6  -8  -8   75.69    3.40
  -6  -8  -8   72.79    3.80
  -6  -8  -8   71.79    3.30
   6   8   8   69.19    3.30
   6   8   8   74.49    3.20
  -7  -8  -8   20.80    1.50
  -7  -8  -8   17.30    1.40
  -7  -8  -8   23.50    1.90
   7   8   8   20.30    1.30
  -8  -8  -8   -0.30    0.70
  -8  -8  -8    1.10    0.80
  -8  -8  -8   -1.00    0.70
   8   8   8    0.30    0.60
  -9  -8  -8   -0.40    0.70
  -9  -8  -8    0.40    0.90
   9   8   8    0.50    0.60
 -10  -8  -8    0.40    0.70
 -10  -8  -8   -0.20    0.80
 -10  -8  -8    0.20    0.90
  10   8   8    0.20    0.70
 -11  -8  -8    2.30    1.10
 -11  -8  -8    2.70    1.10
 -11  -8  -8    3.00    1.20
  11   8   8    4.30    0.90
 -12  -8  -8    0.10    1.10
  12   8   8    0.40    1.00
 -13  -8  -8    2.90    1.20
  13   8   8    3.60    1.70
  13   8   8    3.30    1.20
 -14  -8  -8    0.50    1.20
  14   8   8   -0.60    1.30
  14   8   8    0.70    1.70
  12  -9  -8    5.30    1.60
 -12   9   8    4.50    1.40
  11  -9  -8   12.30    1.90
 -11   9   8   13.80    1.80
  10  -9  -8   14.80    2.10
 -10   9   8   14.10    1.70
   9  -9  -8    8.90    1.50
  -9   9   8   11.70    1.50
  -8   9   8   16.20    1.10
  -8   9   8   17.20    1.60
  -8   9   8   14.50    1.00
   7  -9  -8    4.70    1.20
  -7   9   8    4.60    0.70
  -7   9   8    5.20    1.00
  -7   9   8    4.60    0.80
   6  -9  -8    0.30    0.70
  -6   9   8    1.40    0.70
  -6   9   8    3.00    0.70
  -6   9   8    1.30    0.80
  -5   9   8    3.10    0.80
  -5   9   8    2.60    0.70
  -5   9   8    2.90    0.80
  -4   9   8   31.10    1.90
  -4   9   8   29.60    2.10
   3  -9  -8    9.90    1.20
  -3   9   8   11.60    1.40
  -2   9   8    0.70    0.70
  -2   9   8    1.80    0.60
   1  -9  -8   63.59    3.10
  -1   9   8   61.89    2.90
  -1   9   8   56.39    2.80
  -1   9   8   63.29    3.30
   0  -9  -8   43.30    2.40
   0  -9  -8   41.80    2.20
   0   9   8   45.70    2.30
   0   9   8   40.20    2.10
  -1  -9  -8    9.50    1.00
  -1  -9  -8   11.10    1.30
   1   9   8    9.00    0.90
   1   9   8    9.00    1.10
   1   9   8    8.60    0.90
  -2  -9  -8    6.30    0.90
  -2  -9  -8    4.40    1.00
   2   9   8    5.80    0.70
   2   9   8    6.80    0.90
   2   9   8    5.30    0.70
  -3  -9  -8   62.19    3.30
  -3  -9  -8   62.69    2.90
   3   9   8   55.89    2.80
   3   9   8   64.99    2.80
   3   9   8   64.59    3.00
  -4  -9  -8    1.60    0.70
  -4  -9  -8    1.60    0.60
   4   9   8    0.90    0.60
   4   9   8    0.60    0.50
   4   9   8    0.80    0.50
  -5  -9  -8   80.49    3.60
  -5  -9  -8   78.69    4.00
   5   9   8   82.09    3.40
   5   9   8   75.49    3.60
  -6  -9  -8    1.00    0.80
   6   9   8    1.00    0.50
  -7  -9  -8   18.30    1.80
  -7  -9  -8   19.90    1.50
   7   9   8   15.00    1.20
  -8  -9  -8   62.79    3.50
  -8  -9  -8   56.19    2.80
  -8  -9  -8   66.39    3.10
   8   9   8   60.49    2.80
  -9  -9  -8   17.70    1.60
  -9  -9  -8   13.70    1.40
  -9  -9  -8   19.80    2.00
   9   9   8   17.50    1.30
 -10  -9  -8   13.00    1.30
 -10  -9  -8   15.70    1.70
 -10  -9  -8   12.50    1.80
  10   9   8   15.80    1.30
 -11  -9  -8   34.40    2.50
  11   9   8   34.50    2.00
  11   9   8   33.80    2.80
 -12  -9  -8   17.10    2.30
  12   9   8   20.50    1.70
 -13  -9  -8    2.40    1.50
  13   9   8    0.70    1.60
  13   9   8   -1.10    1.10
 -14  -9  -8   19.60    2.20
  14   9   8   23.20    2.70
  11 -10  -8   -0.90    1.20
 -11  10   8   -1.00    1.10
  10 -10  -8   11.80    1.80
 -10  10   8   11.70    1.60
   9 -10  -8    6.70    1.50
  -9  10   8    6.90    1.30
   8 -10  -8   13.10    1.80
  -8  10   8   12.80    1.60
  -8  10   8   12.70    1.10
   7 -10  -8   12.10    1.70
  -7  10   8   13.50    1.60
  -7  10   8   14.00    1.20
  -7  10   8   14.70    1.20
   6 -10  -8   22.10    2.00
  -6  10   8   21.00    1.60
  -6  10   8   22.50    1.80
  -5  10   8   21.80    1.70
  -5  10   8   20.30    1.70
  -4  10   8   46.10    2.80
  -4  10   8   49.80    2.70
  -4  10   8   48.90    2.70
  -3  10   8   67.89    3.60
  -3  10   8   74.59    3.60
  -3  10   8   69.59    3.50
  -2  10   8   23.90    1.70
  -2  10   8   21.10    1.70
  -2  10   8   21.20    1.60
  -1  10   8   69.39    3.40
   0 -10  -8   17.90    1.40
   0 -10  -8   18.70    1.60
   0  10   8   19.60    1.40
  -1 -10  -8   20.10    1.50
  -1 -10  -8   20.30    1.70
   1  10   8   23.80    1.60
   1  10   8   23.50    1.40
  -2 -10  -8   17.00    1.60
  -2 -10  -8   19.10    1.40
   2  10   8   22.00    1.30
   2  10   8   20.80    1.50
  -3 -10  -8    2.90    0.90
  -3 -10  -8    2.80    0.70
   3  10   8    1.80    0.70
   3  10   8    2.40    0.50
  -4 -10  -8   24.60    2.00
   4  10   8   22.20    1.50
   4  10   8   25.30    1.40
  -5 -10  -8    0.50    0.90
  -5 -10  -8    1.20    0.70
   5  10   8    1.40    0.50
   5  10   8    1.10    0.60
  -6 -10  -8   69.19    3.30
  -6 -10  -8   68.29    3.70
   6  10   8   69.49    2.90
   6  10   8   63.99    3.10
  -7 -10  -8   12.00    1.30
  -7 -10  -8   12.40    1.60
   7  10   8   11.20    0.90
   7  10   8   10.10    1.00
  -8 -10  -8    0.40    0.80
   8  10   8    0.10    0.60
   8  10   8    0.40    0.50
  -9 -10  -8    0.40    0.90
   9  10   8    1.10    1.10
   9  10   8    0.20    0.50
 -10 -10  -8   -0.10    1.00
  10  10   8   -0.20    1.20
 -11 -10  -8    1.20    1.20
  11  10   8    1.10    1.40
 -12 -10  -8    4.40    1.40
  12  10   8    5.80    1.70
 -13 -10  -8    7.90    1.70
  13  10   8   14.10    2.30
  11 -11  -8    0.90    1.80
 -11  11   8    0.80    1.20
  10 -11  -8    3.30    1.50
 -10  11   8    1.60    1.10
   9 -11  -8    4.60    1.50
  -9  11   8    4.40    1.20
   8 -11  -8    0.80    1.10
  -8  11   8    0.10    1.00
  -8  11   8    1.10    0.70
   7 -11  -8    3.30    1.10
  -7  11   8    1.90    1.00
  -7  11   8    2.90    0.80
   6 -11  -8    0.60    0.90
  -6  11   8    1.50    0.90
  -6  11   8    0.60    0.70
   5 -11  -8    1.50    1.00
  -5  11   8    1.60    0.80
  -5  11   8    2.90    1.00
  -4  11   8    6.90    1.10
  -4  11   8    6.50    1.10
  -4  11   8    4.70    1.10
  -3  11   8   22.70    2.00
  -3  11   8   26.90    1.90
  -3  11   8   25.90    1.90
  -2  11   8    1.10    0.80
  -2  11   8    0.80    0.70
  -2  11   8    2.60    0.80
   1 -11  -8   30.00    1.90
  -1  11   8   29.10    2.10
  -1  11   8   29.30    1.90
   0 -11  -8   37.30    2.30
   0  11   8   42.90    2.30
   0  11   8   44.00    2.60
  -1 -11  -8   32.50    2.00
   1  11   8   29.70    2.00
   1  11   8   35.40    1.90
   1  11   8   34.80    2.30
  -2 -11  -8   48.70    2.70
   2  11   8   56.89    2.50
   2  11   8   47.70    2.60
   2  11   8   52.89    3.10
  -3 -11  -8   98.29    4.60
   3  11   8   98.29    4.60
   3  11   8  109.59    4.40
   3  11   8  107.69    5.10
  -4 -11  -8   51.99    2.70
   4  11   8   52.09    2.40
   4  11   8   53.29    3.10
   4  11   8   52.09    2.50
  -5 -11  -8   95.19    4.30
   5  11   8   88.49    4.00
   5  11   8   90.69    3.80
   5  11   8   91.39    4.70
  -6 -11  -8   35.50    2.20
   6  11   8   37.70    1.70
   6  11   8   36.40    2.60
   6  11   8   32.00    1.80
  -7 -11  -8   28.10    2.00
   7  11   8   30.80    2.40
  -8 -11  -8    9.50    1.20
   8  11   8    7.50    1.50
  -9 -11  -8   19.80    2.00
   9  11   8   18.60    2.30
 -10 -11  -8    5.20    1.30
  10  11   8    4.20    1.50
 -11 -11  -8    2.00    1.30
  11  11   8    2.90    1.60
 -12 -11  -8    7.90    1.70
  12  11   8    6.80    1.90
 -13 -11  -8   -1.70    1.50
  13  11   8    5.20    1.90
  10 -12  -8    8.00    1.80
 -10  12   8    6.90    1.50
   9 -12  -8    8.60    1.80
  -9  12   8   11.30    1.60
   8 -12  -8    7.30    1.50
  -8  12   8    7.50    1.50
   7 -12  -8   23.40    2.30
  -7  12   8   25.00    1.80
  -7  12   8   25.10    2.20
  -6  12   8   33.10    2.10
  -6  12   8   30.10    2.60
  -5  12   8   30.00    2.30
  -5  12   8   28.30    2.10
  -4  12   8   43.50    2.60
  -4  12   8   41.80    2.60
  -4  12   8   39.20    2.70
  -3  12   8   64.99    3.50
  -3  12   8   66.29    3.50
  -3  12   8   67.59    3.60
  -2  12   8   19.80    1.80
  -2  12   8   19.20    1.80
  -2  12   8   19.70    1.70
   1 -12  -8   20.90    1.70
  -1  12   8   21.30    1.90
  -1  12   8   21.70    1.70
   0 -12  -8    1.50    0.90
   0  12   8    1.90    0.90
   0  12   8    3.30    0.80
  -1 -12  -8    0.80    0.80
   1  12   8    1.50    1.00
   1  12   8    1.00    0.60
  -2 -12  -8    4.50    1.00
   2  12   8    6.30    0.80
   2  12   8    4.60    0.90
   2  12   8    4.70    1.10
  -3 -12  -8    5.60    1.10
   3  12   8    4.50    0.80
   3  12   8    5.50    1.20
   3  12   8    4.70    0.70
  -4 -12  -8    1.50    0.90
   4  12   8    1.30    0.40
   4  12   8    1.20    0.60
   4  12   8    1.10    0.90
  -5 -12  -8   -0.80    0.70
   5  12   8   -0.30    1.00
   5  12   8    0.80    0.60
  -6 -12  -8   -0.10    0.80
   6  12   8   -0.10    0.90
  -7 -12  -8   -1.10    0.90
   7  12   8    2.20    1.20
  -8 -12  -8    2.80    1.10
   8  12   8    1.70    1.20
  -9 -12  -8   20.90    2.30
   9  12   8   21.50    2.40
 -10 -12  -8    4.60    1.50
  10  12   8    5.30    1.70
 -11 -12  -8    2.30    1.50
  11  12   8    1.50    1.50
 -12 -12  -8    1.00    1.60
  12  12   8    2.00    1.70
   9 -13  -8    1.30    1.50
  -9  13   8    0.70    1.30
   8 -13  -8    5.90    1.70
  -8  13   8    4.90    1.50
  -8  13   8    5.50    1.20
   7 -13  -8    1.10    1.20
  -7  13   8    1.60    1.20
  -7  13   8    0.90    1.00
   6 -13  -8    0.90    1.10
  -6  13   8    0.30    1.00
  -6  13   8    1.90    1.00
  -5  13   8    8.60    1.40
  -5  13   8    7.70    1.40
  -4  13   8    6.40    1.30
  -4  13   8    6.90    1.30
  -4  13   8    9.50    1.40
  -3  13   8   17.60    2.00
  -3  13   8   20.40    2.00
  -3  13   8   20.30    2.10
  -2  13   8   21.30    1.90
  -2  13   8   20.80    1.90
  -2  13   8   18.50    1.80
   1 -13  -8   11.80    1.50
  -1  13   8   11.10    1.40
  -1  13   8   13.20    1.70
   0 -13  -8   21.50    1.80
   0  13   8   20.90    1.70
   0  13   8   22.00    1.90
  -1 -13  -8    1.00    0.90
   1  13   8    0.50    1.00
   1  13   8    0.50    0.70
  -2 -13  -8    6.10    1.20
   2  13   8    9.30    1.50
   2  13   8    7.70    0.90
   2  13   8    5.00    0.90
  -3 -13  -8   18.70    1.70
   3  13   8   19.00    1.20
   3  13   8   17.50    1.30
   3  13   8   17.10    2.20
  -4 -13  -8   48.10    2.70
   4  13   8   46.20    2.20
   4  13   8   42.20    3.50
   4  13   8   47.10    2.00
  -5 -13  -8   15.50    1.70
   5  13   8   12.20    1.90
  -6 -13  -8   17.70    1.90
   6  13   8   19.20    2.30
  -7 -13  -8   12.80    1.60
   7  13   8   12.00    2.00
  -8 -13  -8   -1.30    1.10
   8  13   8    1.50    1.30
  -9 -13  -8    0.10    1.20
   9  13   8   -0.80    1.40
 -10 -13  -8    3.60    1.60
  10  13   8    6.40    1.70
 -11 -13  -8    2.50    1.50
  11  13   8    3.10    1.80
   7 -14  -8    6.50    1.60
  -7  14   8    7.60    1.40
  -7  14   8    7.80    1.60
  -6  14   8    9.60    1.60
  -6  14   8    7.30    1.40
  -5  14   8    0.30    1.00
  -5  14   8   -0.40    1.10
  -5  14   8    1.10    1.20
  -4  14   8   -0.10    1.10
  -4  14   8    0.00    1.10
  -4  14   8   -0.80    1.00
  -3  14   8    2.80    1.10
  -3  14   8    0.10    1.00
  -3  14   8    1.90    1.20
  -2  14   8    5.60    1.20
  -2  14   8    6.00    1.20
   1 -14  -8    0.60    1.00
  -1  14   8    1.40    0.90
  -1  14   8    2.70    1.80
   0 -14  -8    7.00    1.30
   0  14   8    6.20    1.50
   0  14   8    9.30    1.20
  -1 -14  -8    2.50    1.00
   1  14   8    5.10    1.40
   1  14   8    1.10    0.80
  -2 -14  -8    5.90    1.20
   2  14   8    6.40    0.80
   2  14   8    6.20    1.30
  -3 -14  -8   -0.60    0.90
   3  14   8    0.60    1.10
   3  14   8    0.60    0.50
  -4 -14  -8    4.40    1.20
   4  14   8    3.80    1.40
   5  14   8    7.70    1.50
  -6 -14  -8    9.70    1.50
   6  14   8    6.20    1.60
  -7 -14  -8   14.50    1.80
   7  14   8   19.80    2.40
  -8 -14  -8   -0.20    1.20
   8  14   8    2.00    1.40
  -9 -14  -8   12.10    1.90
   9  14   8   17.90    2.40
 -10 -14  -8    1.30    1.60
  10  14   8   -2.00    1.60
  -6  15   8    7.90    1.80
  -5  15   8   14.80    2.00
  -5  15   8   15.30    2.00
  -5  15   8   15.00    2.00
  -4  15   8    8.90    1.60
  -4  15   8   10.30    1.80
  -4  15   8    8.60    1.70
  -3  15   8    5.00    1.50
  -3  15   8    5.10    1.40
  -3  15   8    2.60    1.30
  -2  15   8    7.10    1.40
  -2  15   8    7.40    1.40
  -2  15   8    9.00    1.60
   1 -15  -8   -1.70    0.90
  -1  15   8    3.70    1.40
  -1  15   8    2.30    1.10
   0 -15  -8   17.00    1.90
   0  15   8   17.10    1.70
   0  15   8   19.70    2.30
  -1 -15  -8    8.40    1.40
   1  15   8    7.00    1.50
   1  15   8    5.40    1.00
  -2 -15  -8    3.80    1.30
   2  15   8    4.50    0.90
   2  15   8    6.20    1.60
  -3 -15  -8   20.60    2.10
   3  15   8   23.70    2.50
  -4 -15  -8   10.50    1.60
   4  15   8    7.00    1.70
  -5 -15  -8    5.60    1.40
   5  15   8    5.20    1.40
  -6 -15  -8   -0.90    1.10
   6  15   8    0.30    1.50
  -7 -15  -8    7.90    1.60
   7  15   8    9.70    2.00
  -8 -15  -8    2.10    1.40
   8  15   8    2.30    1.70
  -3  16   8   -0.70    1.30
  -3  16   8    1.40    1.40
  -2  16   8    0.90    1.30
  -2  16   8    1.00    1.30
  -2  16   8    0.70    1.20
  -1  16   8   12.50    2.00
  -1  16   8   10.00    1.40
   0 -16  -8   10.10    1.70
   0  16   8   10.10    1.30
   0  16   8   10.90    2.00
  -1 -16  -8    6.70    1.50
   1  16   8    7.60    1.90
  -2 -16  -8    6.80    1.60
   2  16   8    3.90    1.50
  -3 -16  -8    0.60    1.40
   3  16   8    0.90    1.40
  -4 -16  -8    3.60    1.40
   4  16   8    4.60    1.80
  -5 -16  -8    3.00    1.40
   5  16   8    6.00    1.80
  -6 -16  -8    1.30    1.40
   4   9  -9    3.10    1.70
  -4  -9   9    0.90    1.40
  -4  -9   9   -1.40    1.40
   3   9  -9    8.50    1.80
  -3  -9   9   10.60    1.60
  -3  -9   9    9.80    1.70
   2   9  -9    0.40    1.50
  -2  -9   9    0.50    1.40
  -2  -9   9   -0.20    1.30
   1   9  -9   11.50    1.80
  -1  -9   9    5.50    1.50
  -1  -9   9    9.30    1.40
   0   9  -9    4.60    1.60
   0  -9   9    4.30    1.40
   0  -9   9    3.70    1.40
  -1   9  -9   -0.30    1.20
   1  -9   9   -0.50    2.70
   1  -9   9    2.50    1.30
  -2   9  -9   -1.30    1.30
   2  -9   9    4.50    1.50
   2  -9   9    3.40    1.50
  -3   9  -9   -0.50    1.30
   3  -9   9    1.30    1.30
   3  -9   9    0.90    1.30
  -4   9  -9   -0.20    1.30
  -4   9  -9    1.00    1.60
   4  -9   9    2.40    1.60
  -5   9  -9    1.20    1.70
  -5   9  -9   -0.40    1.40
   5  -9   9   -0.20    1.60
  -6   9  -9    1.90    1.80
  -6   9  -9    1.20    1.60
   6  -9   9    4.40    1.70
   6   8  -9    1.40    1.50
  -6  -8   9   -1.20    1.40
  -6  -8   9   -1.20    1.20
   5   8  -9    2.20    1.40
  -5  -8   9    1.20    1.20
  -5  -8   9   -0.30    1.30
   4   8  -9    3.40    1.40
  -4  -8   9    2.60    1.20
  -4  -8   9    3.40    1.40
   3   8  -9   24.70    2.40
  -3  -8   9   17.80    2.00
  -3  -8   9   16.80    1.90
   2   8  -9    2.90    1.30
  -2  -8   9    3.60    1.30
  -2  -8   9    4.40    1.30
   1   8  -9    5.70    1.50
  -1  -8   9    7.00    1.30
   0   8  -9   14.90    1.90
   0  -8   9   18.20    2.10
   0  -8   9   14.20    1.70
  -1   8  -9    4.20    1.40
   1  -8   9    3.60    1.20
   1  -8   9    7.60    1.40
  -2   8  -9    3.60    1.30
   2  -8   9    4.90    1.30
   2  -8   9    6.10    1.40
  -3   8  -9    3.00    1.20
   3  -8   9    1.00    1.30
   3  -8   9    0.90    1.50
  -4   8  -9    1.80    1.90
  -4   8  -9    2.50    1.30
   4  -8   9    1.60    1.30
  -5   8  -9    0.80    1.20
  -5   8  -9   -0.60    1.40
   5  -8   9   -0.80    1.30
  -6   8  -9   -1.00    1.50
  -6   8  -9   -0.30    1.30
   6  -8   9    2.20    1.40
  -7   8  -9    0.70    1.60
  -7   8  -9   -2.60    1.30
   7  -8   9   -3.30    1.40
  -8   8  -9   -0.20    1.70
  -8   8  -9   -0.70    1.60
   8  -8   9    1.00    1.70
   8   7  -9    2.00    1.40
  -8  -7   9   -1.50    1.20
  -8  -7   9    3.20    1.50
   7   7  -9    0.00    1.30
  -7  -7   9   -0.10    1.30
  -7  -7   9   -0.10    1.10
   6   7  -9    0.70    1.30
  -6  -7   9   -0.70    1.10
  -6  -7   9   -0.20    1.30
   5   7  -9    0.60    1.20
  -5  -7   9   -0.10    1.10
  -5  -7   9   -0.60    0.90
   4   7  -9    1.50    1.10
  -4  -7   9    0.60    0.90
   3   7  -9   -1.50    1.00
  -3  -7   9    0.00    1.00
  -3  -7   9   -0.70    1.00
   2   7  -9    4.10    1.40
  -2  -7   9    4.90    1.20
  -2  -7   9    3.70    1.10
   1   7  -9   -0.30    1.00
  -1  -7   9    0.00    1.00
  -1  -7   9    1.60    1.00
   0   7  -9    0.90    1.10
   0  -7   9    0.70    1.00
   0  -7   9   -1.20    1.00
  -1   7  -9   23.40    2.10
   1  -7   9   23.70    2.20
   1  -7   9   25.30    2.10
  -2   7  -9    0.80    1.00
   2  -7   9    1.50    1.10
   2  -7   9   -0.20    1.10
  -3   7  -9   -0.10    1.20
   3  -7   9    0.60    1.00
   3  -7   9   -0.30    1.10
  -4   7  -9    0.40    1.10
  -4   7  -9    0.80    1.20
   4  -7   9    0.40    1.50
  -5   7  -9   12.40    1.80
  -5   7  -9   11.40    1.80
   5  -7   9   10.60    1.70
  -6   7  -9   39.20    2.90
  -6   7  -9   39.10    2.80
   6  -7   9   35.80    3.00
  -7   7  -9   15.10    2.20
  -7   7  -9   16.10    2.00
   7  -7   9   16.40    2.10
  -8   7  -9    4.70    1.70
  -8   7  -9    8.90    1.70
   8  -7   9    2.70    1.70
  -9   7  -9    1.60    1.60
  -9   7  -9    3.80    1.50
   9  -7   9    7.50    1.90
 -10   7  -9    6.80    1.90
 -10   7  -9   10.10    2.00
  10  -7   9    8.50    2.20
   9   6  -9    2.80    1.50
  -9  -6   9    5.20    1.70
  -9  -6   9    4.90    1.30
   8   6  -9    3.10    1.40
  -8  -6   9    3.50    1.10
  -8  -6   9    2.90    1.40
   7   6  -9   20.50    2.20
  -7  -6   9   29.10    2.40
  -7  -6   9   19.50    1.90
   6   6  -9    4.10    1.30
  -6  -6   9    4.00    1.10
   5   6  -9    8.00    1.50
  -5  -6   9    8.90    1.40
  -5  -6   9    7.20    1.20
   4   6  -9    3.90    1.20
  -4  -6   9    3.50    1.00
  -4  -6   9    3.90    1.10
   3   6  -9    6.30    1.70
  -3  -6   9    4.20    1.10
  -3  -6   9    6.70    1.20
  -2  -6   9    2.00    1.00
  -2  -6   9    0.90    0.90
   1   6  -9    4.00    1.40
  -1  -6   9    4.10    1.10
  -1  -6   9    4.00    1.00
   0   6  -9    5.70    1.30
   0  -6   9    8.10    1.20
   0  -6   9    4.00    1.10
  -1   6  -9    0.90    1.00
   1  -6   9    2.80    1.00
   1  -6   9    3.10    1.00
  -2   6  -9   16.10    1.80
   2  -6   9   17.40    1.70
   2  -6   9   13.10    1.60
  -3   6  -9    3.20    1.10
   3  -6   9    0.60    1.10
   3  -6   9    1.40    0.90
  -4   6  -9    5.80    1.50
  -4   6  -9    4.10    1.20
   4  -6   9    4.80    1.30
  -5   6  -9    2.10    1.20
   5  -6   9    0.80    1.10
  -6   6  -9    4.00    1.60
  -6   6  -9    3.20    1.30
   6  -6   9    2.30    1.20
  -7   6  -9    7.40    1.50
  -7   6  -9    6.80    1.60
   7  -6   9    7.30    1.60
  -8   6  -9    3.90    1.40
  -8   6  -9    4.10    1.50
   8  -6   9    4.70    1.70
  -9   6  -9    4.80    1.50
   9  -6   9    3.20    1.60
 -10   6  -9   -0.10    1.50
 -10   6  -9    0.30    1.30
  10  -6   9    0.80    1.60
 -11   6  -9    2.50    1.60
 -11   6  -9   -1.40    1.70
  11  -6   9    2.90    1.70
  10   5  -9    3.90    1.40
 -10  -5   9    3.90    1.60
 -10  -5   9    3.20    1.20
   9   5  -9   -0.10    1.20
  -9  -5   9    0.30    1.10
  -9  -5   9    0.40    1.30
   8   5  -9    1.60    1.30
  -8  -5   9    0.70    1.00
  -8  -5   9    2.60    1.20
   7   5  -9   18.90    2.40
  -7  -5   9   14.60    1.60
  -7  -5   9   23.50    2.40
   6   5  -9    4.80    1.30
  -6  -5   9    2.60    1.00
  -6  -5   9    6.30    1.20
   5   5  -9    0.10    0.90
  -5  -5   9    1.20    0.90
  -5  -5   9   -0.60    0.90
   4   5  -9    2.00    1.00
  -4  -5   9    3.30    1.00
  -4  -5   9    4.10    1.00
   3   5  -9   -0.20    0.80
  -3  -5   9   -0.40    0.80
  -3  -5   9   -0.30    0.80
   2   5  -9   15.70    1.70
  -2  -5   9   18.10    1.60
  -2  -5   9   15.00    1.50
   1   5  -9   27.20    2.10
  -1  -5   9   28.00    2.00
  -1  -5   9   29.10    1.90
   0   5  -9    4.40    1.10
   0  -5   9    7.80    1.10
   0  -5   9    6.10    1.10
  -1   5  -9  169.18    7.50
   1  -5   9  174.18    7.20
   1  -5   9  160.18    7.30
  -2   5  -9   24.10    1.90
   2  -5   9   20.60    2.00
   2  -5   9   22.70    1.80
  -3   5  -9   21.80    1.80
   3  -5   9   15.60    1.60
   3  -5   9   17.60    2.00
  -4   5  -9   16.30    1.70
  -4   5  -9   14.00    1.70
   4  -5   9   14.20    1.70
  -5   5  -9   10.00    1.50
  -5   5  -9    9.70    1.30
   5  -5   9   10.10    1.50
  -6   5  -9    7.20    1.30
  -6   5  -9    6.60    1.20
   6  -5   9    5.00    1.40
  -7   5  -9    1.30    1.10
  -7   5  -9    0.40    1.00
   7  -5   9   -0.70    1.10
  -8   5  -9    1.70    1.30
  -8   5  -9    0.70    1.10
   8  -5   9    1.00    1.30
  -9   5  -9   -2.00    1.20
  -9   5  -9    1.00    1.30
   9  -5   9    1.10    1.30
 -10   5  -9    7.10    1.60
  10  -5   9    7.40    1.80
 -11   5  -9   -0.80    1.30
 -11   5  -9   -0.90    1.40
  11  -5   9    0.60    1.50
 -12   5  -9    3.50    1.60
 -12   5  -9    1.70    1.80
  12  -5   9    3.10    1.80
  11   4  -9    5.40    1.50
 -11  -4   9    5.00    1.70
 -11  -4   9    3.40    1.70
  10   4  -9    9.70    1.50
 -10  -4   9    7.30    1.40
 -10  -4   9    9.40    1.70
   9   4  -9   17.10    1.80
  -9  -4   9   13.00    1.60
  -9  -4   9   18.70    2.00
   8   4  -9    0.70    1.10
  -8  -4   9    1.00    1.30
  -8  -4   9   -0.60    0.90
   7   4  -9   30.60    2.30
  -7  -4   9   26.40    2.10
  -7  -4   9   35.60    2.30
   6   4  -9   -0.10    0.90
  -6  -4   9    0.70    0.80
  -6  -4   9    0.70    0.80
   5   4  -9   11.40    1.60
  -5  -4   9    9.90    1.30
  -5  -4   9   10.30    1.30
   4   4  -9    9.60    1.40
  -4  -4   9    8.80    1.20
  -4  -4   9   10.00    1.20
   3   4  -9    3.90    1.10
  -3  -4   9    1.30    0.80
  -3  -4   9    2.00    0.80
   2   4  -9    7.70    1.20
  -2  -4   9    6.70    1.10
  -2  -4   9    6.90    0.90
   1   4  -9    0.10    0.80
  -1  -4   9    1.40    0.80
  -1  -4   9    0.70    0.60
   0   4  -9    7.30    1.20
   0  -4   9    8.30    1.20
   0  -4   9    7.40    1.10
  -1   4  -9    9.30    1.30
   1  -4   9   11.70    1.20
   1  -4   9   10.40    1.30
  -2   4  -9   -0.50    0.70
   2  -4   9    0.30    0.70
   2  -4   9   -0.30    0.70
  -3   4  -9    2.90    0.90
   3  -4   9    0.50    0.70
   3  -4   9    0.90    0.90
  -4   4  -9    5.20    1.10
   4  -4   9    3.50    1.10
  -5   4  -9    2.40    0.90
  -5   4  -9    5.00    1.20
   5  -4   9    4.20    1.10
  -6   4  -9   17.50    1.70
  -6   4  -9   19.80    1.80
   6  -4   9   15.30    1.80
  -7   4  -9   40.50    2.50
  -7   4  -9   35.80    2.40
   7  -4   9   39.60    2.80
  -8   4  -9   21.80    2.00
  -8   4  -9   24.40    2.10
   8  -4   9   16.60    3.00
  -9   4  -9    8.90    1.30
  -9   4  -9   12.50    1.60
   9  -4   9    7.80    1.60
 -10   4  -9   11.60    1.60
 -10   4  -9    8.20    1.50
  10  -4   9    7.80    1.60
 -11   4  -9    9.80    1.60
 -11   4  -9    7.80    1.60
  11  -4   9   11.70    2.00
 -12   4  -9    0.40    1.50
 -12   4  -9    1.70    1.50
  12  -4   9    2.20    1.40
 -13   4  -9    3.50    2.80
 -13   4  -9   -0.70    1.50
  13  -4   9    1.20    2.20
  11   3  -9    1.10    1.30
 -11  -3   9    2.60    1.30
  10   3  -9    0.10    1.10
 -10  -3   9    1.00    1.30
 -10  -3   9    0.40    1.10
   9   3  -9    0.00    0.90
  -9  -3   9    1.00    1.00
   8   3  -9    0.40    1.00
  -8  -3   9    1.40    1.00
  -8  -3   9    2.20    1.00
   7   3  -9   44.60    2.70
  -7  -3   9   54.49    2.80
  -7  -3   9   44.20    2.70
   6   3  -9   69.09    3.60
  -6  -3   9   75.49    3.60
  -6  -3   9   68.89    3.50
   5   3  -9   20.30    1.80
  -5  -3   9   20.90    1.60
  -5  -3   9   17.60    1.60
   4   3  -9   14.30    1.50
  -4  -3   9   13.90    1.40
  -4  -3   9   15.00    1.30
   3   3  -9   30.40    2.00
  -3  -3   9   26.70    1.90
   2   3  -9   59.79    3.10
  -2  -3   9   57.59    2.80
  -2  -3   9   56.39    3.00
   1   3  -9   21.70    1.50
   1   3  -9   27.40    1.90
  -1  -3   9   25.60    1.50
  -1  -3   9   25.60    1.70
   0   3  -9    3.40    0.70
   0   3  -9    1.70    0.90
   0  -3   9    1.40    0.80
   0  -3   9    3.30    0.70
  -1   3  -9    8.50    1.20
  -1   3  -9    7.00    0.90
   1  -3   9    9.40    1.00
   1  -3   9    8.20    1.10
  -2   3  -9   34.80    2.20
  -2   3  -9   34.20    1.90
   2  -3   9   35.30    2.20
   2  -3   9   37.20    1.90
  -3   3  -9    0.60    0.70
  -3   3  -9   -0.20    0.60
   3  -3   9   -0.60    0.70
  -4   3  -9    9.90    1.30
  -4   3  -9    9.70    1.00
  -4   3  -9    9.20    1.00
   4  -3   9    8.40    1.30
  -5   3  -9   28.40    2.00
  -5   3  -9   33.70    1.90
   5  -3   9   27.00    2.20
  -6   3  -9   12.80    1.40
  -6   3  -9   14.50    1.50
   6  -3   9   11.50    1.50
  -7   3  -9    6.60    1.10
  -7   3  -9    5.40    1.00
   7  -3   9    5.60    1.30
  -8   3  -9    0.20    0.90
  -8   3  -9    0.60    0.90
   8  -3   9    1.00    1.10
  -9   3  -9    1.40    1.00
  -9   3  -9    0.10    0.90
   9  -3   9    0.60    1.70
 -10   3  -9    1.00    1.00
 -10   3  -9    4.10    1.20
  10  -3   9   -0.50    1.20
 -11   3  -9    0.30    1.10
 -11   3  -9   -0.60    1.20
  11  -3   9    0.00    1.30
 -12   3  -9    1.10    1.20
  12  -3   9   -0.90    1.30
 -13   3  -9    3.70    1.50
 -13   3  -9    6.80    1.50
  13  -3   9    8.20    1.90
  12   2  -9    4.40    1.40
 -12  -2   9    4.90    1.60
  11   2  -9    7.20    1.30
 -11  -2   9    8.50    1.60
  10   2  -9    9.30    1.40
 -10  -2   9    5.40    1.30
 -10  -2   9   10.40    1.50
   9   2  -9    5.60    1.10
  -9  -2   9    6.60    1.20
  -9  -2   9    4.80    1.20
   8   2  -9   10.00    1.40
  -8  -2   9    6.40    1.10
  -8  -2   9    7.20    1.30
   7   2  -9    7.60    1.20
  -7  -2   9    8.90    1.20
  -7  -2   9    7.30    1.10
   6   2  -9    0.30    0.70
  -6  -2   9    0.30    0.80
  -6  -2   9    1.70    0.70
   5   2  -9   20.40    1.70
  -5  -2   9   22.10    1.60
  -5  -2   9   20.50    1.70
   4   2  -9   31.60    2.00
  -4  -2   9   32.10    1.90
  -4  -2   9   32.10    2.00
   3   2  -9    3.30    0.80
   3   2  -9    3.70    1.00
  -3  -2   9    4.30    0.70
  -3  -2   9    3.60    0.80
   2   2  -9   -0.50    0.50
   2   2  -9    1.40    0.70
  -2  -2   9    0.90    0.50
  -2  -2   9    0.00    0.60
   1   2  -9   37.50    2.20
  -1  -2   9   33.50    2.00
  -1  -2   9   35.40    1.80
   0   2  -9   16.20    1.10
   0   2  -9   14.90    1.40
   0  -2   9   16.50    1.10
   0  -2   9   16.70    1.40
  -1   2  -9    2.60    0.50
  -1   2  -9    3.20    0.80
   1  -2   9    2.40    0.60
   1  -2   9    3.20    0.80
  -2   2  -9   15.40    1.10
  -2   2  -9   20.20    1.50
   2  -2   9   17.60    1.20
   2  -2   9   16.90    1.50
  -3   2  -9  101.19    4.30
  -3   2  -9   92.09    4.20
  -3   2  -9  102.19    4.60
   3  -2   9   97.89    4.50
  -4   2  -9   10.40    1.30
  -4   2  -9    9.90    0.90
  -4   2  -9    9.80    1.00
   4  -2   9   10.60    1.30
  -5   2  -9    4.30    0.70
  -5   2  -9    5.70    1.00
  -5   2  -9    5.60    0.90
   5  -2   9    5.20    1.10
  -6   2  -9    2.40    0.90
  -6   2  -9    2.30    0.80
  -6   2  -9    1.20    0.70
   6  -2   9    1.50    0.80
  -7   2  -9    4.90    0.90
  -7   2  -9    5.30    1.20
   7  -2   9    6.00    1.30
  -8   2  -9   12.00    1.50
  -8   2  -9   13.50    1.40
   8  -2   9   12.60    1.70
  -9   2  -9    1.00    0.90
  -9   2  -9    0.90    0.90
   9  -2   9    1.30    1.00
 -10   2  -9    0.60    0.90
 -10   2  -9    0.40    1.00
  10  -2   9    1.90    1.30
 -11   2  -9   40.90    2.60
 -11   2  -9   37.50    2.60
  11  -2   9   38.10    3.00
 -12   2  -9    1.20    1.20
 -12   2  -9    2.70    1.20
  12  -2   9    3.60    1.60
 -13   2  -9    1.30    1.30
 -13   2  -9   -0.30    1.20
  13  -2   9    0.40    1.40
 -14   2  -9    4.10    1.70
 -14   2  -9    8.10    1.50
  14  -2   9    4.20    1.90
 -12  -1   9    2.50    1.30
 -12  -1   9    3.60    1.40
  11   1  -9    9.90    1.20
 -11  -1   9   10.50    1.60
 -11  -1   9    7.30    1.50
  10   1  -9    6.10    1.10
 -10  -1   9    4.50    1.20
   9   1  -9   14.70    1.40
  -9  -1   9   16.60    1.60
  -9  -1   9   14.60    1.80
   8   1  -9    1.10    0.90
  -8  -1   9    1.80    0.80
  -8  -1   9    1.30    0.90
   7   1  -9   72.59    3.50
  -7  -1   9   67.89    3.60
  -7  -1   9   72.59    3.50
   6   1  -9   30.20    2.00
  -6  -1   9   29.00    2.00
  -6  -1   9   29.60    1.90
   5   1  -9    6.70    1.10
  -5  -1   9    6.30    1.20
  -5  -1   9    4.30    0.90
   4   1  -9    6.20    0.90
   4   1  -9    5.80    1.00
  -4  -1   9    7.10    0.80
  -4  -1   9    4.90    0.90
   3   1  -9   14.70    1.10
   3   1  -9   16.50    1.40
  -3  -1   9   15.90    1.30
  -3  -1   9   15.90    1.10
   2   1  -9   13.80    1.30
   2   1  -9   12.30    1.00
  -2  -1   9   13.90    1.20
  -2  -1   9   13.50    1.00
   1   1  -9   14.60    1.00
   1   1  -9   14.90    1.30
  -1  -1   9   15.70    1.30
  -1  -1   9   14.00    1.00
   0   1  -9   63.89    3.00
   0   1  -9   58.59    2.60
   0  -1   9   59.19    2.90
   0  -1   9   59.09    2.60
  -1   1  -9   16.70    1.40
  -1   1  -9   17.50    1.00
   1  -1   9   17.50    1.40
   1  -1   9   16.80    1.00
  -2   1  -9   26.20    1.80
  -2   1  -9   26.30    1.40
   2  -1   9   28.60    1.80
  -3   1  -9  152.38    6.50
  -3   1  -9  165.78    7.00
  -3   1  -9  162.88    6.60
   3  -1   9  158.58    6.80
  -4   1  -9    5.20    0.70
  -4   1  -9    5.80    1.00
  -4   1  -9    6.30    0.70
   4  -1   9    7.40    1.10
  -5   1  -9   12.00    1.40
  -5   1  -9   10.50    1.00
  -5   1  -9   13.20    1.00
   5  -1   9   10.30    1.30
  -6   1  -9    8.20    1.20
  -6   1  -9    8.70    1.00
   6  -1   9    8.70    1.30
  -7   1  -9   12.80    1.20
  -7   1  -9   14.40    1.40
  -7   1  -9   14.30    1.30
   7  -1   9   13.80    1.60
  -8   1  -9   15.50    1.60
  -8   1  -9   14.30    1.30
   8  -1   9   15.10    1.70
  -9   1  -9   26.20    1.90
  -9   1  -9   24.50    1.70
   9  -1   9   20.90    2.10
 -10   1  -9   21.30    1.80
 -10   1  -9   19.20    1.70
  10  -1   9   19.50    2.10
 -11   1  -9   13.10    1.50
 -11   1  -9   12.90    1.60
  11  -1   9   13.00    1.90
 -12   1  -9    1.30    1.10
 -12   1  -9    2.90    1.10
  12  -1   9    2.50    1.40
 -13   1  -9    2.90    1.40
 -13   1  -9    3.50    1.30
  13  -1   9    6.20    1.70
 -14   1  -9    1.40    1.30
 -14   1  -9    0.60    1.30
  14  -1   9    0.50    1.60
 -12   0   9   -0.30    1.20
 -12   0   9   -0.90    1.30
  11   0  -9    1.10    0.90
 -11   0   9    2.00    1.10
 -11   0   9    0.40    1.10
  10   0  -9    1.40    0.80
 -10   0   9    0.30    0.80
 -10   0   9    0.80    1.10
   9   0  -9    0.70    0.70
  -9   0   9    0.20    0.90
  -9   0   9    1.10    0.80
   8   0  -9    0.80    1.20
  -8   0   9    0.50    0.80
  -8   0   9    0.60    0.70
   7   0  -9    6.70    1.80
  -7   0   9    5.60    0.90
  -7   0   9    5.60    1.10
   6   0  -9    4.60    1.00
  -6   0   9    4.40    0.80
  -6   0   9    5.30    1.10
   5   0  -9   11.50    1.50
  -5   0   9   10.40    1.00
  -5   0   9   11.20    1.30
   4   0  -9    0.60    0.70
   4   0  -9    0.40    0.50
  -4   0   9   -0.20    0.60
  -4   0   9    1.40    0.50
   3   0  -9    4.60    0.70
   3   0  -9    5.10    0.90
  -3   0   9    4.90    0.80
  -3   0   9    3.90    0.50
   2   0  -9   29.90    1.90
   2   0  -9   28.40    1.50
  -2   0   9   32.70    1.80
  -2   0   9   28.70    1.50
   1   0  -9   10.40    1.10
   1   0  -9   11.50    0.80
  -1   0   9   13.40    1.10
  -1   0   9   10.90    0.70
   0   0  -9   77.79    3.60
   0   0  -9   75.69    3.20
   0   0   9   77.29    3.60
   0   0   9   76.19    3.20
  -1   0  -9   94.29    4.20
  -1   0  -9   88.99    3.70
   1   0   9   88.09    3.70
   1   0   9   89.49    4.10
  -2   0  -9   72.69    3.40
  -2   0  -9   66.39    2.90
   2   0   9   68.49    3.20
  -3   0  -9  176.98    7.10
  -3   0  -9  169.28    7.10
  -3   0  -9  182.18    7.60
   3   0   9  183.38    7.50
  -4   0  -9   18.50    1.10
  -4   0  -9   18.80    1.10
  -4   0  -9   22.90    1.50
   4   0   9   18.60    1.50
  -5   0  -9   -0.10    0.60
  -5   0  -9   -0.40    0.40
  -5   0  -9   -0.40    0.40
   5   0   9    0.70    0.60
  -6   0  -9   42.50    2.10
  -6   0  -9   44.10    2.20
  -6   0  -9   46.10    2.50
   6   0   9   47.80    2.60
  -7   0  -9   11.40    1.00
  -7   0  -9   15.30    1.60
  -7   0  -9   10.00    1.30
   7   0   9   11.80    1.40
  -8   0  -9    7.20    0.90
  -8   0  -9    6.30    1.10
  -8   0  -9    6.00    0.90
   8   0   9    7.30    1.30
  -9   0  -9    1.80    0.90
   9   0   9   -0.40    1.00
 -10   0  -9    8.40    1.10
 -10   0  -9    7.40    1.30
  10   0   9    9.20    1.50
 -11   0  -9   49.99    2.80
 -11   0  -9   48.50    3.00
  11   0   9   49.10    3.30
 -12   0  -9    2.70    1.20
 -12   0  -9    2.90    1.10
  12   0   9    5.60    1.50
 -13   0  -9    4.20    1.30
 -13   0  -9    3.80    1.20
  13   0   9    3.90    1.50
 -14   0  -9    3.00    1.40
 -14   0  -9    1.90    1.30
  14   0   9    0.70    1.70
 -15   0  -9    2.80    1.40
 -15   0  -9    0.20    1.50
  15   0   9    2.10    1.90
 -13   1   9    5.20    1.50
 -13   1   9    5.60    1.80
 -12   1   9    4.90    1.60
 -12   1   9    4.00    1.30
  11  -1  -9    5.10    0.80
 -11   1   9    4.00    1.10
 -11   1   9    3.60    1.20
  10  -1  -9    7.10    1.00
 -10   1   9    5.10    1.30
 -10   1   9    5.20    1.10
   9  -1  -9    2.10    0.80
  -9   1   9    3.40    1.10
  -9   1   9    2.50    1.00
  -9   1   9    1.30    0.80
   8  -1  -9   26.10    1.70
  -8   1   9   28.40    2.10
  -8   1   9   26.50    2.10
  -8   1   9   24.50    1.80
   7  -1  -9   43.00    2.30
  -7   1   9   47.30    2.70
  -7   1   9   43.90    2.40
   6  -1  -9   54.09    2.60
  -6   1   9   47.40    2.80
  -6   1   9   49.30    2.80
   5  -1  -9    1.90    0.70
   5  -1  -9    2.10    0.70
  -5   1   9    2.80    0.60
  -5   1   9    2.50    0.80
   4  -1  -9    5.80    0.80
   4  -1  -9    5.90    0.90
  -4   1   9    6.30    1.00
  -4   1   9    5.70    0.70
   3  -1  -9   22.50    1.30
   3  -1  -9   24.70    1.50
  -3   1   9   21.40    1.20
  -3   1   9   22.80    1.60
   2  -1  -9    2.60    0.70
   2  -1  -9    3.60    0.50
  -2   1   9    3.00    0.70
  -2   1   9    2.20    0.40
   1  -1  -9    5.30    0.80
   1  -1  -9    5.00    0.50
  -1   1   9    4.60    0.50
  -1   1   9    5.60    0.90
   0  -1  -9    1.80    0.30
   0  -1  -9    1.70    0.70
   0   1   9    1.00    0.90
   0   1   9    1.60    0.30
  -2  -1  -9    4.00    0.90
   2   1   9    4.30    0.90
  -3  -1  -9    4.20    0.40
  -3  -1  -9    3.80    0.80
   3   1   9    5.70    0.90
  -4  -1  -9   30.70    1.60
  -4  -1  -9   36.30    1.60
  -4  -1  -9   33.30    2.00
   4   1   9   32.20    1.90
  -5  -1  -9   40.10    2.20
  -5  -1  -9   38.40    1.80
  -5  -1  -9   36.90    1.80
   5   1   9   38.80    2.20
  -6  -1  -9    2.10    0.50
  -6  -1  -9    0.80    0.50
  -6  -1  -9    0.90    0.40
   6   1   9    0.60    0.70
  -7  -1  -9   40.00    2.10
  -7  -1  -9   42.20    2.40
  -7  -1  -9   41.40    2.10
   7   1   9   44.10    2.50
  -8  -1  -9   14.20    1.50
  -8  -1  -9   16.80    1.20
  -8  -1  -9   16.90    1.40
   8   1   9   14.90    1.60
  -9  -1  -9   37.50    2.10
  -9  -1  -9   39.50    2.40
   9   1   9   41.50    2.60
 -10  -1  -9   14.00    1.60
 -10  -1  -9   14.40    1.40
  10   1   9   13.40    1.70
 -11  -1  -9    3.80    1.00
 -11  -1  -9    5.10    1.10
  11   1   9    3.80    1.40
 -12  -1  -9   -0.30    1.00
 -12  -1  -9    0.70    1.10
 -13  -1  -9    3.30    1.30
 -13  -1  -9    2.90    1.20
  13   1   9    1.40    1.50
 -14  -1  -9    0.60    1.20
 -14  -1  -9   -0.50    1.20
  14   1   9    1.20    1.60
 -15  -1  -9    5.60    1.60
 -15  -1  -9    5.60    1.50
  15   1   9    8.00    1.90
 -13   2   9   -1.30    1.40
 -13   2   9    0.00    1.30
 -12   2   9    1.50    1.30
 -12   2   9    2.30    1.20
 -11   2   9    1.00    1.00
 -11   2   9   -0.30    1.10
  10  -2  -9    8.40    0.80
 -10   2   9    6.60    1.50
   9  -2  -9   30.10    1.70
  -9   2   9   23.90    2.00
  -9   2   9   30.30    2.30
  -9   2   9   30.60    2.00
   8  -2  -9   21.00    1.40
  -8   2   9   24.00    1.60
  -8   2   9   22.30    1.90
  -8   2   9   18.40    1.40
   7  -2  -9   91.69    3.90
  -7   2   9   90.09    4.40
  -7   2   9   78.09    3.90
  -7   2   9   88.59    4.00
   6  -2  -9   54.09    2.60
  -6   2   9   47.40    2.50
  -6   2   9   53.99    2.60
  -6   2   9   54.59    3.00
   5  -2  -9  295.17   11.60
   5  -2  -9  273.07   11.40
  -5   2   9  253.77   11.50
  -5   2   9  286.57   11.50
  -5   2   9  302.77   11.90
   4  -2  -9   43.40    2.20
   4  -2  -9   40.40    2.10
  -4   2   9   44.60    2.00
  -4   2   9   39.50    2.10
  -4   2   9   43.60    2.40
   3  -2  -9    1.10    0.40
   3  -2  -9    1.00    0.60
  -3   2   9    0.20    0.50
  -3   2   9    0.60    0.40
  -3   2   9    0.40    0.60
   2  -2  -9    6.40    0.60
   2  -2  -9    7.70    1.00
  -2   2   9    4.70    0.50
  -2   2   9    4.70    0.80
   1  -2  -9   18.40    1.30
   1  -2  -9   16.80    0.90
  -1   2   9   18.20    0.90
   0  -2  -9    4.70    0.80
   0   2   9    6.40    0.90
  -1  -2  -9   39.60    2.20
   1   2   9   40.90    2.10
  -2  -2  -9   71.99    3.40
   2   2   9   69.89    3.30
   3   2   9   54.09    3.00
  -4  -2  -9    4.00    0.80
   4   2   9    6.50    1.00
  -5  -2  -9   -0.10    0.50
  -5  -2  -9    0.60    0.40
  -5  -2  -9    0.80    0.40
   5   2   9    0.90    0.60
  -6  -2  -9    2.40    0.60
  -6  -2  -9    1.90    0.40
  -6  -2  -9    1.30    0.70
   6   2   9    2.00    0.70
  -7  -2  -9   23.30    1.40
  -7  -2  -9   23.60    1.70
   7   2   9   23.30    1.70
  -8  -2  -9    4.30    1.00
  -8  -2  -9    4.80    0.80
   8   2   9    2.70    0.80
   8   2   9    3.40    1.00
  -9  -2  -9    2.80    0.70
  -9  -2  -9    0.80    0.80
   9   2   9    1.40    1.00
 -10  -2  -9   -1.10    0.70
 -10  -2  -9   -0.10    0.80
  10   2   9   -0.30    0.90
 -11  -2  -9    3.80    1.00
 -11  -2  -9    3.60    1.10
  11   2   9    5.40    1.30
 -12  -2  -9    2.40    1.10
 -12  -2  -9    0.60    1.00
  12   2   9    4.90    1.30
 -13  -2  -9   -1.60    1.00
 -13  -2  -9    0.80    1.10
  13   2   9    0.60    1.50
 -14  -2  -9    5.50    1.40
  14   2   9    2.30    1.50
 -15  -2  -9   -1.30    1.30
 -15  -2  -9    0.20    1.20
  15   2   9    3.10    1.70
 -13   3   9    0.10    1.40
 -13   3   9    2.10    1.20
 -12   3   9    0.60    1.30
 -12   3   9   -1.00    0.90
 -11   3   9    3.50    1.20
 -10   3   9    1.50    0.90
   9  -3  -9    1.00    0.50
  -9   3   9    0.90    0.60
  -9   3   9    1.30    0.80
  -9   3   9    1.10    1.00
   8  -3  -9    5.90    0.80
  -8   3   9    5.00    0.80
  -8   3   9    5.30    1.00
  -8   3   9    6.00    1.30
   7  -3  -9    5.40    0.80
  -7   3   9    6.10    0.90
  -7   3   9    4.30    1.10
   6  -3  -9   12.40    1.10
  -6   3   9   12.40    1.40
  -6   3   9   11.30    1.00
  -6   3   9   13.40    1.10
   5  -3  -9   62.79    3.00
   5  -3  -9   65.59    3.00
  -5   3   9   58.69    2.90
  -5   3   9   65.99    2.90
  -5   3   9   65.29    3.30
   4  -3  -9    6.10    0.70
   4  -3  -9    7.20    0.90
  -4   3   9    7.60    0.80
  -4   3   9    6.70    0.80
  -4   3   9    9.20    1.10
   3  -3  -9    6.90    0.90
   3  -3  -9    4.20    0.60
  -3   3   9    5.60    0.70
  -3   3   9    5.80    0.60
  -3   3   9    7.80    1.10
   2  -3  -9    6.10    0.60
   2  -3  -9    7.80    0.90
  -2   3   9    7.60    0.90
  -2   3   9    6.70    0.50
  -2   3   9    5.30    0.70
   1  -3  -9   68.39    3.10
  -1   3   9   59.89    3.20
  -1   3   9   67.19    2.70
  -1   3   9   65.99    3.80
   0  -3  -9   44.30    2.30
   0   3   9   45.60    2.30
  -1  -3  -9   11.70    1.00
   1   3   9   11.10    1.00
  -2  -3  -9   99.89    4.50
   2   3   9  101.59    4.40
  -3  -3  -9  113.19    5.40
   3   3   9  118.89    5.00
  -4  -3  -9   55.89    2.90
   4   3   9   53.19    2.70
  -5  -3  -9  100.19    4.60
   5   3   9  101.29    5.20
  -6  -3  -9    6.30    0.60
  -6  -3  -9    6.20    0.90
   6   3   9    6.20    0.90
   6   3   9    6.00    0.70
  -7  -3  -9    7.10    1.10
  -7  -3  -9    7.10    0.80
   7   3   9    7.30    0.80
   7   3   9    8.90    1.10
  -8  -3  -9  109.09    5.00
  -8  -3  -9  104.89    4.60
   8   3   9  100.09    4.90
   8   3   9  107.69    5.10
  -9  -3  -9   20.00    1.70
  -9  -3  -9   22.20    1.40
   9   3   9   19.50    1.80
   9   3   9   16.50    1.70
 -10  -3  -9   43.00    2.50
 -10  -3  -9   46.20    2.70
  10   3   9   49.60    2.90
 -11  -3  -9   12.90    1.40
 -11  -3  -9   16.80    1.60
  11   3   9   15.10    1.80
 -12  -3  -9    9.80    1.40
 -12  -3  -9   10.60    1.40
  12   3   9   10.40    1.60
 -13  -3  -9    3.00    1.10
 -13  -3  -9    6.30    1.30
  13   3   9    6.50    1.50
 -14  -3  -9   -0.20    1.20
 -14  -3  -9    0.40    2.10
  14   3   9   -0.80    1.40
 -15  -3  -9    3.50    1.30
 -15  -3  -9    3.00    1.50
  15   3   9    3.70    1.80
 -13   4   9   -0.80    1.50
 -13   4   9    2.90    1.30
 -12   4   9    3.10    1.20
 -12   4   9    5.20    1.50
 -11   4   9    0.90    1.20
 -11   4   9    2.60    1.70
 -10   4   9   25.00    2.40
 -10   4   9   24.90    1.90
   9  -4  -9   16.60    1.10
  -9   4   9   17.30    1.20
  -9   4   9   18.50    2.00
  -9   4   9   18.60    1.50
   8  -4  -9   29.20    1.60
  -8   4   9   28.20    1.90
  -8   4   9   28.40    1.60
  -8   4   9   31.10    2.40
   7  -4  -9   77.59    3.50
  -7   4   9   86.49    4.20
  -7   4   9   71.69    3.40
  -7   4   9   79.09    3.70
   6  -4  -9   82.59    3.70
  -6   4   9   83.19    3.80
  -6   4   9   84.19    4.10
  -6   4   9   79.69    4.20
   5  -4  -9   28.80    1.60
   5  -4  -9   28.70    1.60
  -5   4   9   25.90    1.50
  -5   4   9   30.00    1.60
  -5   4   9   28.60    2.00
   4  -4  -9    3.20    0.50
   4  -4  -9    4.00    0.80
  -4   4   9    2.70    0.60
  -4   4   9    2.30    0.70
  -4   4   9    3.30    0.60
   3  -4  -9   50.59    2.50
   3  -4  -9   49.80    2.30
  -3   4   9   52.39    2.30
  -3   4   9   46.30    2.40
  -3   4   9   49.90    2.70
   2  -4  -9   38.90    2.00
  -2   4   9   36.60    1.70
  -2   4   9   35.10    1.90
  -2   4   9   36.40    1.70
  -2   4   9   36.50    2.10
   1  -4  -9   31.70    1.80
  -1   4   9   34.20    2.00
  -1   4   9   32.00    1.40
  -1   4   9   30.40    1.70
  -1   4   9   31.30    1.40
   0  -4  -9    6.00    0.90
   0   4   9    4.60    0.70
  -1  -4  -9   44.60    2.30
   1   4   9   43.60    2.20
  -2  -4  -9  207.08    8.70
   2   4   9  207.38    8.60
  -3  -4  -9   86.39    4.30
   3   4   9   84.69    3.80
  -4  -4  -9   19.40    1.40
   4   4   9   19.40    1.30
  -5  -4  -9    8.50    1.10
   5   4   9    7.90    0.70
   5   4   9    9.10    1.00
  -6  -4  -9    4.70    0.90
  -6  -4  -9    3.40    0.50
   6   4   9    3.00    0.50
  -7  -4  -9    1.30    0.50
  -7  -4  -9    0.00    0.60
   7   4   9    0.00    0.50
   7   4   9    1.10    0.70
  -8  -4  -9    0.90    0.80
  -8  -4  -9    1.80    0.60
   8   4   9   -0.50    0.70
   8   4   9    0.40    0.80
  -9  -4  -9    4.30    0.90
  -9  -4  -9    4.90    0.90
   9   4   9    6.00    1.20
 -10  -4  -9    2.30    0.90
 -10  -4  -9    0.60    0.70
  10   4   9    0.70    1.00
 -11  -4  -9    4.00    1.00
 -11  -4  -9    3.60    1.00
  11   4   9    4.00    1.20
 -12  -4  -9   11.80    1.40
 -12  -4  -9   10.00    1.60
  12   4   9   14.20    1.70
 -13  -4  -9    2.30    1.20
 -13  -4  -9    0.90    1.10
  13   4   9    3.00    1.40
 -14  -4  -9    4.40    1.40
  14   4   9    5.90    1.70
 -15  -4  -9    8.80    1.80
 -15  -4  -9    8.00    1.60
  15   4   9    9.50    2.00
 -13   5   9    2.00    1.50
 -13   5   9    4.30    1.40
 -12   5   9    1.70    1.40
 -12   5   9    1.60    1.00
 -11   5   9    9.60    1.40
 -11   5   9    7.90    1.80
 -10   5   9    6.00    1.50
 -10   5   9   10.90    1.50
  -9   5   9    2.20    0.80
  -9   5   9    1.30    1.00
   8  -5  -9    0.60    0.50
  -8   5   9    0.10    0.50
  -8   5   9    0.70    0.70
  -8   5   9    0.50    0.80
   7  -5  -9   -0.60    0.50
  -7   5   9    0.10    0.80
  -7   5   9    0.80    0.60
  -7   5   9    1.10    0.50
   6  -5  -9    2.80    0.70
  -6   5   9    2.80    0.70
  -6   5   9    2.00    0.90
  -6   5   9    2.80    0.60
   5  -5  -9   27.10    1.60
   5  -5  -9   26.10    1.60
  -5   5   9   22.20    1.50
  -5   5   9   28.50    1.60
  -5   5   9   30.30    2.00
   4  -5  -9   48.40    2.50
  -4   5   9   50.69    2.70
  -4   5   9   45.80    2.30
  -4   5   9   51.79    2.40
   3  -5  -9  247.68    9.50
  -3   5   9  225.58    9.30
  -3   5   9  233.18    9.30
  -3   5   9  211.18    9.40
  -3   5   9  230.78    9.70
   2  -5  -9    2.90    0.70
  -2   5   9    2.40    0.60
  -2   5   9    3.50    0.60
  -2   5   9    3.40    0.40
  -2   5   9    3.30    0.50
   1  -5  -9   17.30    1.30
  -1   5   9   18.80    1.90
  -1   5   9   16.50    1.20
  -1   5   9   18.70    1.00
  -1   5   9   17.80    0.90
   0  -5  -9   50.29    2.50
   0   5   9   46.50    2.40
   0   5   9   45.90    1.90
   0   5   9   46.60    2.00
  -1  -5  -9   23.00    1.50
   1   5   9   21.70    1.40
  -2  -5  -9   47.60    2.50
   2   5   9   48.80    2.40
  -3  -5  -9   49.99    2.90
   3   5   9   56.19    2.60
  -4  -5  -9   11.20    0.60
  -4  -5  -9   10.50    1.10
   4   5   9   10.70    1.00
  -5  -5  -9  107.89    4.50
  -5  -5  -9  114.29    5.10
   5   5   9  107.29    4.60
   5   5   9  114.99    4.80
  -6  -5  -9    4.30    0.90
  -6  -5  -9    7.00    0.70
   6   5   9    8.00    0.80
   6   5   9    7.00    0.80
  -7  -5  -9    2.10    0.70
  -7  -5  -9    2.50    0.60
   7   5   9    1.70    0.60
   7   5   9    2.40    1.50
  -8  -5  -9   26.50    1.50
  -8  -5  -9   23.90    1.80
   8   5   9   24.90    1.70
   8   5   9   20.10    1.50
  -9  -5  -9   28.20    2.10
  -9  -5  -9   30.90    1.90
   9   5   9   33.90    2.10
 -10  -5  -9    0.70    0.80
 -10  -5  -9    0.20    0.80
  10   5   9    1.10    0.90
 -11  -5  -9   16.80    1.60
 -11  -5  -9   16.80    1.70
  11   5   9   17.70    1.90
 -12  -5  -9    3.70    1.20
 -12  -5  -9    5.80    1.20
  12   5   9    5.70    1.40
 -13  -5  -9    3.70    1.20
 -13  -5  -9    3.40    1.40
  13   5   9    4.40    1.40
 -14  -5  -9   -0.20    1.30
 -14  -5  -9   -0.30    2.00
  14   5   9    1.20    1.50
 -15  -5  -9   -0.40    1.70
 -15  -5  -9   -3.50    1.30
  15   5   9    2.10    1.70
 -13   6   9   14.10    2.40
 -13   6   9   15.70    2.00
 -12   6   9    7.40    1.40
 -12   6   9    7.30    1.90
 -11   6   9   11.70    1.50
 -10   6   9   26.60    2.00
 -10   6   9   20.20    2.50
  -9   6   9   13.60    1.50
  -8   6   9    9.00    1.50
  -8   6   9    6.10    0.70
  -8   6   9    7.20    1.10
   7  -6  -9    4.50    0.70
  -7   6   9    5.80    0.90
  -7   6   9    3.80    0.60
  -7   6   9    5.10    1.20
   6  -6  -9   35.50    1.80
  -6   6   9   27.40    1.60
  -6   6   9   32.30    1.90
  -6   6   9   33.10    2.30
   5  -6  -9   71.49    3.30
  -5   6   9   74.09    3.70
  -5   6   9   61.19    3.10
  -5   6   9   73.89    3.30
   4  -6  -9   51.49    2.40
  -4   6   9   48.10    2.30
  -4   6   9   44.50    2.30
  -4   6   9   48.40    2.70
  -4   6   9   44.10    2.30
   3  -6  -9  130.09    5.50
  -3   6   9  132.79    5.80
  -3   6   9  125.39    5.30
  -3   6   9  116.69    5.40
  -3   6   9  131.59    5.40
   2  -6  -9   18.80    1.30
  -2   6   9   18.30    1.10
  -2   6   9   16.90    1.40
  -2   6   9   17.90    1.10
  -2   6   9   18.90    1.20
   1  -6  -9  175.38    7.40
  -1   6   9  181.68    7.10
  -1   6   9  167.68    7.00
   0  -6  -9   27.30    1.70
   0   6   9   28.70    1.70
   0   6   9   29.10    1.30
   0   6   9   27.20    1.30
  -1  -6  -9    9.10    1.00
   1   6   9   10.30    0.90
   1   6   9    7.90    0.60
  -2  -6  -9   20.80    1.60
   2   6   9   20.90    1.30
  -3  -6  -9   35.20    2.10
  -3  -6  -9   33.20    2.00
   3   6   9   35.60    1.90
   3   6   9   34.00    1.60
  -4  -6  -9   47.20    2.00
  -4  -6  -9   45.30    2.50
  -4  -6  -9   43.90    2.40
   4   6   9   49.00    2.30
   4   6   9   46.10    2.10
  -5  -6  -9   67.59    2.90
  -5  -6  -9   60.49    3.20
  -5  -6  -9   68.89    3.40
   5   6   9   65.99    2.90
   5   6   9   74.69    3.20
  -6  -6  -9   16.40    1.10
  -6  -6  -9   14.50    1.40
   6   6   9   17.10    1.20
   6   6   9   15.50    1.10
  -7  -6  -9    8.00    0.90
  -7  -6  -9    7.20    1.10
   7   6   9   11.30    1.60
   7   6   9    7.90    1.00
  -8  -6  -9   -0.30    0.70
  -8  -6  -9    0.80    0.60
   8   6   9    0.60    0.70
   8   6   9   -0.30    1.30
  -9  -6  -9    7.30    1.10
  -9  -6  -9    7.80    1.30
   9   6   9    7.80    1.10
 -10  -6  -9   29.90    2.30
 -10  -6  -9   30.70    2.00
  10   6   9   32.90    2.10
 -11  -6  -9    6.10    1.20
 -11  -6  -9    5.50    1.30
  11   6   9    5.50    1.20
 -12  -6  -9   24.70    2.00
 -12  -6  -9   23.90    2.20
  12   6   9   25.20    2.20
 -13  -6  -9    4.30    1.30
 -13  -6  -9    4.80    1.50
  13   6   9    5.40    1.50
 -14  -6  -9    4.40    1.50
 -14  -6  -9    5.50    1.30
  14   6   9    4.30    1.50
 -15  -6  -9    2.80    1.50
 -15  -6  -9    3.20    1.60
  15   6   9    2.90    2.20
 -12   7   9    5.80    1.40
 -12   7   9    5.40    1.80
 -11   7   9    0.70    1.30
 -11   7   9    1.40    1.00
 -10   7   9    7.20    1.70
 -10   7   9    6.40    1.20
  -9   7   9    1.70    1.10
  -9   7   9    3.40    0.90
  -8   7   9    5.10    0.60
  -8   7   9    5.60    1.00
  -8   7   9    4.00    1.20
   7  -7  -9    2.00    0.60
  -7   7   9    1.50    1.00
  -7   7   9    0.20    0.50
  -7   7   9    0.40    0.60
   6  -7  -9    7.00    0.90
  -6   7   9    7.10    1.30
  -6   7   9    9.60    1.10
   5  -7  -9    7.20    0.90
  -5   7   9    7.70    0.90
  -5   7   9    5.30    1.20
  -5   7   9    7.30    0.80
   4  -7  -9   23.80    1.50
  -4   7   9   21.00    1.40
  -4   7   9   23.20    1.40
  -4   7   9   21.20    1.80
  -4   7   9   22.20    1.40
   3  -7  -9  163.78    6.90
  -3   7   9  157.38    6.80
  -3   7   9  164.98    6.70
  -3   7   9  145.09    6.70
  -3   7   9  166.18    7.10
   2  -7  -9   54.09    2.80
  -2   7   9   54.99    2.80
  -2   7   9   56.19    2.60
  -2   7   9   54.09    2.50
   1  -7  -9    3.80    0.80
  -1   7   9    2.70    0.50
  -1   7   9    2.90    0.50
  -1   7   9    2.40    0.60
   0  -7  -9  187.58    8.50
   0   7   9  201.68    7.90
   0   7   9  201.58    8.20
   0   7   9  188.88    7.90
  -1  -7  -9   27.00    1.80
   1   7   9   27.60    1.60
   1   7   9   23.60    1.30
  -2  -7  -9   64.09    2.80
  -2  -7  -9   66.19    3.30
   2   7   9   60.19    2.70
   2   7   9   68.59    3.00
  -3  -7  -9  175.28    7.40
  -3  -7  -9  163.48    7.20
  -3  -7  -9  170.78    6.80
   3   7   9  175.68    7.10
   3   7   9  160.78    6.80
  -4  -7  -9   62.49    2.70
  -4  -7  -9   62.59    3.20
  -4  -7  -9   61.39    3.00
   4   7   9   64.69    2.90
   4   7   9   59.49    2.70
  -5  -7  -9   16.90    1.40
  -5  -7  -9   15.20    1.40
  -5  -7  -9   18.20    1.10
   5   7   9   21.30    1.30
   5   7   9   19.00    1.10
  -6  -7  -9   11.80    1.00
  -6  -7  -9   12.10    1.50
  -6  -7  -9   10.90    1.20
   6   7   9   10.20    1.00
   6   7   9   12.00    1.10
  -7  -7  -9   45.10    2.20
  -7  -7  -9   41.20    2.50
  -7  -7  -9   34.30    2.20
   7   7   9   39.90    2.10
   7   7   9   44.80    2.20
  -8  -7  -9    3.90    1.00
  -8  -7  -9    4.00    0.90
   8   7   9    2.50    0.80
  -9  -7  -9    1.10    0.80
  -9  -7  -9    2.30    1.00
   9   7   9    2.80    1.10
 -10  -7  -9    1.70    0.90
 -10  -7  -9    0.60    1.00
  10   7   9    0.80    0.90
 -11  -7  -9    7.20    1.50
 -11  -7  -9    8.00    1.30
  11   7   9    4.40    1.20
 -12  -7  -9   -0.90    1.00
 -12  -7  -9   -2.40    1.00
  12   7   9    0.90    1.10
 -13  -7  -9    8.90    1.50
 -13  -7  -9    9.20    1.80
  13   7   9   11.30    1.60
 -14  -7  -9   -0.40    1.20
 -14  -7  -9    2.00    1.50
  14   7   9    3.10    1.50
 -15  -7  -9   -2.10    1.30
  15   7   9   -0.40    1.80
  15   7   9    1.80    1.70
 -12   8   9    2.90    1.20
 -12   8   9    4.20    1.70
 -11   8   9    4.70    1.70
 -11   8   9    2.90    1.10
 -10   8   9   28.00    2.70
 -10   8   9   24.90    2.10
  -9   8   9   44.10    3.00
  -9   8   9   37.20    2.50
  -8   8   9   19.40    1.70
  -8   8   9   18.50    1.20
  -8   8   9   17.20    1.10
  -7   8   9   12.30    1.40
  -7   8   9   15.90    1.90
  -7   8   9    7.80    0.90
  -7   8   9    9.60    1.00
   6  -8  -9   21.50    1.40
  -6   8   9   22.80    1.60
  -6   8   9   19.40    1.30
  -6   8   9   25.50    2.10
   5  -8  -9    2.80    0.70
  -5   8   9    2.50    0.60
  -5   8   9    1.70    1.00
  -5   8   9    2.50    0.70
   4  -8  -9   31.20    1.90
  -4   8   9   31.80    2.10
  -4   8   9   31.20    1.80
   3  -8  -9   10.30    1.20
  -3   8   9    9.40    1.00
  -3   8   9    8.90    1.00
  -3   8   9    9.60    1.20
   2  -8  -9   24.80    1.70
  -2   8   9   23.60    1.40
  -2   8   9   22.60    1.40
  -2   8   9   23.80    1.70
   1  -8  -9    0.40    0.70
  -1   8   9    2.10    0.70
  -1   8   9    2.10    0.50
  -1   8   9    2.40    0.60
   0  -8  -9    8.60    1.20
   0   8   9    6.60    0.70
   0   8   9    8.40    0.90
   0   8   9    6.80    1.00
  -1  -8  -9   21.50    1.60
  -1  -8  -9   20.60    1.20
   1   8   9   21.70    1.40
   1   8   9   19.20    1.20
  -2  -8  -9    1.50    0.50
  -2  -8  -9    0.90    0.70
   2   8   9    0.20    0.40
   2   8   9    1.00    0.60
   2   8   9    1.20    0.50
  -3  -8  -9   12.30    0.90
  -3  -8  -9   12.30    1.30
   3   8   9   14.40    1.10
   3   8   9   11.30    0.90
   3   8   9   12.10    1.20
  -4  -8  -9   90.19    3.80
  -4  -8  -9   91.39    4.30
  -4  -8  -9   82.99    4.00
   4   8   9   81.99    3.80
   4   8   9   95.49    3.90
  -5  -8  -9   85.29    4.20
  -5  -8  -9   87.29    3.80
  -5  -8  -9   84.59    3.90
   5   8   9   86.29    3.80
  -6  -8  -9   24.60    1.50
  -6  -8  -9   21.30    1.80
  -6  -8  -9   22.40    1.60
   6   8   9   23.50    1.40
   6   8   9   21.70    1.40
  -7  -8  -9   23.60    1.50
  -7  -8  -9   23.50    1.90
  -7  -8  -9   19.10    1.60
   7   8   9   24.30    1.50
  -8  -8  -9    6.00    1.10
  -8  -8  -9    4.90    1.00
  -8  -8  -9    5.60    1.30
   8   8   9    7.50    1.00
  -9  -8  -9   18.90    1.90
  -9  -8  -9   28.70    1.90
  -9  -8  -9   25.80    2.10
   9   8   9   25.10    1.70
 -10  -8  -9   22.40    2.10
 -10  -8  -9   22.30    1.90
  10   8   9   23.40    1.70
 -11  -8  -9   12.90    1.80
 -11  -8  -9   15.70    1.70
  11   8   9   14.80    1.70
 -12  -8  -9    5.80    1.80
 -12  -8  -9    4.40    1.30
  12   8   9    4.60    1.10
 -13  -8  -9   16.20    2.10
  13   8   9   22.10    2.10
 -14  -8  -9    2.30    1.30
  14   8   9    1.30    1.50
  14   8   9    3.70    1.70
 -11   9   9   12.90    1.70
 -11   9   9   12.70    2.00
 -10   9   9    5.70    1.20
 -10   9   9    7.00    1.60
  -9   9   9   29.20    2.60
  -9   9   9   29.80    2.40
  -8   9   9   42.80    2.00
  -8   9   9   43.50    2.50
  -8   9   9   34.50    1.90
  -8   9   9   40.20    3.00
  -7   9   9   29.80    1.70
  -7   9   9   32.50    2.60
  -7   9   9   24.30    1.70
  -7   9   9   29.30    2.00
  -6   9   9    5.30    0.80
  -6   9   9    3.90    0.70
  -6   9   9    2.80    1.00
  -6   9   9    4.30    0.90
  -5   9   9   74.99    3.60
  -5   9   9   74.69    4.00
   4  -9  -9  100.59    4.70
  -4   9   9  103.99    5.10
  -4   9   9  105.59    4.70
   3  -9  -9   15.70    1.60
  -3   9   9   12.80    1.40
  -3   9   9   13.80    1.20
   2  -9  -9   18.00    1.50
  -2   9   9   19.00    1.50
  -2   9   9   15.60    1.30
   1  -9  -9   56.79    3.00
  -1   9   9   59.89    3.00
  -1   9   9   53.99    2.70
  -1   9   9   58.39    2.80
   0  -9  -9    2.30    0.70
   0   9   9    1.00    0.50
  -1  -9  -9    6.60    0.80
  -1  -9  -9    5.60    1.10
   1   9   9    5.50    0.80
   1   9   9    6.20    0.70
  -2  -9  -9   52.29    2.90
  -2  -9  -9   52.19    2.40
   2   9   9   52.09    2.70
   2   9   9   53.49    2.60
   2   9   9   46.50    2.40
  -3  -9  -9   18.80    1.20
  -3  -9  -9   18.30    1.60
   3   9   9   20.80    1.30
   3   9   9   17.90    1.50
   3   9   9   18.30    1.20
  -4  -9  -9    3.50    0.70
  -4  -9  -9    2.10    0.80
   4   9   9    3.30    0.60
   4   9   9    2.30    0.60
   4   9   9    2.20    0.80
  -5  -9  -9    1.70    0.60
  -5  -9  -9    1.60    0.80
   5   9   9    1.60    0.60
   5   9   9    2.00    0.60
  -6  -9  -9    6.80    1.20
  -6  -9  -9    7.20    0.90
   6   9   9    6.70    0.80
  -7  -9  -9   51.69    2.90
  -7  -9  -9   54.79    3.20
  -7  -9  -9   54.69    3.50
   7   9   9   54.39    2.60
  -8  -9  -9   -0.50    0.70
  -8  -9  -9   -0.60    1.00
  -8  -9  -9    2.10    1.10
   8   9   9    0.40    0.70
  -9  -9  -9    2.10    1.10
  -9  -9  -9    3.30    1.00
  -9  -9  -9    1.40    1.00
   9   9   9    3.20    0.80
 -10  -9  -9    2.40    1.10
 -10  -9  -9    0.80    1.20
 -10  -9  -9   -1.80    1.10
  10   9   9    0.60    0.80
 -11  -9  -9    3.80    1.20
  11   9   9    1.90    0.90
 -12  -9  -9    3.90    1.40
  12   9   9    4.20    1.10
 -13  -9  -9    4.40    1.40
  13   9   9    3.60    1.70
 -14  -9  -9    3.10    1.50
  14   9   9    5.80    2.20
 -11  10   9    6.20    1.80
 -11  10   9    3.30    1.30
 -10  10   9    0.40    1.00
  -9  10   9    1.40    1.20
  -9  10   9    0.90    1.00
  -8  10   9    1.20    0.80
  -8  10   9    1.60    0.70
  -8  10   9    1.20    1.00
  -7  10   9   12.40    1.30
  -7  10   9   12.30    1.90
  -7  10   9   13.00    1.10
  -7  10   9   14.00    1.60
  -6  10   9    5.50    1.40
  -6  10   9    8.70    1.10
  -6  10   9    8.30    1.20
  -5  10   9    6.70    1.10
  -5  10   9    7.70    1.10
  -5  10   9    8.30    1.40
  -4  10   9   13.30    1.30
  -4  10   9   11.20    1.50
  -4  10   9   13.20    1.40
  -3  10   9   16.90    1.60
  -3  10   9   20.30    1.50
   2 -10  -9   41.80    2.50
  -2  10   9   42.40    2.50
  -2  10   9   42.00    2.30
   1 -10  -9    1.10    0.70
  -1  10   9    0.10    0.60
  -1  10   9    0.10    0.70
   0 -10  -9    2.30    0.90
   0  10   9    0.90    0.60
  -1 -10  -9    1.30    0.70
  -1 -10  -9    1.60    0.80
   1  10   9    2.70    0.70
  -2 -10  -9  147.99    6.20
  -2 -10  -9  146.89    6.70
   2  10   9  135.19    6.60
   2  10   9  156.88    6.30
  -3 -10  -9   68.89    3.70
  -3 -10  -9   67.49    3.20
   3  10   9   72.09    3.20
   3  10   9   64.09    3.30
  -4 -10  -9  137.99    6.00
  -4 -10  -9  137.19    6.50
   4  10   9  147.09    5.90
   4  10   9  137.69    6.10
  -5 -10  -9  115.39    5.50
   5  10   9  115.29    4.90
  -6 -10  -9   45.20    2.30
  -6 -10  -9   42.60    2.70
   6  10   9   44.80    2.10
   6  10   9   34.70    2.20
  -7 -10  -9   99.99    4.80
  -7 -10  -9   97.19    4.30
   7  10   9   93.89    4.00
   7  10   9   80.99    4.10
  -8 -10  -9    1.60    1.00
  -8 -10  -9    0.20    0.80
   8  10   9    1.20    0.70
  -9 -10  -9    3.30    1.30
  -9 -10  -9    2.00    1.00
   9  10   9    4.20    0.80
 -10 -10  -9    3.10    1.30
 -10 -10  -9    2.30    1.10
  10  10   9    2.10    0.80
 -11 -10  -9   -0.10    1.10
  11  10   9    1.40    0.80
  11  10   9    3.00    1.50
 -12 -10  -9    2.90    1.40
  12  10   9    0.30    1.60
 -13 -10  -9    1.70    1.40
  13  10   9    3.30    1.70
 -10  11   9    6.80    1.50
  -9  11   9    5.00    1.20
  -8  11   9   20.60    1.90
  -8  11   9   19.60    2.40
  -8  11   9   19.90    1.50
  -7  11   9    2.80    1.30
  -7  11   9    1.30    0.90
  -6  11   9    7.80    1.20
  -6  11   9    8.70    1.30
  -6  11   9   10.90    1.80
  -5  11   9   15.90    1.80
  -5  11   9   14.90    1.50
  -5  11   9   16.80    1.60
  -4  11   9   33.30    2.40
  -4  11   9   29.80    2.10
  -4  11   9   29.30    2.00
  -3  11   9   19.60    1.70
  -3  11   9   20.70    1.80
  -3  11   9   20.20    1.70
  -2  11   9   25.80    1.80
  -2  11   9   26.40    2.00
  -2  11   9   26.60    2.00
  -1  11   9   96.09    4.70
  -1  11   9   89.69    4.30
  -1  11   9   94.09    4.40
   0 -11  -9    7.30    1.00
   0 -11  -9    6.10    1.20
   0  11   9    9.40    1.10
  -1 -11  -9    2.70    0.90
  -1 -11  -9    2.80    0.80
   1  11   9    3.50    0.90
  -2 -11  -9    4.70    1.10
  -2 -11  -9    6.50    1.00
   2  11   9    8.70    1.00
  -3 -11  -9    8.70    1.50
  -3 -11  -9    6.50    0.90
   3  11   9    7.60    0.80
   3  11   9    6.50    1.00
  -4 -11  -9    3.20    1.00
  -4 -11  -9    1.90    0.80
   4  11   9    3.40    0.60
  -5 -11  -9   34.40    2.50
  -5 -11  -9   34.10    2.10
   5  11   9   29.90    1.90
   5  11   9   35.50    1.70
  -6 -11  -9   17.10    1.90
  -6 -11  -9   17.80    1.60
   6  11   9   15.20    1.40
   6  11   9   15.30    1.10
  -7 -11  -9    3.20    1.00
  -7 -11  -9    3.10    1.20
   7  11   9    2.50    0.60
   7  11   9    2.60    0.80
  -8 -11  -9    0.80    0.90
   8  11   9    0.90    0.70
   8  11   9    0.20    0.50
  -9 -11  -9   -1.00    1.00
   9  11   9    2.10    1.40
 -10 -11  -9    7.90    1.50
  10  11   9    7.40    1.80
 -11 -11  -9   16.70    2.20
  11  11   9   16.90    2.40
 -12 -11  -9   21.60    2.40
  12  11   9   26.00    2.90
 -13 -11  -9   13.40    2.20
  13  11   9   13.50    2.40
  -9  12   9    5.00    1.30
  -8  12   9   -1.10    0.90
  -7  12   9    5.30    1.20
  -7  12   9    5.00    1.40
  -7  12   9    7.90    1.20
  -6  12   9    7.10    1.50
  -6  12   9    5.40    1.20
  -6  12   9    3.70    1.00
  -5  12   9    0.90    1.00
  -5  12   9    2.80    1.00
  -5  12   9    5.20    1.20
  -4  12   9   10.40    1.40
  -4  12   9    9.70    1.60
  -4  12   9   12.70    1.40
  -3  12   9   45.00    2.80
  -3  12   9   48.50    2.90
  -3  12   9   46.60    2.70
  -2  12   9   46.90    3.00
  -2  12   9   55.29    2.90
  -2  12   9   55.69    3.10
  -1  12   9   37.40    2.40
  -1  12   9   43.80    2.70
  -1  12   9   39.90    2.50
   0 -12  -9   52.89    2.80
   0  12   9   54.19    2.80
   0  12   9   52.89    3.20
  -1 -12  -9   23.00    1.80
   1  12   9   23.40    2.00
   1  12   9   26.60    1.90
  -2 -12  -9   23.80    1.90
   2  12   9   30.80    1.80
   2  12   9   31.10    2.20
  -3 -12  -9   42.10    2.40
   3  12   9   46.40    2.20
   3  12   9   45.60    2.90
   3  12   9   37.60    2.30
  -4 -12  -9   -0.30    0.80
   4  12   9    0.40    0.70
   4  12   9    0.40    0.50
   4  12   9    0.20    0.90
  -5 -12  -9   49.20    2.80
   5  12   9   51.59    2.40
   5  12   9   56.89    3.30
  -6 -12  -9    5.00    1.10
   6  12   9    8.30    2.50
   6  12   9    7.00    0.80
   6  12   9    5.90    0.80
  -7 -12  -9    2.20    1.00
   7  12   9    1.10    1.20
  -8 -12  -9    5.10    1.30
   8  12   9    4.80    1.60
  -9 -12  -9    2.50    1.30
   9  12   9    0.70    1.40
 -10 -12  -9    0.90    1.30
  10  12   9    1.10    1.40
 -11 -12  -9    8.00    1.70
  11  12   9    7.80    1.90
 -12 -12  -9   -2.10    1.40
  12  12   9    0.80    1.80
  -8  13   9    1.00    1.50
  -8  13   9    0.50    1.20
  -8  13   9   -0.40    1.10
  -7  13   9    5.70    1.30
  -7  13   9    5.50    1.60
  -7  13   9    6.40    1.30
  -6  13   9    2.20    1.30
  -6  13   9   -1.30    0.90
  -6  13   9    0.60    1.10
  -5  13   9   -0.20    0.90
  -5  13   9    0.70    1.10
  -5  13   9   -0.80    1.00
  -4  13   9    0.50    0.90
  -4  13   9   -0.50    0.80
  -4  13   9    0.80    1.00
  -3  13   9    5.70    1.20
  -3  13   9    6.00    1.20
  -3  13   9    6.90    1.20
  -2  13   9    2.00    0.90
  -2  13   9    0.80    0.90
  -2  13   9    1.60    0.90
  -1  13   9    3.20    0.90
  -1  13   9    3.50    1.10
  -1  13   9    1.90    0.90
   0 -13  -9    3.10    1.00
   0  13   9    2.50    1.00
   0  13   9    3.70    0.90
  -1 -13  -9   13.10    1.50
   1  13   9   18.30    2.10
   1  13   9   15.60    1.40
  -2 -13  -9   -1.60    0.80
   2  13   9    0.40    0.90
   2  13   9    0.40    0.70
  -3 -13  -9    1.70    0.90
   3  13   9    1.90    0.60
   3  13   9    1.90    0.90
  -4 -13  -9   11.20    1.30
   4  13   9   12.10    1.70
   4  13   9    8.00    1.00
   4  13   9   11.80    0.90
  -5 -13  -9    2.60    1.00
   5  13   9    2.20    0.50
   5  13   9    3.10    1.20
   5  13   9    2.50    0.70
  -6 -13  -9   22.40    2.00
   6  13   9   30.40    2.60
  -7 -13  -9    7.80    1.40
   7  13   9   12.50    1.90
  -8 -13  -9   19.90    2.30
   8  13   9   25.90    2.70
  -9 -13  -9    0.10    1.20
   9  13   9   -0.70    1.40
 -10 -13  -9    3.00    1.50
  10  13   9    3.10    1.80
 -11 -13  -9    5.80    1.60
  11  13   9    6.80    2.00
  -7  14   9    6.60    1.70
  -7  14   9    8.90    1.40
  -7  14   9   10.40    1.70
  -6  14   9   18.20    2.30
  -6  14   9   22.60    2.30
  -6  14   9   22.30    2.10
  -5  14   9    7.40    1.70
  -5  14   9   10.30    1.60
  -5  14   9   11.20    1.70
  -4  14   9   16.50    1.90
  -4  14   9   15.30    1.90
  -3  14   9   18.70    2.00
  -3  14   9   17.00    2.10
  -3  14   9   16.30    1.90
  -2  14   9   12.40    1.90
  -2  14   9   11.50    1.90
  -2  14   9   11.80    1.60
  -1  14   9   12.10    1.50
  -1  14   9   15.30    1.60
   0 -14  -9    8.50    1.40
   0  14   9    7.20    1.50
   0  14   9    7.20    1.10
  -1 -14  -9   43.40    2.70
   1  14   9   45.80    2.50
  -2 -14  -9   19.80    1.90
   2  14   9   19.80    1.60
   2  14   9   19.80    2.20
  -3 -14  -9   11.60    1.60
   3  14   9   11.60    1.00
   3  14   9    8.60    1.80
  -4 -14  -9    7.30    1.30
   4  14   9    6.90    1.70
   4  14   9    7.00    0.80
  -5 -14  -9    1.70    1.10
   5  14   9    0.60    1.30
   6  14   9    6.10    1.80
  -7 -14  -9    5.70    1.40
   7  14   9    4.30    1.40
  -8 -14  -9    1.60    1.40
   8  14   9    0.10    1.40
  -9 -14  -9   -2.50    1.30
   9  14   9    3.00    1.70
  -5  15   9   11.10    1.80
  -5  15   9    7.20    1.80
  -5  15   9   11.30    1.80
  -4  15   9    2.30    1.30
  -4  15   9    1.40    1.30
  -4  15   9    0.50    1.20
  -3  15   9    3.30    1.30
  -3  15   9    1.90    1.30
  -3  15   9    1.70    1.20
  -2  15   9   -0.40    1.10
  -2  15   9    1.20    1.20
  -2  15   9   -1.10    1.00
  -1  15   9    4.10    1.30
  -1  15   9    4.40    1.20
  -1  15   9    5.90    1.40
   0 -15  -9    9.50    1.50
   0  15   9    7.10    1.20
   0  15   9    9.90    1.70
  -1 -15  -9   29.00    2.30
   1  15   9   29.30    2.00
   1  15   9   27.90    2.50
  -2 -15  -9    0.60    1.10
   2  15   9    0.70    1.20
   2  15   9   -1.60    0.80
  -3 -15  -9    3.40    1.30
   3  15   9    1.40    1.30
   3  15   9   -0.20    0.70
  -4 -15  -9   12.70    1.80
   4  15   9   22.40    2.40
  -5 -15  -9    2.30    1.20
   5  15   9    4.00    1.40
  -6 -15  -9    0.70    1.20
   6  15   9    4.10    1.50
  -7 -15  -9   13.30    1.90
   7  15   9   17.10    2.30
  -8 -15  -9    4.50    1.40
   8  15   9    5.60    1.80
  -3  16   9    2.90    1.50
  -3  16   9    4.20    1.50
  -3  16   9    1.60    1.50
  -2  16   9    3.60    1.40
  -2  16   9    1.50    1.50
  -2  16   9    0.20    1.30
  -1  16   9    2.60    1.50
  -1  16   9    1.80    1.30
  -1  16   9    3.40    1.40
   0 -16  -9    4.50    1.40
   0  16   9    5.60    1.30
   0  16   9    8.80    1.70
  -1 -16  -9    0.90    1.20
   1  16   9    1.50    1.10
   1  16   9    0.10    1.30
  -2 -16  -9    4.60    1.40
   2  16   9    2.90    1.60
  -3 -16  -9    4.30    1.40
   3  16   9    3.70    1.60
  -4 -16  -9    0.60    1.30
   4  16   9   -2.10    1.50
  -5 -16  -9    1.70    1.30
   5  16   9    1.70    1.60
   0  -9  10    0.30    1.40
   0  -9  10    2.50    1.50
  -1   9 -10   -0.80    2.40
   1  -9  10    0.50    1.50
   1  -9  10    1.70    1.50
  -2   9 -10    1.30    2.00
   2  -9  10    0.20    1.50
   2  -9  10    0.20    1.50
   3  -9  10    3.40    1.60
   4   8 -10    1.50    1.50
  -4  -8  10    1.60    1.40
  -4  -8  10    1.30    1.40
   3   8 -10    4.60    1.70
  -3  -8  10    4.00    1.50
  -3  -8  10    5.70    1.50
   2   8 -10   -0.90    1.30
  -2  -8  10    0.40    1.30
  -2  -8  10    1.90    1.40
   1   8 -10   -0.40    1.30
  -1  -8  10   -0.60    1.30
  -1  -8  10    1.20    1.40
   0   8 -10    0.60    1.40
   0  -8  10   -0.10    1.40
   0  -8  10   -1.90    2.60
  -1   8 -10    0.50    1.30
   1  -8  10    2.00    1.30
   1  -8  10    3.30    1.40
  -2   8 -10    4.50    1.60
   2  -8  10    5.40    1.40
   2  -8  10    3.60    1.50
  -3   8 -10    3.30    1.60
   3  -8  10    1.40    1.50
  -4   8 -10    2.10    1.50
  -4   8 -10   -1.40    1.70
   4  -8  10    1.10    1.50
  -5   8 -10    6.00    1.90
  -5   8 -10    4.80    1.60
   5  -8  10    2.60    1.70
  -6   8 -10    5.80    1.90
  -6   8 -10    1.60    1.60
   6  -8  10    2.70    1.70
   6   7 -10   -1.30    1.40
  -6  -7  10    1.90    1.10
  -6  -7  10    2.10    1.40
   5   7 -10    5.00    1.60
  -5  -7  10    1.10    1.40
  -5  -7  10    2.00    1.20
   4   7 -10    6.30    1.60
  -4  -7  10    4.90    1.20
  -4  -7  10    6.90    1.50
   3   7 -10    7.50    1.80
  -3  -7  10    6.40    1.30
  -3  -7  10    8.70    2.20
   2   7 -10    0.50    1.30
  -2  -7  10   -0.20    1.10
  -2  -7  10    1.50    1.20
   1   7 -10    1.90    1.40
  -1  -7  10    0.10    1.20
  -1  -7  10    0.40    1.10
   0   7 -10    1.90    1.20
   0  -7  10    0.70    1.20
   0  -7  10   -0.50    1.10
  -1   7 -10    0.70    1.20
   1  -7  10   -1.80    1.10
   1  -7  10    1.10    1.10
  -2   7 -10    5.70    1.50
   2  -7  10    8.80    1.50
  -3   7 -10    0.90    1.20
   3  -7  10   -1.00    1.10
  -4   7 -10    3.80    1.40
  -4   7 -10    0.60    1.40
   4  -7  10    2.80    1.20
  -5   7 -10    1.50    1.50
  -5   7 -10    1.20    1.30
   5  -7  10    1.20    1.40
  -6   7 -10   -0.40    1.60
  -6   7 -10    2.20    1.50
   6  -7  10    1.40    1.40
  -7   7 -10    2.00    1.60
  -7   7 -10   -0.70    1.50
   7  -7  10    0.70    1.50
  -8   7 -10   -1.30    1.80
  -8   7 -10    0.90    1.50
   8  -7  10    0.20    1.60
   7   6 -10    0.80    1.40
  -7  -6  10    2.20    1.30
  -7  -6  10    0.20    1.20
   6   6 -10   20.40    2.20
  -6  -6  10   24.10    2.30
  -6  -6  10   19.60    2.00
   5   6 -10    0.70    1.20
  -5  -6  10    0.50    1.10
   4   6 -10    1.30    1.20
  -4  -6  10   -0.50    1.10
  -4  -6  10   -0.40    1.00
   3   6 -10    2.30    1.20
  -3  -6  10    0.20    1.00
  -3  -6  10    1.60    1.10
   2   6 -10    4.20    1.40
  -2  -6  10    3.60    1.10
  -2  -6  10    4.00    1.10
   1   6 -10    1.50    1.20
  -1  -6  10    0.60    1.00
  -1  -6  10    2.30    1.00
   0   6 -10    8.20    1.50
   0  -6  10    7.40    1.30
   0  -6  10    5.80    1.30
  -1   6 -10   -0.70    1.00
   1  -6  10   -0.30    1.00
   1  -6  10    0.30    1.00
  -2   6 -10   18.00    1.90
   2  -6  10   20.10    2.10
   2  -6  10   20.40    1.90
  -3   6 -10   56.69    3.30
   3  -6  10   54.59    3.40
  -4   6 -10    6.90    1.30
  -4   6 -10    4.70    1.40
   4  -6  10    4.00    1.80
  -5   6 -10   10.80    1.60
  -5   6 -10   11.20    1.60
   5  -6  10    9.30    1.70
  -6   6 -10    6.80    1.60
  -6   6 -10    5.60    1.30
   6  -6  10    5.30    1.60
  -7   6 -10    2.00    1.40
  -7   6 -10    1.70    1.50
   7  -6  10    4.00    1.50
  -8   6 -10    3.50    1.50
  -8   6 -10    4.10    1.70
   8  -6  10    0.40    1.30
  -9   6 -10    1.40    1.50
  -9   6 -10    1.10    1.60
   9  -6  10    0.70    1.50
 -10   6 -10    3.70    1.80
 -10   6 -10    0.80    1.60
  10  -6  10    1.80    1.70
   9   5 -10   10.70    1.70
  -9  -5  10   11.70    1.80
  -9  -5  10    9.20    1.60
   8   5 -10    0.80    1.10
  -8  -5  10    0.90    1.10
  -8  -5  10    1.20    1.30
   7   5 -10    0.80    1.30
  -7  -5  10    1.50    1.20
  -7  -5  10   -0.20    1.00
   6   5 -10    3.00    1.20
  -6  -5  10    3.30    1.10
  -6  -5  10    3.10    1.10
   5   5 -10    0.30    1.00
  -5  -5  10   -0.30    1.00
  -5  -5  10   -0.80    0.90
   4   5 -10    2.30    1.10
  -4  -5  10    1.40    1.10
  -4  -5  10    0.60    1.00
   3   5 -10    2.40    1.40
  -3  -5  10    0.40    0.90
  -3  -5  10    0.00    0.90
  -2  -5  10    0.20    0.90
  -2  -5  10    2.00    1.00
   1   5 -10    5.80    2.10
  -1  -5  10    2.80    1.00
  -1  -5  10    1.40    0.90
   0   5 -10    0.70    1.10
   0  -5  10   -0.20    0.80
   0  -5  10   -1.20    0.80
  -1   5 -10    0.50    1.10
   1  -5  10   -0.80    0.80
   1  -5  10    0.90    0.90
  -2   5 -10   61.49    3.90
   2  -5  10   56.29    3.30
   2  -5  10   61.99    3.10
  -3   5 -10   -0.10    1.70
   3  -5  10    0.70    1.00
  -4   5 -10    2.10    1.10
   4  -5  10    3.20    1.30
  -5   5 -10    7.00    1.20
  -5   5 -10    3.80    1.60
   5  -5  10    4.30    1.80
  -6   5 -10   12.70    1.70
  -6   5 -10   11.80    1.50
   6  -5  10   11.00    1.70
  -7   5 -10   20.30    2.20
  -7   5 -10   23.70    2.30
   7  -5  10   18.40    2.20
  -8   5 -10    6.00    1.50
  -8   5 -10    2.50    1.40
   8  -5  10    4.90    1.50
  -9   5 -10    2.20    1.40
  -9   5 -10   -0.40    1.40
   9  -5  10    2.10    1.60
 -10   5 -10    8.00    1.60
  10  -5  10    1.50    1.60
 -11   5 -10   11.90    2.00
 -11   5 -10   12.80    1.90
  11  -5  10   13.30    2.20
   9   4 -10    0.20    1.30
  -9  -4  10   -0.90    1.10
  -9  -4  10   -0.40    1.20
   8   4 -10    7.20    1.80
  -8  -4  10    8.00    1.50
  -8  -4  10    7.40    1.30
   7   4 -10    0.80    1.30
  -7  -4  10   -0.70    1.00
  -7  -4  10    0.10    1.00
   6   4 -10   41.10    2.80
  -6  -4  10   48.70    2.70
  -6  -4  10   42.20    2.60
   5   4 -10    9.20    1.50
  -5  -4  10    9.60    1.30
  -5  -4  10    9.60    1.30
   4   4 -10   18.90    1.90
  -4  -4  10   18.40    1.70
  -4  -4  10   16.70    1.60
   3   4 -10   26.70    2.00
  -3  -4  10   18.90    1.80
  -3  -4  10   23.80    1.70
   2   4 -10   44.70    2.70
  -2  -4  10   42.20    2.60
  -2  -4  10   43.80    2.40
   1   4 -10   29.30    2.20
  -1  -4  10   29.50    1.90
  -1  -4  10   25.00    2.00
   0   4 -10    5.30    1.10
   0  -4  10    1.80    0.90
   0  -4  10    2.70    0.90
  -1   4 -10   30.20    2.20
   1  -4  10   24.40    2.00
   1  -4  10   29.20    2.00
  -2   4 -10    0.10    0.90
   2  -4  10    1.90    1.00
  -3   4 -10   17.80    1.80
   3  -4  10   13.60    1.60
  -4   4 -10    1.10    0.90
  -4   4 -10    1.60    1.10
   4  -4  10    2.30    1.10
  -5   4 -10    0.80    1.10
  -5   4 -10    1.80    0.90
   5  -4  10    2.10    1.20
  -6   4 -10    2.50    1.20
  -6   4 -10    2.00    1.00
   6  -4  10    1.70    1.20
  -7   4 -10    0.70    1.10
  -7   4 -10    0.10    1.00
   7  -4  10   -1.00    1.10
  -8   4 -10   -0.60    1.10
  -8   4 -10    1.90    1.50
   8  -4  10   -0.20    1.20
  -9   4 -10   -1.00    1.10
  -9   4 -10    0.50    1.50
   9  -4  10   -0.40    1.30
 -10   4 -10   -0.40    1.20
 -10   4 -10    1.10    1.40
  10  -4  10    0.30    1.40
 -11   4 -10   -0.60    1.30
  11  -4  10   -1.30    1.50
 -12   4 -10   -2.30    1.50
 -12   4 -10    0.30    1.40
  12  -4  10    0.50    1.70
  10   3 -10    2.00    1.30
 -10  -3  10    1.80    1.30
 -10  -3  10    2.50    1.40
   9   3 -10    2.60    1.20
  -9  -3  10    0.60    1.20
  -9  -3  10    2.40    1.20
   8   3 -10    0.20    1.10
  -8  -3  10   -0.30    1.10
  -8  -3  10   -0.30    1.00
   7   3 -10    5.00    1.30
  -7  -3  10    2.30    1.00
  -7  -3  10    2.60    1.00
   6   3 -10    8.60    1.40
  -6  -3  10    9.50    1.30
  -6  -3  10    9.00    1.30
   5   3 -10    4.40    1.00
  -5  -3  10    3.90    1.00
  -5  -3  10    5.60    1.00
   4   3 -10    1.10    0.90
  -4  -3  10    1.30    0.80
  -4  -3  10    2.00    0.90
   3   3 -10   -0.40    0.80
  -3  -3  10   -0.10    0.70
  -3  -3  10    0.20    0.70
   2   3 -10    0.30    0.90
  -2  -3  10   -0.10    0.70
   1   3 -10    1.20    0.90
  -1  -3  10    2.00    0.90
  -1  -3  10    2.20    0.80
   0   3 -10   10.50    1.10
   0   3 -10   10.70    1.40
   0  -3  10   11.20    1.20
   0  -3  10    9.40    1.40
  -1   3 -10    8.40    1.30
  -1   3 -10    6.90    0.90
   1  -3  10    8.70    1.00
   1  -3  10    8.50    1.20
  -2   3 -10  103.49    4.70
  -2   3 -10   86.89    4.20
   2  -3  10  103.19    4.30
   2  -3  10   97.29    4.60
  -3   3 -10   10.10    1.40
  -3   3 -10   10.20    1.10
  -3   3 -10   12.40    1.30
   3  -3  10   15.50    1.60
  -4   3 -10   13.80    1.40
  -4   3 -10   11.30    1.40
  -4   3 -10   14.00    1.70
   4  -3  10   14.70    1.70
  -5   3 -10    0.20    0.90
  -5   3 -10    1.40    0.80
   5  -3  10   -0.70    0.90
  -6   3 -10    9.80    1.40
   6  -3  10    7.80    1.50
  -7   3 -10   16.30    1.80
  -7   3 -10   16.50    1.60
   7  -3  10   14.10    1.80
  -8   3 -10   10.30    1.50
  -8   3 -10   13.60    1.40
   8  -3  10   11.20    1.70
  -9   3 -10    0.80    1.10
  -9   3 -10    1.60    1.20
   9  -3  10    0.20    1.20
 -10   3 -10    3.00    1.20
 -10   3 -10    5.00    1.50
  10  -3  10    5.00    1.60
 -11   3 -10    3.30    1.30
  11  -3  10    3.80    1.60
 -12   3 -10    1.60    1.50
 -12   3 -10    1.40    1.60
  12  -3  10    3.50    1.70
 -13   3 -10   -0.20    1.40
 -13   3 -10    2.80    1.60
  13  -3  10   -2.00    2.30
  11   2 -10   11.00    1.60
 -11  -2  10    7.90    1.70
 -11  -2  10   12.60    1.80
  10   2 -10   27.40    2.30
 -10  -2  10   31.90    2.50
 -10  -2  10   27.80    2.50
   9   2 -10   -0.80    1.00
  -9  -2  10    0.70    1.00
   8   2 -10   19.80    1.80
  -8  -2  10   22.50    2.00
  -8  -2  10   17.50    1.90
   7   2 -10   14.70    1.60
  -7  -2  10   15.00    1.70
  -7  -2  10   14.70    1.60
   6   2 -10   20.70    1.90
  -6  -2  10   23.30    1.80
  -6  -2  10   24.20    1.90
   5   2 -10   13.70    1.60
  -5  -2  10   13.00    1.40
  -5  -2  10   13.80    1.50
   4   2 -10   38.30    2.40
  -4  -2  10   34.30    2.30
  -4  -2  10   39.90    2.10
   3   2 -10   42.00    2.50
  -3  -2  10   37.20    2.30
  -3  -2  10   40.30    2.10
   2   2 -10    2.70    0.80
   2   2 -10    2.80    1.00
  -2  -2  10    1.60    0.70
  -2  -2  10    1.50    0.80
   1   2 -10    4.20    0.80
   1   2 -10    5.70    1.10
  -1  -2  10    4.90    0.90
  -1  -2  10    4.80    0.70
   0   2 -10    1.30    0.70
   0   2 -10    0.00    0.80
   0  -2  10    2.00    0.60
   0  -2  10    2.70    0.80
  -1   2 -10    2.50    0.60
  -1   2 -10    2.40    0.90
   1  -2  10    1.60    0.80
   1  -2  10    1.60    0.60
  -2   2 -10    0.60    0.50
  -2   2 -10    0.70    0.80
   2  -2  10    1.30    0.80
   2  -2  10    1.00    0.60
  -3   2 -10   12.50    1.20
  -3   2 -10   12.30    1.50
  -3   2 -10   11.50    1.10
   3  -2  10   13.70    1.50
  -4   2 -10   -0.60    0.70
  -4   2 -10   -0.20    0.70
   4  -2  10    0.10    0.80
  -5   2 -10    0.00    0.60
  -5   2 -10    0.70    0.80
  -5   2 -10    1.30    0.70
   5  -2  10    1.20    0.90
  -6   2 -10    5.50    1.20
  -6   2 -10    4.60    0.90
   6  -2  10    4.90    1.20
  -7   2 -10    3.90    1.00
  -7   2 -10    5.60    1.00
   7  -2  10    5.80    1.20
  -8   2 -10    2.70    1.20
  -8   2 -10    2.80    0.90
   8  -2  10    1.80    1.10
  -9   2 -10    2.50    0.90
  -9   2 -10    4.90    1.30
   9  -2  10    3.10    1.30
 -10   2 -10    0.20    1.00
 -10   2 -10    0.20    1.00
  10  -2  10   -0.20    1.10
 -11   2 -10    0.40    1.20
 -11   2 -10    2.50    1.10
  11  -2  10    2.10    1.50
 -12   2 -10    6.10    1.60
 -12   2 -10    5.70    1.50
  12  -2  10    7.10    1.80
 -13   2 -10    4.30    2.00
 -13   2 -10    5.70    1.60
  13  -2  10    4.70    1.70
  11   1 -10    2.00    1.20
 -11  -1  10    1.70    1.30
 -11  -1  10    1.50    1.30
  10   1 -10    0.50    1.00
 -10  -1  10    0.20    1.20
 -10  -1  10    0.50    1.10
   9   1 -10    3.30    1.10
  -9  -1  10    1.80    1.00
  -9  -1  10    1.80    1.10
   8   1 -10    2.30    1.00
  -8  -1  10    0.40    1.00
  -8  -1  10    2.30    1.00
   7   1 -10    7.60    1.20
  -7  -1  10   10.00    1.20
  -7  -1  10    8.90    1.30
   6   1 -10   13.50    1.50
  -6  -1  10   13.80    1.40
  -6  -1  10   13.70    1.50
   5   1 -10    4.00    1.00
  -5  -1  10    3.70    1.00
  -5  -1  10    5.90    0.90
   4   1 -10    8.60    1.20
  -4  -1  10    7.90    1.00
  -4  -1  10    7.20    1.10
   3   1 -10    4.50    1.00
   3   1 -10    3.70    0.70
  -3  -1  10    3.30    0.80
  -3  -1  10    5.80    0.80
   2   1 -10   11.90    1.10
   2   1 -10   12.50    1.40
  -2  -1  10   14.00    1.00
  -2  -1  10   11.30    1.30
   1   1 -10   34.70    1.80
   1   1 -10   35.80    2.20
  -1  -1  10   34.50    2.10
  -1  -1  10   33.80    1.70
   0   1 -10   16.20    1.40
   0   1 -10   12.70    1.00
   0  -1  10   13.60    1.40
   0  -1  10   12.80    1.00
  -1   1 -10   37.50    2.20
  -1   1 -10   33.10    1.70
   1  -1  10   34.40    2.10
   1  -1  10   35.80    1.70
  -2   1 -10   29.80    1.90
  -2   1 -10   25.70    1.40
   2  -1  10   27.80    1.90
  -3   1 -10   15.90    1.00
  -3   1 -10   16.60    1.10
  -3   1 -10   16.90    1.50
   3  -1  10   15.60    1.50
  -4   1 -10    3.50    0.90
  -4   1 -10    3.50    0.60
  -4   1 -10    4.90    0.60
   4  -1  10    5.40    1.00
  -5   1 -10    2.60    0.60
  -5   1 -10    3.40    0.70
  -5   1 -10    3.50    0.90
   5  -1  10    3.60    1.00
  -6   1 -10   17.50    1.20
  -6   1 -10   16.70    1.60
   6  -1  10   15.40    1.70
  -7   1 -10   10.40    1.10
  -7   1 -10   12.60    1.20
  -7   1 -10   12.00    1.40
   7  -1  10   11.80    1.60
  -8   1 -10   13.40    1.30
  -8   1 -10   12.40    1.60
   8  -1  10   12.00    1.70
  -9   1 -10    2.90    0.80
  -9   1 -10    3.40    1.10
   9  -1  10    2.30    1.20
 -10   1 -10    3.00    1.20
 -10   1 -10    4.50    1.00
  10  -1  10    2.60    1.30
 -11   1 -10   10.30    1.50
 -11   1 -10   12.10    1.70
  11  -1  10    7.10    1.70
 -12   1 -10    2.00    1.20
 -12   1 -10   -1.80    1.10
  12  -1  10   -0.10    1.20
 -13   1 -10    1.30    2.60
 -13   1 -10   -2.40    1.40
  13  -1  10   -0.10    1.60
 -14   1 -10    6.50    1.70
  14  -1  10    5.70    1.90
 -12   0  10   -2.00    1.30
 -12   0  10    0.40    1.30
 -11   0  10    3.80    1.30
 -11   0  10    1.90    1.40
  10   0 -10    9.60    1.30
 -10   0  10    6.60    1.50
   9   0 -10   11.80    1.40
  -9   0  10    8.20    1.50
  -9   0  10   10.90    1.40
   8   0 -10    0.50    0.80
  -8   0  10    0.50    0.90
  -8   0  10    1.40    0.90
   7   0 -10   38.80    2.30
  -7   0  10   33.40    2.20
  -7   0  10   39.10    2.50
   6   0 -10    0.10    0.80
  -6   0  10    1.30    0.70
  -6   0  10    1.30    0.80
   5   0 -10    4.90    1.00
  -5   0  10    3.80    0.90
  -5   0  10    5.10    0.80
   4   0 -10    4.20    0.80
   4   0 -10    4.10    0.90
  -4   0  10    3.30    0.90
  -4   0  10    3.90    0.70
   3   0 -10   14.80    1.10
   3   0 -10   17.40    1.40
  -3   0  10   14.30    1.10
  -3   0  10   14.60    1.40
   2   0 -10   51.29    2.50
   2   0 -10   55.79    2.90
  -2   0  10   53.49    2.40
  -2   0  10   55.19    2.80
   1   0 -10    1.20    0.70
   1   0 -10    0.30    0.50
  -1   0  10    0.40    0.40
  -1   0  10    0.60    0.60
   0   0 -10    1.50    0.50
   0   0 -10    1.00    0.70
   0   0  10    1.00    0.60
   0   0  10    1.70    0.40
  -1   0 -10    3.60    0.50
  -1   0 -10    2.80    0.80
   1   0  10    2.30    0.40
   1   0  10    2.70    0.80
  -2   0 -10    0.90    0.60
  -2   0 -10    0.50    0.30
   2   0  10   -0.10    0.70
  -3   0 -10   29.10    1.50
  -3   0 -10   26.90    1.30
  -3   0 -10   28.20    1.90
   3   0  10   29.20    1.90
  -4   0 -10   45.70    2.60
  -4   0 -10   47.10    2.10
  -4   0 -10   46.90    2.10
   4   0  10   47.20    2.60
  -5   0 -10   15.00    1.00
  -5   0 -10   13.90    1.40
  -5   0 -10   13.40    1.00
   5   0  10   14.20    1.50
  -6   0 -10   18.10    1.30
  -6   0 -10   21.90    1.70
  -6   0 -10   19.50    1.20
   6   0  10   19.10    1.70
  -7   0 -10   15.90    1.20
  -7   0 -10   12.80    1.50
   7   0  10   16.30    1.70
  -8   0 -10   33.50    2.20
  -8   0 -10   29.40    1.80
  -8   0 -10   28.40    1.90
   8   0  10   31.10    2.30
  -9   0 -10   25.10    2.60
  -9   0 -10   27.50    2.10
   9   0  10   22.80    2.20
 -10   0 -10    5.50    1.20
 -10   0 -10    7.10    1.20
  10   0  10    6.10    1.40
 -11   0 -10    1.90    1.00
 -11   0 -10    1.50    1.10
  11   0  10   -0.50    1.10
 -12   0 -10   19.50    1.90
 -12   0 -10   19.70    2.10
  12   0  10   17.40    2.20
 -13   0 -10    3.70    1.40
 -13   0 -10    2.30    1.20
  13   0  10   -0.70    1.40
 -14   0 -10    3.30    1.50
 -14   0 -10    1.40    1.50
  14   0  10    2.20    1.60
 -12   1  10    9.10    1.80
  11  -1 -10    2.40    1.00
 -11   1  10    1.80    1.30
 -11   1  10    3.10    1.20
  10  -1 -10    8.10    1.10
 -10   1  10    5.40    1.30
 -10   1  10    5.90    1.50
   9  -1 -10   30.00    2.80
  -9   1  10   27.10    2.10
  -9   1  10   31.00    2.40
   8  -1 -10    8.40    1.30
  -8   1  10    7.20    1.10
  -8   1  10    7.50    1.40
   7  -1 -10    0.20    0.70
  -7   1  10    0.60    0.90
  -7   1  10    0.80    0.70
   6  -1 -10   80.69    3.70
  -6   1  10   70.09    3.90
  -6   1  10   78.99    3.60
   5  -1 -10    3.80    0.80
   5  -1 -10    2.70    0.90
  -5   1  10    4.90    1.00
  -5   1  10    3.30    0.70
   4  -1 -10    0.60    0.60
   4  -1 -10    1.10    0.80
  -4   1  10    1.40    0.70
  -4   1  10    1.20    0.50
   3  -1 -10    0.50    0.60
   3  -1 -10    1.50    0.50
  -3   1  10    1.20    0.70
  -3   1  10    0.60    0.40
   2  -1 -10    4.70    0.90
   2  -1 -10    5.40    0.70
  -2   1  10    5.40    0.60
  -2   1  10    6.70    0.90
   1  -1 -10   68.89    2.90
   1  -1 -10   67.39    3.30
  -1   1  10   66.89    2.90
  -1   1  10   70.09    3.30
   0  -1 -10   67.19    2.80
   0  -1 -10   69.39    3.30
   0   1  10   66.49    2.80
   0   1  10   67.09    3.30
  -1  -1 -10   39.90    2.20
   1   1  10   33.40    2.10
  -2  -1 -10   30.60    1.90
   2   1  10   29.40    1.90
  -3  -1 -10   27.80    1.80
   3   1  10   25.10    1.80
  -4  -1 -10   21.90    1.10
  -4  -1 -10   22.30    1.60
   4   1  10   22.30    1.60
  -5  -1 -10    3.10    0.50
  -5  -1 -10    5.10    0.50
  -5  -1 -10    3.70    0.90
   5   1  10    4.90    1.00
  -6  -1 -10   18.70    1.20
  -6  -1 -10   20.30    1.20
  -6  -1 -10   20.90    1.60
   6   1  10   19.20    1.70
  -7  -1 -10    0.30    0.60
  -7  -1 -10   -0.20    0.70
  -7  -1 -10    0.20    0.50
   7   1  10    0.50    0.90
  -8  -1 -10    1.30    0.90
  -8  -1 -10    2.10    0.60
  -8  -1 -10    2.90    0.80
   8   1  10    1.80    1.00
  -9  -1 -10    1.50    0.70
  -9  -1 -10    0.80    1.00
   9   1  10    0.20    1.00
 -10  -1 -10   10.80    1.50
 -10  -1 -10   13.10    1.30
  10   1  10   13.40    1.80
 -11  -1 -10    8.40    1.50
 -11  -1 -10    7.10    1.20
 -12  -1 -10    7.30    1.40
 -12  -1 -10    7.40    1.30
  12   1  10    8.30    1.80
 -13  -1 -10    6.00    1.40
 -13  -1 -10    4.50    1.30
  13   1  10    5.10    1.70
 -14  -1 -10   -0.10    1.20
 -14  -1 -10   -0.70    1.30
  14   1  10    0.80    1.70
 -12   2  10    0.30    1.40
 -12   2  10    0.60    1.10
 -11   2  10    6.20    1.30
 -11   2  10    5.90    1.50
  10  -2 -10   12.30    1.20
 -10   2  10    9.40    1.60
 -10   2  10   10.70    1.50
   9  -2 -10    7.40    1.00
  -9   2  10    6.10    1.10
  -9   2  10    6.30    1.30
   8  -2 -10    1.40    0.70
  -8   2  10    1.40    0.80
  -8   2  10    0.10    0.90
   7  -2 -10    0.60    0.70
  -7   2  10    1.50    0.90
  -7   2  10    0.60    0.70
   6  -2 -10    5.30    1.00
  -6   2  10    2.00    0.90
  -6   2  10    7.80    1.10
   5  -2 -10    5.10    1.00
   5  -2 -10    3.20    0.70
  -5   2  10    7.00    1.10
  -5   2  10    3.90    0.70
   4  -2 -10   21.90    1.40
   4  -2 -10   22.90    2.40
  -4   2  10   26.30    1.80
  -4   2  10   23.20    1.40
   3  -2 -10   39.90    2.40
   3  -2 -10   37.80    1.90
  -3   2  10   41.20    1.90
  -3   2  10   43.10    2.40
   2  -2 -10   20.20    1.10
   2  -2 -10   23.30    1.50
  -2   2  10   20.80    1.60
  -2   2  10   21.90    1.10
   1  -2 -10   39.90    1.70
   1  -2 -10   43.50    2.30
  -1   2  10   38.80    1.70
  -1   2  10   38.60    2.20
   0  -2 -10   52.59    2.70
   0   2  10   50.19    2.60
  -1  -2 -10   30.30    1.90
   1   2  10   27.90    1.80
  -2  -2 -10   80.09    3.80
   2   2  10   79.89    3.70
  -3  -2 -10   51.09    2.80
   3   2  10   53.29    2.60
  -4  -2 -10   71.99    3.60
   4   2  10   72.19    3.50
  -5  -2 -10   22.30    1.10
  -5  -2 -10   21.20    1.60
   5   2  10   22.10    1.60
  -6  -2 -10    0.30    0.40
  -6  -2 -10    0.00    0.60
  -6  -2 -10    1.10    0.50
   6   2  10    0.80    0.70
  -7  -2 -10   55.39    2.70
  -7  -2 -10   60.29    2.70
  -7  -2 -10   65.29    3.30
   7   2  10   61.19    3.20
  -8  -2 -10   13.50    1.60
  -8  -2 -10   12.70    1.10
   8   2  10   10.70    1.50
  -9  -2 -10   11.90    1.30
  -9  -2 -10   12.60    1.20
  -9  -2 -10   14.90    1.70
   9   2  10   16.70    1.70
 -10  -2 -10    3.10    0.90
 -10  -2 -10    3.10    1.00
  10   2  10    3.40    1.10
 -11  -2 -10    9.80    1.20
 -11  -2 -10   11.60    1.50
  11   2  10   11.30    1.70
 -12  -2 -10   10.90    1.40
 -12  -2 -10   10.70    1.40
  12   2  10   10.30    1.80
 -13  -2 -10    1.70    1.10
 -13  -2 -10   -0.20    1.20
  13   2  10    3.90    1.60
 -14  -2 -10    0.10    1.40
  14   2  10   -2.50    1.40
 -15  -2 -10    1.30    1.40
  15   2  10   -1.50    1.70
 -12   3  10    2.60    1.50
 -12   3  10    1.30    1.20
 -11   3  10    1.90    1.00
 -11   3  10    1.90    1.20
  10  -3 -10   15.60    1.20
 -10   3  10   15.90    2.20
 -10   3  10   17.80    1.80
   9  -3 -10   23.00    1.60
  -9   3  10   26.90    1.90
   8  -3 -10   16.90    1.30
  -8   3  10   12.70    1.30
  -8   3  10   16.70    1.80
  -8   3  10   16.30    1.50
   7  -3 -10   42.30    2.20
  -7   3  10   41.60    2.20
  -7   3  10   36.30    2.20
  -7   3  10   37.00    2.60
   6  -3 -10   38.50    2.20
  -6   3  10   39.80    2.10
  -6   3  10   42.70    2.60
   5  -3 -10   49.99    2.50
   5  -3 -10   46.70    2.40
  -5   3  10   50.99    2.40
  -5   3  10   48.20    2.80
   4  -3 -10    2.00    0.60
   4  -3 -10    3.40    0.80
  -4   3  10    4.10    0.90
  -4   3  10    4.70    0.70
   3  -3 -10   30.30    1.80
   3  -3 -10   28.50    1.50
  -3   3  10   27.10    1.40
  -3   3  10   31.70    2.00
   2  -3 -10  145.99    6.70
   2  -3 -10  147.49    6.00
  -2   3  10  146.99    6.00
  -2   3  10  157.38    6.60
  -1   3  10  153.18    6.60
   0  -3 -10   34.30    2.00
   0   3  10   30.20    1.90
  -1  -3 -10    0.20    0.60
   1   3  10    1.40    0.60
  -2  -3 -10   -0.20    0.50
   2   3  10    1.40    0.60
  -3  -3 -10    0.30    0.60
   3   3  10    1.40    0.60
  -4  -3 -10   17.70    1.50
   4   3  10   19.70    1.50
  -5  -3 -10   22.10    1.70
   5   3  10   25.00    1.60
  -6  -3 -10   11.50    0.80
  -6  -3 -10   10.00    1.30
  -6  -3 -10   11.10    0.90
   6   3  10   13.00    1.20
  -7  -3 -10   39.20    2.40
  -7  -3 -10   36.00    1.80
   7   3  10   39.80    2.30
  -8  -3 -10    2.90    0.70
  -8  -3 -10    2.50    1.00
   8   3  10    3.60    1.10
   8   3  10    1.80    0.70
  -9  -3 -10    1.30    0.70
  -9  -3 -10    1.40    0.90
   9   3  10    2.20    0.90
   9   3  10    1.30    1.00
 -10  -3 -10    3.00    1.10
  10   3  10    4.10    1.20
 -11  -3 -10    8.30    1.50
 -11  -3 -10    7.30    1.10
  11   3  10    7.30    1.50
 -12  -3 -10    8.80    1.40
 -12  -3 -10   12.00    1.60
  12   3  10   12.50    1.80
 -13  -3 -10   12.90    1.70
 -13  -3 -10   13.70    1.70
  13   3  10   16.00    2.10
 -14  -3 -10    5.30    1.50
 -14  -3 -10    5.30    1.70
  14   3  10    4.70    1.70
 -15  -3 -10    0.90    1.40
  15   3  10   -0.40    1.70
 -12   4  10   -0.10    1.10
 -12   4  10    1.50    1.40
 -11   4  10    2.10    1.30
 -11   4  10    1.50    1.00
 -10   4  10    0.10    0.90
 -10   4  10    0.90    1.10
   9  -4 -10    1.20    0.60
  -9   4  10    1.90    0.90
  -9   4  10    0.20    1.20
  -9   4  10   -1.10    0.70
   8  -4 -10    0.50    0.60
  -8   4  10    0.30    0.80
  -8   4  10    0.80    0.70
   7  -4 -10    1.00    0.70
  -7   4  10    1.50    0.90
  -7   4  10    1.00    0.70
  -7   4  10    1.70    0.70
   6  -4 -10    5.70    0.90
  -6   4  10    6.00    0.90
  -6   4  10    6.40    1.20
  -6   4  10    8.50    1.00
   5  -4 -10   24.20    1.50
   5  -4 -10   24.30    1.60
  -5   4  10   25.20    1.80
  -5   4  10   26.60    1.50
  -5   4  10   26.70    1.90
   4  -4 -10  138.99    6.00
   4  -4 -10  131.89    5.70
  -4   4  10  141.39    5.70
  -4   4  10  136.69    6.20
   3  -4 -10   15.10    1.30
  -3   4  10   13.90    0.90
  -3   4  10   16.10    1.40
   2  -4 -10  225.88    9.10
  -2   4  10  218.08    9.20
  -2   4  10  212.28    8.70
  -2   4  10  211.78    8.70
   1  -4 -10   26.40    1.90
  -1   4  10   27.80    1.70
   0  -4 -10  137.49    6.40
   0   4  10  139.49    6.00
  -1  -4 -10   75.89    3.70
   1   4  10   76.99    3.60
  -2  -4 -10    5.10    0.90
   2   4  10    3.30    0.70
  -3  -4 -10   12.20    1.20
   3   4  10   10.80    1.10
  -4  -4 -10    7.50    1.10
   4   4  10    5.60    0.90
  -5  -4 -10   15.20    1.40
   5   4  10   17.90    1.40
  -6  -4 -10   17.90    1.50
  -6  -4 -10   15.40    0.90
   6   4  10   15.70    1.00
   6   4  10   17.70    1.40
  -7  -4 -10   97.09    4.50
  -7  -4 -10   93.79    3.90
   7   4  10   92.89    4.30
   7   4  10   84.69    3.90
  -8  -4 -10   55.99    2.50
  -8  -4 -10   52.79    3.00
   8   4  10   53.39    2.90
   8   4  10   48.50    2.60
  -9  -4 -10    0.60    0.60
  -9  -4 -10    1.10    0.90
   9   4  10    2.90    0.90
   9   4  10    1.60    1.00
 -10  -4 -10   10.90    1.50
  10   4  10   11.70    1.60
 -11  -4 -10    3.60    1.10
 -11  -4 -10    2.30    0.90
  11   4  10    1.50    1.20
 -12  -4 -10    3.10    1.00
 -12  -4 -10    4.80    1.30
  12   4  10    3.30    1.30
 -13  -4 -10    1.30    1.20
 -13  -4 -10    0.60    1.10
 -14  -4 -10   -0.50    1.40
 -14  -4 -10    0.00    1.40
  14   4  10    0.50    1.70
 -15  -4 -10   -1.90    1.30
 -15  -4 -10   -2.30    1.40
  15   4  10    3.90    1.80
 -12   5  10    5.70    1.30
 -12   5  10    4.20    1.70
 -11   5  10   -0.90    1.40
 -11   5  10   -0.60    0.90
 -10   5  10   40.80    3.20
 -10   5  10   39.10    2.50
   9  -5 -10   14.20    1.10
  -9   5  10   11.90    1.10
  -9   5  10   13.40    1.90
  -9   5  10   13.70    1.50
   8  -5 -10   23.60    1.50
  -8   5  10   20.80    1.40
  -8   5  10   27.30    2.30
  -8   5  10   25.30    1.80
   7  -5 -10   26.90    1.60
  -7   5  10   21.80    1.50
  -7   5  10   26.20    1.70
  -7   5  10   25.70    2.10
   6  -5 -10    7.80    1.00
  -6   5  10    7.60    1.30
  -6   5  10    8.10    1.20
  -6   5  10    8.50    0.90
   5  -5 -10   12.40    1.20
  -5   5  10   11.70    1.40
  -5   5  10   13.80    1.10
  -5   5  10   10.00    1.00
   4  -5 -10   10.60    1.10
  -4   5  10    9.40    0.90
  -4   5  10    8.80    1.20
   3  -5 -10   91.09    4.10
  -3   5  10   88.29    3.80
  -3   5  10   88.69    3.80
  -3   5  10   92.39    4.30
   2  -5 -10    3.50    0.80
  -2   5  10    4.10    0.50
  -2   5  10    3.40    0.50
  -2   5  10    3.90    0.80
   1  -5 -10   84.29    4.20
  -1   5  10   84.09    4.00
  -1   5  10   86.29    3.50
   0  -5 -10   12.60    1.50
   0   5  10    9.90    1.00
  -1  -5 -10    1.60    0.70
   1   5  10    1.50    0.60
  -2  -5 -10   23.80    1.70
   2   5  10   25.70    1.60
  -3  -5 -10    9.20    1.20
   3   5  10    7.20    0.90
  -4  -5 -10   39.50    2.30
   4   5  10   41.40    2.20
  -5  -5 -10    7.90    0.60
  -5  -5 -10    8.50    1.20
   5   5  10    8.60    1.00
  -6  -5 -10   69.79    3.00
  -6  -5 -10   72.89    3.70
   6   5  10   68.79    3.10
   6   5  10   75.29    3.40
  -7  -5 -10    4.40    1.00
  -7  -5 -10    3.30    0.60
   7   5  10    1.90    0.60
   7   5  10    3.00    0.90
  -8  -5 -10    9.80    1.00
  -8  -5 -10    8.70    1.40
   8   5  10    9.20    1.20
  -9  -5 -10   41.80    2.10
  -9  -5 -10   37.70    2.50
   9   5  10   41.40    2.50
   9   5  10   32.80    2.40
 -10  -5 -10    3.30    1.10
 -10  -5 -10    3.00    1.00
  10   5  10    3.70    1.10
 -11  -5 -10   10.10    1.30
 -11  -5 -10    8.10    1.40
  11   5  10    7.80    1.40
 -12  -5 -10    2.70    1.10
 -12  -5 -10    2.80    1.10
  12   5  10    1.90    1.20
 -13  -5 -10   -1.30    1.20
 -13  -5 -10   -0.80    1.10
  13   5  10   -0.50    1.30
 -14  -5 -10    1.20    2.10
  14   5  10   -0.80    1.60
 -15  -5 -10   -2.20    1.40
 -15  -5 -10   -0.40    1.60
  15   5  10   -0.40    1.70
 -12   6  10   -0.80    1.60
 -12   6  10    2.30    1.20
 -11   6  10    6.40    1.30
 -11   6  10    8.30    1.90
 -10   6  10   24.80    2.00
 -10   6  10   20.10    2.50
  -9   6  10   34.90    1.80
  -9   6  10   43.60    3.00
  -9   6  10   41.50    2.50
   8  -6 -10    9.50    0.90
  -8   6  10   11.60    2.50
  -8   6  10   10.40    1.30
  -8   6  10    7.70    0.80
   7  -6 -10   19.60    1.30
  -7   6  10   19.30    1.50
  -7   6  10   20.10    1.90
   6  -6 -10    9.60    1.00
  -6   6  10    8.00    0.90
  -6   6  10    9.80    1.00
  -6   6  10    9.80    1.40
   5  -6 -10    9.50    1.10
  -5   6  10    8.50    1.20
  -5   6  10    9.00    1.00
  -5   6  10    9.00    1.00
   4  -6 -10   57.49    2.70
  -4   6  10   48.00    2.50
  -4   6  10   53.19    3.00
  -4   6  10   54.29    2.50
   3  -6 -10    2.20    0.70
  -3   6  10    0.90    0.70
  -3   6  10    0.70    0.40
  -3   6  10    0.20    0.50
   2  -6 -10   41.90    2.30
  -2   6  10   43.10    2.40
  -2   6  10   41.50    2.00
  -2   6  10   42.50    1.90
  -1   6  10  102.19    4.30
  -1   6  10  106.29    4.70
  -1   6  10  103.69    4.30
   0  -6 -10   99.59    4.70
   0   6  10  106.99    4.70
   0   6  10  103.99    4.20
  -1  -6 -10   71.49    3.50
   1   6  10   71.69    3.40
  -2  -6 -10   32.30    2.00
   2   6  10   34.80    2.10
  -3  -6 -10   75.09    3.70
  -4  -6 -10    5.30    0.90
  -4  -6 -10    6.30    0.50
  -5  -6 -10    1.00    0.40
  -5  -6 -10    0.10    0.60
   5   6  10    0.50    0.40
   5   6  10    0.70    0.80
  -6  -6 -10    3.10    0.90
  -6  -6 -10    3.10    0.50
   6   6  10    3.40    0.60
   6   6  10    2.20    0.70
  -7  -6 -10   14.90    1.10
  -7  -6 -10   13.10    1.60
   7   6  10   12.70    1.10
   7   6  10   15.60    1.40
  -8  -6 -10   18.30    1.30
  -8  -6 -10   17.40    1.70
   8   6  10   22.10    1.60
   8   6  10   16.30    1.40
  -9  -6 -10    5.30    0.90
  -9  -6 -10    6.70    1.30
   9   6  10    5.50    1.00
 -10  -6 -10    1.90    1.10
 -10  -6 -10    0.90    0.80
  10   6  10    0.30    0.90
 -11  -6 -10    1.40    0.90
 -11  -6 -10    2.70    1.20
  11   6  10    2.70    1.10
 -12  -6 -10    1.20    1.00
 -12  -6 -10    2.00    1.10
  12   6  10    0.00    1.20
 -13  -6 -10    0.40    1.20
 -13  -6 -10    3.40    2.30
  13   6  10    4.00    1.40
 -14  -6 -10    3.50    1.60
 -14  -6 -10    4.60    1.60
  14   6  10    3.40    1.60
 -15  -6 -10    5.20    1.60
 -15  -6 -10    3.90    1.70
  15   6  10    4.00    1.80
 -12   7  10    0.70    1.30
 -12   7  10    2.20    1.70
 -11   7  10    3.10    1.40
 -11   7  10    0.10    1.00
 -10   7  10    9.80    1.80
  -9   7  10    5.50    1.10
  -9   7  10    3.30    1.20
  -8   7  10    2.20    0.60
  -8   7  10    3.60    1.20
  -8   7  10    4.80    1.00
   7  -7 -10    8.40    1.00
  -7   7  10    6.70    1.40
  -7   7  10    7.80    1.10
   6  -7 -10   12.10    1.10
  -6   7  10   10.70    1.60
  -6   7  10   11.70    1.20
  -6   7  10   10.90    1.00
   5  -7 -10   43.40    2.40
  -5   7  10   45.30    2.30
  -5   7  10   42.20    2.70
   4  -7 -10   10.70    1.20
  -4   7  10    8.20    0.90
  -4   7  10    8.40    1.30
  -4   7  10   10.60    1.00
   3  -7 -10   11.20    1.20
  -3   7  10   11.50    1.20
  -3   7  10   13.80    1.40
  -3   7  10   12.00    1.00
  -2   7  10   20.00    1.60
  -2   7  10   20.90    1.20
  -2   7  10   18.80    1.20
   1  -7 -10    0.40    0.60
  -1   7  10    0.40    0.40
  -1   7  10    1.50    0.60
  -1   7  10    0.70    0.40
   0  -7 -10   22.00    1.70
   0   7  10   24.50    1.30
   0   7  10   27.50    1.70
   0   7  10   23.90    1.20
  -1  -7 -10   12.50    1.20
   1   7  10   12.90    0.80
   1   7  10   12.10    1.10
   1   7  10   10.90    0.70
  -2  -7 -10   38.20    2.30
   2   7  10   36.10    1.70
  -3  -7 -10   28.00    1.90
  -3  -7 -10   27.80    1.30
   3   7  10   26.30    1.30
   3   7  10   29.10    1.70
  -4  -7 -10   31.70    2.10
  -4  -7 -10   30.70    1.50
   4   7  10   31.80    1.80
   4   7  10   30.50    1.50
  -5  -7 -10   54.99    2.40
  -5  -7 -10   53.89    3.00
   5   7  10   56.69    2.70
   5   7  10   52.19    2.40
  -6  -7 -10   31.00    2.20
  -6  -7 -10   34.30    1.70
   6   7  10   31.90    2.20
   6   7  10   30.80    1.70
  -7  -7 -10    3.70    0.80
  -7  -7 -10    5.30    1.10
   7   7  10    3.90    0.80
   7   7  10    5.40    1.20
  -8  -7 -10   50.79    3.00
  -8  -7 -10   50.59    2.50
   8   7  10   53.49    2.70
   8   7  10   47.80    2.60
  -9  -7 -10   11.00    1.40
  -9  -7 -10    8.10    1.30
   9   7  10   10.40    1.30
 -10  -7 -10   30.50    2.40
 -10  -7 -10   34.70    2.10
  10   7  10   30.60    2.20
 -11  -7 -10    2.20    1.00
 -11  -7 -10    2.80    1.20
  11   7  10    2.10    1.20
 -12  -7 -10    8.30    1.80
 -12  -7 -10   11.30    1.50
  12   7  10   10.00    1.50
 -13  -7 -10    0.40    1.40
 -13  -7 -10    0.70    1.20
  13   7  10    1.90    1.40
 -14  -7 -10    0.90    1.50
 -14  -7 -10   -0.20    1.30
  14   7  10    0.90    1.60
 -11   8  10    2.10    1.10
 -11   8  10    1.10    1.40
 -10   8  10    7.40    1.40
 -10   8  10   11.90    2.00
  -9   8  10   22.70    1.90
  -9   8  10   22.60    2.40
  -8   8  10   11.70    1.20
  -8   8  10   10.50    1.70
  -8   8  10   12.40    1.10
  -8   8  10   10.70    1.30
  -7   8  10   17.60    1.50
  -7   8  10   18.60    1.90
  -7   8  10   12.40    1.10
   6  -8 -10   27.30    1.70
  -6   8  10   28.30    2.30
  -6   8  10   25.90    1.70
  -6   8  10   23.50    1.50
   5  -8 -10   26.80    1.80
  -5   8  10   25.20    1.70
  -5   8  10   26.60    2.20
   4  -8 -10   27.20    1.80
  -4   8  10   28.50    1.70
  -4   8  10   24.30    2.00
   3  -8 -10    6.90    1.20
  -3   8  10    4.10    0.70
  -3   8  10    3.40    0.90
  -3   8  10    5.50    0.80
   2  -8 -10   11.20    1.20
  -2   8  10    9.80    1.00
  -2   8  10    9.20    1.20
   1  -8 -10    0.70    0.70
  -1   8  10    0.60    0.50
  -1   8  10    1.20    0.60
  -1   8  10    1.00    0.50
   0  -8 -10  123.49    5.50
   0   8  10  111.19    4.90
   0   8  10  122.39    5.00
   0   8  10  121.09    5.30
  -1  -8 -10    4.00    1.00
   1   8  10    4.30    0.50
   1   8  10    4.80    0.80
   1   8  10    4.40    0.60
  -2  -8 -10    8.00    0.80
  -2  -8 -10    8.90    1.20
   2   8  10    8.80    0.70
  -3  -8 -10    7.80    0.70
  -3  -8 -10    8.10    1.20
   3   8  10    8.40    0.90
   3   8  10    6.60    0.70
  -4  -8 -10    7.10    1.20
  -4  -8 -10    7.50    0.80
   4   8  10    7.60    0.90
   4   8  10    6.30    0.70
  -5  -8 -10    5.20    0.70
  -5  -8 -10    6.40    1.10
   5   8  10    4.80    0.70
   5   8  10    4.80    0.70
  -6  -8 -10    1.50    0.90
  -6  -8 -10    1.10    0.60
   6   8  10    1.40    0.60
   6   8  10    0.90    0.90
  -7  -8 -10   18.20    1.40
  -7  -8 -10   19.40    1.80
   7   8  10   19.40    1.40
   7   8  10   15.60    1.40
  -8  -8 -10    0.40    0.90
  -8  -8 -10    2.30    0.80
  -9  -8 -10    1.80    0.90
  -9  -8 -10    1.30    1.10
   9   8  10    2.70    0.90
 -10  -8 -10   61.39    3.60
 -10  -8 -10   61.59    3.20
  10   8  10   63.39    3.30
 -11  -8 -10   20.60    1.90
 -11  -8 -10   17.60    2.70
  11   8  10   19.70    1.90
 -12  -8 -10    2.30    1.40
 -12  -8 -10    2.20    1.30
  12   8  10    3.20    1.20
 -13  -8 -10    7.60    1.70
 -13  -8 -10   13.50    1.90
  13   8  10   12.70    1.70
 -14  -8 -10    0.80    1.50
 -14  -8 -10   -0.50    1.40
  14   8  10    2.10    1.50
 -11   9  10    3.80    1.30
 -11   9  10    3.80    1.70
 -10   9  10    3.10    1.10
 -10   9  10    1.80    1.30
  -9   9  10   -0.90    1.20
  -8   9  10    6.60    0.80
  -8   9  10    5.00    1.20
  -8   9  10    8.10    1.60
  -7   9  10    2.50    0.90
  -7   9  10    2.60    0.80
  -7   9  10    1.60    0.70
  -7   9  10    2.30    1.20
  -6   9  10    4.40    1.30
  -6   9  10    5.50    1.00
   5  -9 -10    4.10    1.00
  -5   9  10    4.80    0.90
  -5   9  10    2.80    1.00
   4  -9 -10   23.90    1.70
  -4   9  10   22.10    1.90
  -4   9  10   23.80    1.60
   3  -9 -10   67.09    3.40
  -3   9  10   67.09    3.50
  -3   9  10   63.59    3.10
   2  -9 -10  125.29    5.60
  -2   9  10  118.29    5.20
  -2   9  10  122.29    5.60
  -2   9  10  122.29    5.30
   1  -9 -10  128.29    6.00
  -1   9  10  134.59    5.90
  -1   9  10  127.29    5.60
  -1   9  10  138.59    5.70
   0  -9 -10   38.70    2.40
   0   9  10   40.20    2.10
   0   9  10   42.20    2.30
  -1  -9 -10   86.39    4.20
   1   9  10   78.59    3.60
   1   9  10   88.29    3.90
  -2  -9 -10   27.50    2.00
  -2  -9 -10   27.00    1.50
   2   9  10   26.60    1.50
  -3  -9 -10   63.59    2.90
  -3  -9 -10   67.09    3.50
   3   9  10   58.09    2.90
   3   9  10   70.79    3.10
  -4  -9 -10   11.20    1.10
  -4  -9 -10   13.60    1.50
   4   9  10   10.80    1.10
  -5  -9 -10    0.90    0.80
  -5  -9 -10    0.90    0.60
   5   9  10    1.00    0.60
   5   9  10    0.80    0.60
  -6  -9 -10    0.30    0.80
  -6  -9 -10    1.50    0.70
   6   9  10    0.70    0.60
   6   9  10    0.70    0.70
  -7  -9 -10    1.70    0.70
  -7  -9 -10    2.00    1.10
   7   9  10   -0.10    0.60
  -8  -9 -10   54.19    3.30
  -8  -9 -10   55.29    2.90
   8   9  10   57.39    2.80
  -9  -9 -10   -0.40    0.70
  -9  -9 -10    1.70    1.10
   9   9  10    2.10    0.90
 -10  -9 -10    9.70    1.50
 -11  -9 -10    5.10    1.40
 -11  -9 -10    7.00    1.60
  11   9  10    6.70    1.20
 -12  -9 -10    1.40    1.30
 -12  -9 -10    0.20    1.40
  12   9  10    1.50    1.10
 -13  -9 -10    2.00    1.40
 -13  -9 -10    2.80    1.60
  13   9  10    0.40    1.30
 -14  -9 -10    3.70    1.60
  14   9  10   -0.70    1.80
 -10  10  10    2.50    1.70
 -10  10  10    0.40    1.00
  -9  10  10    9.40    1.50
  -9  10  10   12.10    2.00
  -8  10  10    7.00    1.00
  -8  10  10    7.00    1.30
  -8  10  10    5.50    1.60
  -7  10  10   11.60    1.20
  -7  10  10   11.30    1.40
  -7  10  10   14.30    1.90
  -6  10  10    9.60    1.30
  -6  10  10    9.00    1.30
  -6  10  10    9.50    2.10
  -5  10  10   23.50    2.20
  -5  10  10   25.60    1.80
   4 -10 -10    6.20    1.00
  -4  10  10    7.00    1.30
  -4  10  10    8.70    1.10
   3 -10 -10   16.00    1.40
  -3  10  10   15.60    1.60
  -3  10  10   13.30    1.30
   2 -10 -10    6.80    1.10
  -2  10  10    6.20    1.00
   1 -10 -10    6.80    1.10
  -1  10  10    7.50    1.00
  -1  10  10    7.20    1.10
   0 -10 -10    4.40    1.00
   0  10  10    5.00    0.90
   0  10  10    5.20    0.80
   0  10  10    5.00    0.80
  -1 -10 -10    0.70    0.70
  -1 -10 -10    0.30    0.80
   1  10  10    1.20    0.60
   1  10  10    0.00    0.50
  -2 -10 -10    7.20    1.20
  -2 -10 -10    7.40    0.90
   2  10  10    8.60    0.90
   2  10  10    7.70    1.10
  -3 -10 -10    2.30    1.00
  -3 -10 -10    1.10    0.70
   3  10  10    1.70    0.60
   3  10  10    1.40    0.60
  -4 -10 -10    6.00    1.20
  -4 -10 -10    5.40    0.80
   4  10  10    6.10    0.80
  -5 -10 -10   21.70    2.00
  -5 -10 -10   24.40    1.60
   5  10  10   25.60    1.50
   5  10  10   19.30    1.70
  -6 -10 -10   34.90    2.50
   6  10  10   29.30    2.10
   6  10  10   35.10    1.90
  -7 -10 -10    7.10    1.40
  -7 -10 -10    6.20    1.00
   7  10  10    7.00    0.90
  -8 -10 -10   20.10    2.10
  -8 -10 -10   21.00    1.60
   8  10  10   20.20    1.50
  -9 -10 -10    3.90    1.20
  -9 -10 -10    2.60    1.30
  -9 -10 -10    3.20    1.50
   9  10  10    2.00    0.80
 -10 -10 -10   17.20    2.20
 -10 -10 -10   19.80    1.90
  10  10  10   19.80    1.60
 -11 -10 -10   19.00    2.30
 -11 -10 -10   20.30    2.10
  11  10  10   20.50    1.70
  12  10  10    2.40    1.60
  12  10  10    4.70    1.30
 -13 -10 -10    1.10    1.50
  13  10  10   -0.90    1.80
 -10  11  10   14.60    1.90
 -10  11  10   14.50    2.40
  -9  11  10    4.80    1.70
  -9  11  10    5.30    1.20
  -8  11  10   31.20    1.90
  -8  11  10   28.60    2.30
  -8  11  10   30.70    2.90
  -7  11  10   13.10    1.90
  -7  11  10   13.80    1.70
  -7  11  10   13.60    1.50
  -6  11  10    0.90    1.10
  -6  11  10    0.50    0.80
  -6  11  10    0.00    0.80
  -5  11  10    9.50    1.60
  -5  11  10   12.40    1.40
  -5  11  10   11.00    1.40
  -4  11  10   23.50    2.00
  -4  11  10   23.60    1.80
  -4  11  10   24.40    1.90
  -3  11  10   36.70    2.40
  -3  11  10   36.40    2.50
  -3  11  10   36.60    2.20
   2 -11 -10   34.70    2.30
  -2  11  10   35.90    2.10
  -2  11  10   30.80    2.20
   1 -11 -10   27.30    2.10
  -1  11  10   31.10    1.90
  -1  11  10   32.40    2.10
   0 -11 -10   60.59    3.40
   0  11  10   63.39    3.20
   0  11  10   60.89    3.10
  -1 -11 -10   15.70    1.60
   1  11  10   12.70    1.30
  -2 -11 -10   46.80    2.90
   2  11  10   48.00    2.50
  -3 -11 -10    7.00    1.30
   3  11  10    5.70    0.80
  -4 -11 -10   42.10    2.40
  -4 -11 -10   43.80    2.90
   4  11  10   39.90    3.40
   4  11  10   48.30    2.30
  -5 -11 -10   33.90    2.10
  -5 -11 -10   35.70    2.60
   5  11  10   34.90    1.80
   5  11  10   32.60    2.10
  -6 -11 -10   19.40    2.00
  -6 -11 -10   19.10    1.60
   6  11  10   19.70    1.30
   6  11  10   18.50    1.60
  -7 -11 -10    4.10    1.00
   7  11  10    4.70    0.70
  -8 -11 -10   15.70    1.70
  -8 -11 -10   11.40    1.80
   8  11  10   14.00    1.30
  -9 -11 -10    1.80    1.30
  -9 -11 -10    0.20    1.00
   9  11  10    1.20    0.70
 -10 -11 -10    3.50    1.30
  10  11  10    4.50    1.70
  10  11  10    3.20    0.80
 -11 -11 -10   -0.40    1.40
  11  11  10    1.00    1.50
 -12 -11 -10   -1.50    1.30
  12  11  10   -1.50    1.60
  -9  12  10   -0.40    1.20
  -9  12  10    5.40    1.80
  -8  12  10    5.90    1.30
  -8  12  10    8.10    1.90
  -7  12  10    1.00    1.00
  -7  12  10    0.60    1.30
  -7  12  10    0.30    0.90
  -6  12  10    0.50    0.90
  -6  12  10    0.00    1.00
  -6  12  10   -0.30    1.10
  -5  12  10    4.50    1.20
  -5  12  10    4.60    1.40
  -5  12  10    3.90    1.00
  -4  12  10    8.70    1.40
  -4  12  10    6.80    1.40
  -4  12  10    8.50    1.30
  -3  12  10    1.50    1.00
  -3  12  10    2.30    1.00
  -3  12  10    2.20    1.00
  -2  12  10    0.10    0.80
  -2  12  10    2.00    0.90
  -2  12  10   -0.60    0.90
  -1  12  10    1.40    0.80
  -1  12  10   -0.30    0.80
  -1  12  10    1.70    0.90
   0  12  10    0.60    0.70
   0  12  10    1.90    0.80
  -1 -12 -10    2.10    0.70
   1  12  10    1.90    0.80
  -2 -12 -10    2.30    1.00
  -2 -12 -10    2.60    0.90
   2  12  10    4.00    0.80
  -3 -12 -10   22.70    2.20
  -3 -12 -10   26.40    1.90
   3  12  10   29.60    1.70
  -4 -12 -10    4.80    1.30
  -4 -12 -10    6.50    1.10
   4  12  10    3.80    1.00
   4  12  10    6.00    0.80
  -5 -12 -10   23.60    1.80
   5  12  10   25.20    1.80
   5  12  10   24.70    1.50
  -6 -12 -10   23.90    1.90
   6  12  10   23.70    1.70
   6  12  10   22.70    1.40
  -7 -12 -10   10.70    1.30
   7  12  10   12.00    1.10
   7  12  10   10.10    1.70
  -8 -12 -10    8.20    1.40
   8  12  10   11.30    1.90
   8  12  10   11.00    1.00
  -9 -12 -10   10.50    1.60
   9  12  10    9.20    1.90
 -10 -12 -10    0.10    2.20
  10  12  10    0.30    1.50
 -11 -12 -10    2.10    1.40
  11  12  10   -0.90    1.60
 -12 -12 -10    8.10    1.80
  12  12  10    4.00    1.80
  -8  13  10    1.80    1.40
  -8  13  10    2.40    1.70
  -7  13  10   33.40    3.10
  -7  13  10   31.10    2.20
  -7  13  10   30.90    2.50
  -6  13  10    8.40    1.40
  -6  13  10   10.70    1.60
  -6  13  10   11.90    1.90
  -5  13  10    6.50    1.20
  -5  13  10    7.20    1.50
  -4  13  10   17.50    1.90
  -4  13  10   19.40    2.00
  -3  13  10   10.10    1.40
  -3  13  10    9.30    1.50
  -3  13  10    9.20    1.40
  -2  13  10    9.20    1.50
  -2  13  10   12.60    1.60
  -2  13  10   10.20    1.50
  -1  13  10   19.70    2.00
  -1  13  10   16.00    1.70
  -1  13  10   17.30    1.70
   0  13  10   22.70    1.80
   0  13  10   22.40    2.10
  -1 -13 -10    8.00    1.20
   1  13  10    6.50    1.50
   1  13  10    6.90    1.10
  -2 -13 -10    8.00    1.20
   2  13  10   10.00    1.10
  -3 -13 -10    7.10    1.20
   3  13  10    4.80    1.40
   3  13  10    8.70    1.00
  -4 -13 -10    5.10    1.20
   4  13  10    6.70    1.40
   4  13  10    4.30    0.70
  -5 -13 -10    3.90    1.10
   5  13  10    4.00    1.20
   5  13  10    3.10    0.70
  -6 -13 -10    0.90    1.10
   6  13  10    0.40    1.10
  -7 -13 -10    1.10    1.10
   7  13  10   -0.10    1.30
  -8 -13 -10    0.20    1.20
   8  13  10   -1.70    1.30
  -9 -13 -10    1.40    1.50
   9  13  10    3.80    1.70
 -10 -13 -10   -0.80    1.40
  10  13  10   -0.10    1.40
 -11 -13 -10    6.30    1.80
  11  13  10    9.10    2.30
  -7  14  10    0.90    1.40
  -7  14  10   -1.00    1.20
  -7  14  10    1.10    1.50
  -6  14  10    1.10    1.20
  -6  14  10    0.70    1.20
  -6  14  10    2.30    1.50
  -5  14  10   18.50    2.10
  -5  14  10   19.60    2.10
  -5  14  10   15.20    1.90
  -4  14  10    0.80    1.10
  -4  14  10    1.60    1.20
  -4  14  10    1.10    1.20
  -3  14  10    9.60    1.60
  -3  14  10    7.30    1.40
  -2  14  10   23.20    2.10
  -2  14  10   19.90    2.10
  -1  14  10   20.10    1.90
  -1  14  10   22.80    2.00
  -1  14  10   19.50    2.10
   0  14  10   25.20    2.00
   0  14  10   22.40    2.30
  -1 -14 -10    3.80    1.10
   1  14  10    4.70    1.30
   1  14  10    4.20    1.00
  -2 -14 -10   21.20    2.00
   2  14  10   20.80    2.20
   2  14  10   21.60    1.70
  -3 -14 -10    3.50    1.20
   3  14  10    4.40    1.40
   3  14  10    3.10    0.80
  -4 -14 -10   11.00    1.50
   4  14  10   15.50    2.00
   4  14  10   11.50    1.10
  -5 -14 -10   12.50    1.60
   5  14  10   12.20    1.00
   5  14  10   13.20    2.00
  -6 -14 -10   18.90    1.90
   6  14  10   23.50    2.50
   7  14  10    7.30    1.70
  -8 -14 -10    4.50    1.40
   8  14  10    5.30    1.70
  -9 -14 -10    9.00    1.70
   9  14  10    9.00    2.10
  -5  15  10    2.00    1.50
  -5  15  10    4.80    1.50
  -5  15  10    4.60    1.60
  -4  15  10   18.20    2.00
  -4  15  10   23.90    2.40
  -4  15  10   16.50    2.00
  -3  15  10   21.80    2.20
  -3  15  10   20.90    2.30
  -3  15  10   19.30    2.20
  -2  15  10    2.00    1.30
  -2  15  10    3.80    1.20
  -2  15  10    1.40    1.10
  -1  15  10    2.00    1.20
  -1  15  10    1.00    1.10
  -1  15  10   -0.30    1.10
   0  15  10    1.20    1.20
   0  15  10    0.10    1.00
   1  15  10    4.80    1.20
   1  15  10    7.40    1.60
   2  15  10   17.40    1.60
   2  15  10   15.30    2.10
  -3 -15 -10    0.70    1.30
   3  15  10   -0.70    1.20
   3  15  10    0.90    0.70
  -4 -15 -10   -0.80    1.10
   4  15  10   -0.30    1.30
  -5 -15 -10    3.40    1.20
   5  15  10    2.30    1.50
  -6 -15 -10    3.50    1.30
   6  15  10    1.30    1.40
  -7 -15 -10    4.50    1.40
   7  15  10    1.60    1.50
  -8 -15 -10    0.60    1.40
  -2  16  10    5.90    1.60
  -2  16  10    4.10    1.60
  -1  16  10    2.80    1.30
  -1  16  10    3.90    1.60
  -1  16  10    4.10    1.40
   0  16  10    9.30    1.40
   0  16  10    6.80    1.80
  -1 -16 -10    0.10    1.10
   1  16  10    0.10    1.10
   1  16  10    0.00    1.30
  -2 -16 -10   13.10    1.70
   2  16  10   16.10    2.20
  -3 -16 -10    9.80    1.60
   3  16  10    8.70    1.90
  -4 -16 -10   11.90    1.80
   4  16  10   11.30    2.20
  -5 -16 -10    3.00    1.40
   5  16  10    4.10    1.80
   0   8 -11   -0.60    2.50
   0  -8  11   -0.90    1.40
   0  -8  11    2.50    1.50
  -1   8 -11    2.40    1.70
   1  -8  11   -1.50    1.40
   1  -8  11    1.80    1.50
  -2   8 -11    1.60    1.70
   2  -8  11   -0.10    1.40
   2  -8  11    1.80    1.50
  -3   8 -11    0.70    1.60
  -3   8 -11    0.00    1.90
   3  -8  11    0.10    1.50
   4   7 -11    0.70    1.60
  -4  -7  11    0.20    1.80
  -4  -7  11    1.70    1.50
   3   7 -11    3.30    1.60
  -3  -7  11    3.00    1.50
  -3  -7  11   -1.00    1.60
   2   7 -11    1.10    1.40
  -2  -7  11    2.50    1.40
  -2  -7  11   -0.80    1.30
   1   7 -11    9.50    1.80
  -1  -7  11    6.30    1.50
   0   7 -11   -0.80    1.30
   0  -7  11    2.70    1.40
   0  -7  11    3.80    1.40
  -1   7 -11    0.00    1.40
   1  -7  11   -0.50    1.30
   1  -7  11    0.50    1.30
  -2   7 -11    0.90    1.30
   2  -7  11    1.10    1.30
   2  -7  11    1.60    1.40
  -3   7 -11   -2.60    1.30
  -3   7 -11    1.40    1.60
   3  -7  11   -1.20    1.40
  -4   7 -11   14.00    1.90
  -4   7 -11   12.90    2.00
   4  -7  11   11.30    1.90
  -5   7 -11   -1.30    1.40
   5  -7  11   -2.40    1.40
  -6   7 -11   -2.30    1.60
  -6   7 -11    2.60    1.70
   6  -7  11   -0.70    1.50
   6   6 -11   -0.20    1.40
  -6  -6  11   -0.60    1.30
  -6  -6  11   -0.50    2.50
   5   6 -11    2.10    1.50
  -5  -6  11    0.70    1.30
  -5  -6  11    2.40    1.30
   4   6 -11    2.90    1.50
  -4  -6  11    6.00    1.30
   3   6 -11   -1.60    1.20
  -3  -6  11    0.90    1.20
  -3  -6  11    0.00    1.10
   2   6 -11    2.20    1.40
  -2  -6  11    1.50    1.10
  -2  -6  11    1.30    1.20
   1   6 -11    1.50    1.30
  -1  -6  11   -0.50    1.10
  -1  -6  11   -0.10    1.10
   0   6 -11    6.10    1.60
   0  -6  11    9.10    2.30
   0  -6  11    5.70    1.30
  -1   6 -11    4.80    1.40
   1  -6  11    3.90    1.20
   1  -6  11    6.10    1.80
  -2   6 -11    0.70    1.30
   2  -6  11    1.60    1.10
   2  -6  11    1.60    1.20
  -3   6 -11    6.40    1.40
  -3   6 -11    8.00    1.60
   3  -6  11    7.90    1.60
  -4   6 -11    7.60    1.60
  -4   6 -11    8.60    1.60
   4  -6  11    5.30    1.50
  -5   6 -11   -2.60    1.30
  -5   6 -11    1.80    1.40
   5  -6  11   -0.20    1.20
  -6   6 -11   13.30    2.00
  -6   6 -11   12.70    1.80
   6  -6  11   12.60    2.10
  -7   6 -11    4.60    1.80
  -7   6 -11    9.00    1.90
   7  -6  11    6.80    1.80
  -8   6 -11    5.50    1.60
   8  -6  11    3.40    1.70
   7   5 -11    7.80    1.70
  -7  -5  11    6.30    2.50
  -7  -5  11   12.40    1.60
   6   5 -11    2.20    1.30
  -6  -5  11    0.30    1.20
  -6  -5  11    1.50    1.30
   5   5 -11    5.20    1.50
  -5  -5  11    6.10    1.40
  -5  -5  11    4.80    1.30
   4   5 -11   10.80    1.70
  -4  -5  11    8.70    1.40
  -4  -5  11    7.90    1.30
   3   5 -11   23.90    2.20
  -3  -5  11   19.10    2.10
  -3  -5  11   24.80    2.10
   2   5 -11    9.90    1.50
  -2  -5  11    7.70    1.30
  -2  -5  11    7.80    1.40
   1   5 -11    2.40    1.20
  -1  -5  11    2.60    1.10
  -1  -5  11    2.80    1.00
   0   5 -11    1.20    1.00
   0  -5  11    1.30    1.00
   0  -5  11    0.50    1.00
  -1   5 -11    1.20    1.10
   1  -5  11   -0.30    0.90
   1  -5  11   -0.50    1.00
  -2   5 -11    3.00    1.10
   2  -5  11    2.00    1.00
   2  -5  11    1.90    1.20
  -3   5 -11    5.80    1.30
  -3   5 -11    3.90    1.30
   3  -5  11    7.10    2.20
  -4   5 -11   23.10    2.20
  -4   5 -11   20.90    2.00
   4  -5  11   16.60    2.00
  -5   5 -11    2.10    1.40
  -5   5 -11   -1.10    1.20
   5  -5  11    1.80    1.30
  -6   5 -11    3.50    1.40
  -6   5 -11    1.90    1.30
   6  -5  11    0.50    1.30
  -7   5 -11    0.10    1.30
  -7   5 -11    2.30    1.50
   7  -5  11    0.00    1.30
  -8   5 -11    0.80    1.40
  -8   5 -11    0.80    1.50
   8  -5  11   -0.20    1.40
  -9   5 -11    1.20    1.50
  -9   5 -11    1.10    1.40
   9  -5  11   -0.50    1.50
 -10   5 -11   -0.50    1.50
 -10   5 -11    4.10    1.70
  10  -5  11    3.90    2.00
   8   4 -11   -1.10    1.30
  -8  -4  11    0.70    1.30
  -8  -4  11   -0.40    1.20
   7   4 -11    3.20    1.40
  -7  -4  11    0.20    1.20
  -7  -4  11    0.50    1.30
   6   4 -11    1.10    1.30
  -6  -4  11    1.90    1.00
  -6  -4  11   -0.10    1.10
   5   4 -11   24.10    2.20
  -5  -4  11   23.10    2.00
  -5  -4  11   21.30    2.00
   4   4 -11    1.20    1.10
  -4  -4  11   -0.10    0.90
  -4  -4  11   -1.40    0.90
   3   4 -11    9.10    1.40
  -3  -4  11    2.80    1.10
  -3  -4  11    5.80    1.10
   2   4 -11    5.70    1.60
  -2  -4  11    4.10    1.00
  -2  -4  11    3.20    1.20
   1   4 -11    8.80    2.70
  -1  -4  11    7.70    1.10
  -1  -4  11    6.00    1.20
   0  -4  11    6.50    1.10
   0  -4  11    9.30    1.40
   1  -4  11    2.10    1.10
   1  -4  11    2.40    0.90
  -2   4 -11    2.60    2.00
   2  -4  11    2.60    1.10
   2  -4  11    0.50    0.90
  -3   4 -11   16.20    1.60
  -3   4 -11   14.00    2.30
   3  -4  11   14.00    1.80
  -4   4 -11   23.90    2.30
  -4   4 -11   23.00    1.80
   4  -4  11   23.70    2.30
  -5   4 -11    3.20    1.20
  -5   4 -11    2.00    1.00
   5  -4  11    0.50    1.30
  -6   4 -11   14.00    1.80
  -6   4 -11   13.10    1.50
   6  -4  11   11.30    1.80
  -7   4 -11   19.80    2.10
  -7   4 -11   16.90    1.80
   7  -4  11   14.00    2.00
  -8   4 -11    0.60    1.40
  -8   4 -11    0.10    1.20
   8  -4  11    0.70    1.40
  -9   4 -11    5.40    1.40
  -9   4 -11    6.40    1.50
   9  -4  11    5.90    1.60
 -10   4 -11    3.00    1.50
 -10   4 -11    6.00    1.70
  10  -4  11    5.10    1.60
 -11   4 -11    1.10    1.50
 -11   4 -11    2.60    1.50
  11  -4  11   -0.90    1.80
   9   3 -11   13.80    1.80
  -9  -3  11   17.10    1.90
  -9  -3  11   11.40    1.70
   8   3 -11   12.00    2.10
  -8  -3  11    8.70    2.00
  -8  -3  11   10.80    1.70
   7   3 -11    1.80    2.20
  -7  -3  11    3.40    1.20
  -7  -3  11    4.50    1.20
   6   3 -11    3.50    1.40
  -6  -3  11    2.20    1.10
  -6  -3  11    2.10    1.00
   5   3 -11    1.40    1.20
  -5  -3  11    1.10    1.00
  -5  -3  11    1.60    0.90
   4   3 -11    7.00    1.40
  -4  -3  11    6.00    1.20
  -4  -3  11    6.90    1.10
   3   3 -11   29.50    2.30
  -3  -3  11   32.20    2.00
  -3  -3  11   29.50    2.20
   2   3 -11    2.90    1.10
  -2  -3  11    1.80    1.00
  -2  -3  11    3.00    0.80
   1   3 -11   -0.80    0.90
  -1  -3  11   -1.30    0.80
  -1  -3  11    0.50    0.90
   0   3 -11    1.00    1.10
   0  -3  11    1.10    0.80
   0  -3  11    0.30    0.90
  -1   3 -11   -0.50    1.00
  -1   3 -11    2.00    1.10
   1  -3  11    1.30    0.80
   1  -3  11    0.00    0.90
  -2   3 -11   -0.80    0.90
  -2   3 -11   -0.40    0.80
   2  -3  11    0.60    0.90
   2  -3  11    0.80    0.70
  -3   3 -11    6.30    1.10
  -3   3 -11    5.80    1.30
  -3   3 -11    4.90    1.20
   3  -3  11    8.40    1.40
  -4   3 -11    4.70    1.20
  -4   3 -11    4.10    0.90
   4  -3  11    3.10    1.20
  -5   3 -11    2.10    1.00
  -5   3 -11    1.50    0.90
   5  -3  11    2.80    1.20
  -6   3 -11   -0.50    0.90
  -6   3 -11    0.30    1.10
  -7   3 -11    3.60    1.00
   7  -3  11    4.20    1.50
  -8   3 -11    2.70    1.00
  -8   3 -11    3.60    1.30
   8  -3  11    2.80    1.40
  -9   3 -11   -2.10    1.10
  -9   3 -11    0.00    1.20
   9  -3  11   -1.40    1.30
 -10   3 -11    3.50    1.20
 -10   3 -11    1.60    1.30
  10  -3  11    0.90    1.40
 -11   3 -11   -0.30    1.30
 -11   3 -11    4.40    1.50
  11  -3  11    4.50    1.70
 -12   3 -11    6.20    1.60
 -12   3 -11    4.50    1.70
  12  -3  11    0.40    2.40
  10   2 -11    3.50    1.50
 -10  -2  11    0.90    1.30
 -10  -2  11    3.30    1.30
   9   2 -11    1.80    1.20
  -9  -2  11    1.40    1.20
  -9  -2  11    0.10    1.30
   8   2 -11    1.90    1.10
  -8  -2  11    1.30    1.30
   7   2 -11    2.30    1.20
  -7  -2  11    1.70    1.00
  -7  -2  11    2.30    1.10
   6   2 -11   -0.70    0.90
  -6  -2  11   -0.60    0.80
  -6  -2  11    0.50    0.90
   5   2 -11   13.10    1.60
  -5  -2  11   10.40    1.40
  -5  -2  11   11.70    1.30
   4   2 -11    4.60    1.20
  -4  -2  11    3.10    1.00
  -4  -2  11    4.00    0.90
   3   2 -11    3.60    1.10
  -3  -2  11    3.00    1.00
   2   2 -11   79.99    4.30
   2   2 -11   91.29    4.50
  -2  -2  11   92.89    4.30
  -2  -2  11   93.09    4.00
   1   2 -11  102.59    4.70
   1   2 -11  115.79    5.20
  -1  -2  11  104.49    5.00
  -1  -2  11  111.39    4.70
   0   2 -11   23.90    2.00
   0   2 -11   24.90    2.00
   0  -2  11   22.50    1.50
   0  -2  11   21.20    1.90
  -1   2 -11    4.30    0.90
  -1   2 -11    3.50    1.00
   1  -2  11    5.10    0.80
   1  -2  11    4.30    1.10
  -2   2 -11   35.10    2.40
  -2   2 -11   33.40    1.80
   2  -2  11   33.60    2.30
  -3   2 -11    2.50    0.80
  -3   2 -11    2.20    0.70
  -3   2 -11    2.60    1.00
   3  -2  11    2.70    1.00
  -4   2 -11    3.30    0.80
  -4   2 -11    3.20    1.10
   4  -2  11    2.70    1.00
  -5   2 -11    9.90    1.50
  -5   2 -11    9.30    1.00
  -5   2 -11   10.40    1.10
   5  -2  11    9.40    1.40
  -6   2 -11    8.30    1.00
  -6   2 -11    7.20    1.10
  -6   2 -11    7.60    1.30
   6  -2  11    7.10    1.40
  -7   2 -11    0.50    0.80
  -7   2 -11    0.60    1.10
  -8   2 -11    1.30    1.20
  -8   2 -11    0.30    0.90
   8  -2  11    1.90    1.30
  -9   2 -11    7.40    1.80
  -9   2 -11    6.90    1.20
   9  -2  11    5.60    1.40
 -10   2 -11   -0.20    1.10
 -10   2 -11    0.20    1.10
  10  -2  11    0.60    1.30
 -11   2 -11   -1.10    1.30
 -11   2 -11   -0.70    1.10
  11  -2  11   -1.10    1.40
 -12   2 -11    1.80    1.50
 -12   2 -11   -0.90    1.40
  12  -2  11   -2.70    1.50
  10   1 -11    9.10    1.60
 -10  -1  11    7.00    1.60
 -10  -1  11    8.90    1.50
   9   1 -11   -0.70    1.00
  -9  -1  11    0.50    1.20
  -9  -1  11    1.20    1.50
   8   1 -11   11.70    1.50
  -8  -1  11   12.60    1.50
   7   1 -11    3.90    1.20
  -7  -1  11    4.20    1.00
  -7  -1  11    4.30    1.10
   6   1 -11    3.80    1.10
  -6  -1  11    3.70    1.00
  -6  -1  11    3.10    1.00
   5   1 -11    1.70    0.90
  -5  -1  11    0.20    0.80
  -5  -1  11    1.60    0.80
   4   1 -11    7.20    1.30
  -4  -1  11    6.40    1.10
  -4  -1  11    5.30    1.10
   3   1 -11    1.30    0.90
   3   1 -11   -0.20    0.80
  -3  -1  11    0.80    0.60
  -3  -1  11    0.10    0.90
   2   1 -11    3.90    1.10
   2   1 -11    3.20    1.30
  -2  -1  11    2.40    0.60
  -2  -1  11    1.30    0.80
   1   1 -11    7.70    0.80
   1   1 -11    7.20    1.20
  -1  -1  11    6.20    1.10
  -1  -1  11    7.90    0.80
   0   1 -11   23.10    1.90
   0   1 -11   23.40    1.40
   0  -1  11   23.30    1.40
   0  -1  11   25.40    1.90
  -1   1 -11    3.00    0.60
  -1   1 -11    1.50    0.90
   1  -1  11    3.70    0.60
   1  -1  11    2.40    0.90
  -2   1 -11    5.60    0.70
  -2   1 -11    5.00    0.70
  -2   1 -11    5.70    1.00
   2  -1  11    5.00    1.00
  -3   1 -11    3.80    0.60
  -3   1 -11    1.90    0.80
  -3   1 -11    4.70    0.60
   3  -1  11    4.90    1.00
  -4   1 -11    0.00    0.80
  -4   1 -11    1.40    0.60
  -4   1 -11    0.20    0.50
   4  -1  11    1.30    0.90
  -5   1 -11    5.10    0.80
  -5   1 -11    5.30    0.80
  -5   1 -11    6.10    1.30
   5  -1  11    4.80    1.10
  -6   1 -11   15.90    1.70
  -6   1 -11   14.30    1.20
   6  -1  11   12.40    1.60
  -7   1 -11    5.00    0.90
  -7   1 -11    7.90    1.40
  -7   1 -11    5.40    1.00
   7  -1  11    8.50    1.50
  -8   1 -11   13.80    1.30
  -8   1 -11   14.00    1.70
   8  -1  11   13.00    2.30
  -9   1 -11   13.60    1.80
   9  -1  11   10.70    1.90
 -10   1 -11    2.80    1.10
 -10   1 -11    3.30    1.00
  10  -1  11    5.50    1.60
 -11   1 -11   11.30    1.50
  11  -1  11   12.70    2.00
 -12   1 -11   10.70    1.80
 -12   1 -11    8.00    1.40
  12  -1  11    7.80    1.80
 -13   1 -11    8.30    1.90
  13  -1  11   10.60    2.20
  11   0 -11    5.30    1.40
 -11   0  11    6.20    1.50
 -11   0  11    6.90    1.50
  10   0 -11   10.10    1.50
 -10   0  11   10.10    1.50
 -10   0  11    9.80    1.70
   9   0 -11   13.70    1.60
  -9   0  11   19.00    1.90
  -9   0  11   15.80    2.00
   8   0 -11    0.40    0.90
  -8   0  11    2.50    1.70
  -8   0  11    1.20    0.90
   7   0 -11   12.00    1.50
  -7   0  11   16.10    1.50
  -7   0  11   11.50    1.60
   6   0 -11   16.00    1.70
  -6   0  11   14.80    1.60
  -6   0  11   15.80    1.40
   5   0 -11    5.40    1.00
  -5   0  11    5.00    1.10
   4   0 -11    7.50    1.20
   4   0 -11    5.70    1.00
  -4   0  11    8.30    0.90
  -4   0  11    6.10    1.10
   3   0 -11    4.60    1.00
  -3   0  11    4.60    0.70
  -3   0  11    6.10    1.10
   2   0 -11    9.50    0.90
   2   0 -11    8.60    1.20
  -2   0  11    9.60    1.30
  -2   0  11    9.10    0.90
   1   0 -11   17.50    1.60
   1   0 -11   16.30    1.10
  -1   0  11   17.70    1.10
  -1   0  11   17.20    1.50
   0   0 -11    1.10    0.50
   0   0 -11    1.20    0.80
   0   0  11    0.10    0.40
   0   0  11    1.10    0.80
  -1   0 -11    2.20    0.50
  -1   0 -11    1.30    0.80
   1   0  11    2.20    0.90
  -2   0 -11    6.00    0.70
  -2   0 -11    4.10    0.90
  -2   0 -11    7.00    0.80
   2   0  11    7.00    1.10
  -3   0 -11   19.70    1.10
  -3   0 -11   17.90    1.60
   3   0  11   19.40    1.70
  -4   0 -11    9.20    0.80
  -4   0 -11    9.20    1.30
  -4   0 -11    9.50    0.70
   4   0  11    8.00    1.30
  -5   0 -11   17.80    1.60
  -5   0 -11   14.70    0.90
  -5   0 -11   13.90    1.00
   5   0  11   13.00    1.50
  -6   0 -11   20.30    1.80
  -6   0 -11   20.70    1.20
  -6   0 -11   19.10    1.30
   6   0  11   20.80    1.80
  -7   0 -11    0.60    0.60
  -7   0 -11    1.00    0.90
  -7   0 -11   -0.60    0.90
   7   0  11   -0.40    0.90
  -8   0 -11    3.70    0.80
  -8   0 -11    4.10    1.20
  -8   0 -11    3.40    1.00
   8   0  11    4.00    1.30
  -9   0 -11    4.80    0.90
  -9   0 -11    5.90    1.30
 -10   0 -11    6.80    1.10
 -10   0 -11    7.10    1.50
  10   0  11    4.40    1.50
 -11   0 -11    1.80    1.10
 -11   0 -11    2.00    1.30
  11   0  11    1.80    1.30
 -12   0 -11    8.90    1.40
 -12   0 -11    7.20    2.70
  12   0  11    9.80    2.00
 -13   0 -11   -0.70    1.20
 -13   0 -11    1.20    1.50
  13   0  11   -1.90    1.50
 -11   1  11    1.10    1.40
 -11   1  11    2.60    1.20
  10  -1 -11    8.40    1.20
 -10   1  11   11.20    2.20
 -10   1  11    6.80    1.60
   9  -1 -11    1.80    1.00
  -9   1  11    1.30    0.90
  -9   1  11    0.80    1.10
   8  -1 -11    7.60    1.20
  -8   1  11    9.20    2.00
  -8   1  11    7.30    1.20
   7  -1 -11    0.30    0.80
  -7   1  11    1.00    0.90
  -7   1  11   -0.40    0.70
   6  -1 -11   20.90    1.70
  -6   1  11   19.90    1.50
  -6   1  11   21.80    1.90
   5  -1 -11    5.10    1.00
  -5   1  11    4.30    1.10
  -5   1  11    5.60    0.80
   4  -1 -11    0.20    0.70
   4  -1 -11    0.40    0.70
  -4   1  11    0.30    0.50
  -4   1  11    0.60    0.80
   3  -1 -11    9.60    1.20
   3  -1 -11   10.80    1.00
  -3   1  11    9.00    0.90
  -3   1  11   10.20    1.30
   2  -1 -11   11.10    1.00
   2  -1 -11   13.10    1.30
  -2   1  11   11.90    0.90
  -2   1  11   11.50    1.30
   1  -1 -11    3.50    0.50
   1  -1 -11    2.20    0.80
  -1   1  11    2.70    0.40
  -1   1  11    4.70    0.90
   0  -1 -11   19.00    1.50
   0   1  11   17.80    1.50
   0   1  11   17.70    0.90
  -1  -1 -11   15.50    1.50
   1   1  11   15.20    1.50
  -2  -1 -11   22.90    1.70
   2   1  11   20.90    1.70
  -3  -1 -11   30.30    2.00
   3   1  11   30.20    2.00
  -4  -1 -11   26.40    2.00
   4   1  11   31.30    2.00
  -5  -1 -11   27.60    2.00
  -5  -1 -11   23.30    1.30
   5   1  11   24.70    1.80
  -6  -1 -11   21.00    1.30
  -6  -1 -11   24.20    1.20
  -6  -1 -11   24.50    1.90
   6   1  11   22.90    1.90
  -7  -1 -11   29.10    1.60
  -7  -1 -11   32.90    2.20
  -7  -1 -11   25.90    1.60
   7   1  11   28.80    2.20
  -8  -1 -11   37.40    2.40
  -8  -1 -11   30.90    1.80
  -8  -1 -11   35.20    2.60
   8   1  11   31.90    2.40
  -9  -1 -11    8.10    1.50
  -9  -1 -11    6.40    1.00
   9   1  11    6.70    1.30
 -10  -1 -11    1.70    0.80
 -10  -1 -11    0.90    1.10
  10   1  11   -0.30    1.60
 -11  -1 -11   -0.40    0.90
 -11  -1 -11    2.70    1.30
  11   1  11    0.70    1.20
 -12  -1 -11    5.40    1.60
 -12  -1 -11    6.80    1.30
  12   1  11    6.90    1.70
 -13  -1 -11    2.00    1.40
 -13  -1 -11    2.40    1.20
  13   1  11   -1.90    1.60
 -14  -1 -11    0.20    1.50
 -14  -1 -11    1.70    1.40
  14   1  11   -3.00    1.70
 -11   2  11    0.90    1.40
 -11   2  11   -0.70    1.10
  10  -2 -11    1.30    0.90
 -10   2  11    1.20    1.40
 -10   2  11    1.30    1.30
  -9   2  11    4.80    1.10
  -9   2  11    6.80    1.50
   8  -2 -11    5.00    1.00
  -8   2  11    3.40    1.00
   7  -2 -11   13.20    1.40
  -7   2  11   10.90    1.50
  -7   2  11    8.80    1.10
   6  -2 -11  123.39    5.50
  -6   2  11  125.09    5.50
  -6   2  11  113.99    5.70
   5  -2 -11   21.40    1.60
   5  -2 -11   20.50    1.60
  -5   2  11   20.50    1.40
  -5   2  11   22.50    1.90
   4  -2 -11   83.79    3.90
   4  -2 -11   71.59    3.70
  -4   2  11   83.09    4.00
  -4   2  11   83.49    3.50
   3  -2 -11   63.49    3.00
   3  -2 -11   71.99    3.40
  -3   2  11   68.99    3.00
  -3   2  11   68.69    3.50
   2  -2 -11   68.99    3.00
   2  -2 -11   73.09    3.50
  -2   2  11   72.89    3.60
  -2   2  11   71.79    3.00
   1  -2 -11   16.40    1.40
  -1   2  11   12.40    1.30
   0  -2 -11    2.20    0.80
   0   2  11    2.30    0.80
  -1  -2 -11   37.40    2.20
   1   2  11   34.90    2.10
  -2  -2 -11    1.70    0.80
   2   2  11    1.30    0.80
  -3  -2 -11   13.20    1.40
   3   2  11   13.10    1.30
  -4  -2 -11   19.50    1.60
   4   2  11   18.40    1.60
  -5  -2 -11    2.40    0.90
   5   2  11    2.00    0.90
  -6  -2 -11   -1.40    0.70
  -6  -2 -11    0.30    0.40
   6   2  11   -0.10    0.90
  -7  -2 -11   12.00    0.90
  -7  -2 -11   12.20    1.10
  -7  -2 -11   11.40    1.50
   7   2  11   12.30    1.50
  -8  -2 -11   12.80    1.60
  -8  -2 -11   12.10    1.10
  -8  -2 -11   12.60    1.30
   8   2  11   10.60    1.50
  -9  -2 -11   17.90    1.80
  -9  -2 -11   13.90    1.40
  -9  -2 -11   16.50    1.30
   9   2  11   18.30    2.00
 -10  -2 -11   14.90    1.80
  10   2  11   17.50    2.00
 -11  -2 -11    7.50    1.40
 -11  -2 -11    7.00    1.10
  11   2  11    4.10    1.40
 -12  -2 -11    1.00    1.30
 -12  -2 -11    3.30    1.10
  12   2  11    1.20    1.40
 -13  -2 -11    9.20    1.40
 -13  -2 -11    9.60    2.50
  13   2  11    6.80    1.90
 -14  -2 -11    0.50    1.50
  14   2  11    2.40    1.70
 -11   3  11    3.10    1.20
 -11   3  11    2.20    1.50
  10  -3 -11    1.40    0.90
 -10   3  11   -0.90    0.90
 -10   3  11    0.80    1.30
   9  -3 -11    5.30    1.00
  -9   3  11    3.90    1.00
  -9   3  11    4.60    1.40
   8  -3 -11   14.80    1.40
  -8   3  11   14.80    1.50
   7  -3 -11   10.30    1.50
  -7   3  11   11.00    1.60
  -7   3  11    9.60    1.10
   6  -3 -11    6.30    1.10
  -6   3  11    7.70    1.30
   5  -3 -11   90.09    4.00
   5  -3 -11   77.09    3.80
  -5   3  11   85.99    3.80
  -5   3  11   90.29    4.30
   4  -3 -11   22.00    1.60
   4  -3 -11   18.00    1.20
  -4   3  11   20.40    1.70
  -4   3  11   18.60    1.20
   3  -3 -11    6.50    1.10
   3  -3 -11    5.40    0.60
  -3   3  11    3.90    0.90
  -3   3  11    5.40    0.60
   2  -3 -11    2.70    0.80
  -2   3  11    1.00    0.70
  -2   3  11    1.70    0.40
   1  -3 -11   31.00    2.00
  -1   3  11   30.20    1.90
   0  -3 -11  100.29    4.70
   0   3  11  100.69    4.60
  -1  -3 -11   51.59    2.80
   1   3  11   55.89    2.80
  -2  -3 -11   37.00    2.20
   2   3  11   34.00    2.10
  -3  -3 -11   73.99    3.70
   3   3  11   73.19    3.60
  -4  -3 -11   34.30    2.20
   4   3  11   36.40    2.20
  -5  -3 -11   23.40    1.70
   5   3  11   20.90    1.70
  -6  -3 -11   22.00    1.80
  -6  -3 -11   19.60    1.00
   6   3  11   22.90    1.70
  -7  -3 -11   13.60    0.90
  -7  -3 -11   13.10    1.10
  -7  -3 -11   15.80    1.60
   7   3  11   14.90    1.60
  -8  -3 -11   24.10    2.00
  -8  -3 -11   24.70    1.40
  -8  -3 -11   20.90    1.60
   8   3  11   24.50    2.00
  -9  -3 -11   -0.50    0.90
  -9  -3 -11    1.40    1.00
  -9  -3 -11   -0.40    0.60
   9   3  11    0.40    1.10
 -10  -3 -11   -0.20    0.70
 -10  -3 -11   -0.50    1.00
  10   3  11    0.20    1.00
 -11  -3 -11    1.30    1.10
 -11  -3 -11    2.90    0.90
  11   3  11    1.00    1.30
 -12  -3 -11    3.00    1.30
 -12  -3 -11    3.00    1.10
  12   3  11    0.20    1.30
 -13  -3 -11    0.40    1.10
 -13  -3 -11    2.00    2.20
  13   3  11    4.30    1.50
 -14  -3 -11   -1.00    1.30
 -14  -3 -11    1.40    1.50
  14   3  11   -0.60    1.60
 -11   4  11    7.10    1.30
 -11   4  11    3.80    1.50
  10  -4 -11    3.00    0.80
 -10   4  11    0.60    1.20
 -10   4  11    2.30    1.10
   9  -4 -11   15.40    1.40
  -9   4  11   16.30    2.10
  -9   4  11   14.70    1.60
   8  -4 -11   11.20    1.20
  -8   4  11   12.10    1.30
  -8   4  11   11.80    1.80
   7  -4 -11   11.30    1.20
  -7   4  11   11.50    1.20
  -7   4  11   11.90    1.60
   6  -4 -11    8.60    1.40
  -6   4  11    6.90    1.10
  -6   4  11    6.00    1.20
   5  -4 -11   31.30    2.10
   5  -4 -11   30.60    1.90
  -5   4  11   34.80    1.80
  -5   4  11   41.10    2.40
   4  -4 -11    0.70    0.70
   4  -4 -11    0.90    0.60
  -4   4  11    2.50    0.70
  -4   4  11    1.20    0.50
   3  -4 -11    4.70    0.90
  -3   4  11    5.70    0.60
  -3   4  11    5.30    1.00
   2  -4 -11    1.50    0.70
  -2   4  11    1.60    0.60
  -2   4  11    1.10    0.40
  -2   4  11    1.20    0.70
   1  -4 -11   82.39    4.00
  -1   4  11   85.49    4.00
   0  -4 -11   11.90    1.30
   0   4  11   12.40    1.20
  -1  -4 -11   11.20    1.30
   1   4  11   13.20    1.30
  -2  -4 -11   15.40    1.40
   2   4  11   14.70    1.30
  -3  -4 -11   11.20    1.40
   3   4  11    6.80    1.00
  -4  -4 -11   12.70    1.50
   4   4  11   13.80    1.30
  -5  -4 -11    0.20    0.60
   5   4  11    1.00    0.70
  -6  -4 -11    2.70    1.00
   6   4  11    1.40    0.80
  -7  -4 -11    3.40    0.60
  -7  -4 -11    5.50    1.10
   7   4  11    4.30    1.10
  -8  -4 -11   41.00    2.00
  -8  -4 -11   38.00    2.60
   8   4  11   40.70    2.50
  -9  -4 -11   10.80    1.50
  -9  -4 -11   10.20    1.00
   9   4  11    9.40    1.10
   9   4  11    7.30    1.20
 -10  -4 -11   22.80    2.00
 -10  -4 -11   22.30    1.60
  10   4  11   18.40    2.00
 -11  -4 -11    5.70    1.00
 -11  -4 -11    6.80    1.40
  11   4  11   10.00    1.60
 -12  -4 -11    0.20    0.90
 -12  -4 -11    0.80    1.30
 -13  -4 -11    1.40    1.10
 -13  -4 -11    3.10    1.60
  13   4  11    3.40    1.50
 -14  -4 -11    1.60    1.40
 -14  -4 -11    3.60    1.60
  14   4  11    3.50    1.80
 -11   5  11    4.70    1.20
 -11   5  11    5.80    1.60
 -10   5  11   -1.60    1.20
 -10   5  11   -1.20    0.80
   9  -5 -11   26.80    1.70
  -9   5  11   30.30    2.00
  -9   5  11   26.30    2.50
   8  -5 -11    4.00    0.80
  -8   5  11    5.20    1.00
  -8   5  11    3.30    1.20
  -8   5  11    2.60    0.90
   7  -5 -11    4.60    0.80
  -7   5  11    4.30    1.20
  -7   5  11    4.80    0.90
   6  -5 -11   10.90    1.20
  -6   5  11   13.00    1.60
   5  -5 -11   33.00    2.40
  -5   5  11   31.50    1.80
  -5   5  11   31.20    2.20
   4  -5 -11  123.39    5.40
  -4   5  11  122.79    5.60
  -4   5  11  113.39    5.10
  -4   5  11  121.89    5.10
   3  -5 -11   28.50    1.80
  -3   5  11   25.00    1.40
  -3   5  11   25.10    1.80
  -3   5  11   24.60    1.30
   2  -5 -11   37.10    2.10
  -2   5  11   34.30    1.60
  -2   5  11   33.90    1.60
  -2   5  11   36.30    2.20
   1  -5 -11   74.99    3.60
  -1   5  11   71.89    3.60
   0  -5 -11  125.29    5.60
   0   5  11  123.99    5.50
  -1  -5 -11   30.40    2.00
   1   5  11   30.40    1.90
  -2  -5 -11    2.10    0.70
   2   5  11    2.70    0.70
  -3  -5 -11   18.20    1.50
   3   5  11   16.20    1.30
  -4  -5 -11   14.20    1.50
   4   5  11   16.00    1.30
  -5  -5 -11    2.90    0.90
   5   5  11    3.30    0.80
  -6  -5 -11   -0.40    0.80
  -6  -5 -11    0.30    0.40
   6   5  11    0.70    0.70
  -7  -5 -11    1.40    0.90
  -7  -5 -11    1.00    0.40
   7   5  11    0.10    0.80
   7   5  11    0.60    0.60
  -8  -5 -11   12.90    1.60
  -8  -5 -11   11.40    1.00
   8   5  11   13.30    1.50
   8   5  11   10.70    1.10
  -9  -5 -11    3.60    0.80
  -9  -5 -11    6.00    1.30
   9   5  11    3.10    1.10
   9   5  11    6.60    1.00
 -10  -5 -11    3.60    1.20
 -10  -5 -11    4.20    0.90
  10   5  11    2.90    1.20
 -11  -5 -11    3.10    1.10
 -11  -5 -11    3.10    0.90
  11   5  11    0.90    1.20
 -12  -5 -11    0.20    1.00
 -12  -5 -11   -0.20    1.50
  12   5  11    0.70    1.40
 -13  -5 -11    2.50    1.40
 -13  -5 -11    1.20    1.20
  13   5  11    5.50    1.60
 -14  -5 -11    0.70    1.40
 -14  -5 -11   -0.50    1.50
  14   5  11   -0.10    1.60
 -11   6  11    9.20    1.90
 -11   6  11    9.10    1.50
 -10   6  11    1.30    1.40
   9  -6 -11    1.90    0.70
  -9   6  11    3.30    1.40
  -9   6  11    3.20    1.00
   8  -6 -11    1.00    0.70
  -8   6  11    0.50    0.80
  -8   6  11   -0.30    1.00
   7  -6 -11    5.90    0.90
  -7   6  11    3.80    1.30
  -7   6  11    3.40    0.90
   6  -6 -11    1.30    0.70
  -6   6  11    0.90    0.60
  -6   6  11    1.80    0.90
   5  -6 -11    1.00    0.80
  -5   6  11    1.50    0.60
  -5   6  11    0.70    1.10
  -5   6  11    2.90    0.90
   4  -6 -11    7.80    1.30
  -4   6  11    7.20    0.90
  -4   6  11    7.80    1.20
  -4   6  11    7.40    1.20
   3  -6 -11   24.00    1.70
  -3   6  11   22.80    1.30
  -3   6  11   24.80    1.80
  -3   6  11   21.40    1.30
   2  -6 -11   30.80    1.90
  -2   6  11   29.40    1.50
  -2   6  11   30.70    1.50
  -2   6  11   32.40    2.10
   1  -6 -11  203.78    8.70
  -1   6  11  198.98    8.30
  -1   6  11  206.58    8.70
   0  -6 -11    2.10    0.80
   0   6  11    1.70    0.70
  -1  -6 -11    3.70    0.90
   1   6  11    3.80    0.80
  -2  -6 -11   11.70    1.30
   2   6  11   13.30    1.20
  -3  -6 -11    2.30    0.80
   3   6  11    3.40    0.70
  -4  -6 -11   21.30    1.70
   4   6  11   22.30    1.50
  -5  -6 -11   54.89    3.00
  -6  -6 -11   35.60    2.40
  -6  -6 -11   34.60    1.60
   6   6  11   35.90    1.70
   6   6  11   37.90    2.20
  -7  -6 -11   26.20    2.00
  -7  -6 -11   22.50    1.30
   7   6  11   22.50    1.70
   7   6  11   21.30    1.40
  -8  -6 -11   48.10    2.90
  -8  -6 -11   47.10    2.20
   8   6  11   46.40    2.60
   8   6  11   40.50    2.50
  -9  -6 -11   26.80    1.60
  -9  -6 -11   26.10    2.20
   9   6  11   23.60    1.80
   9   6  11   27.00    2.10
 -10  -6 -11    0.50    1.10
  10   6  11    0.40    1.00
 -11  -6 -11    0.20    0.80
 -11  -6 -11    0.10    1.00
  11   6  11   -0.40    1.20
 -12  -6 -11    0.30    1.00
 -12  -6 -11    3.30    1.50
  12   6  11    1.10    1.30
 -13  -6 -11    3.20    1.20
 -13  -6 -11    2.70    1.40
  13   6  11    2.20    1.40
 -14  -6 -11    0.90    1.40
 -14  -6 -11    1.60    2.50
  14   6  11    2.90    1.70
 -11   7  11   -0.60    1.10
 -11   7  11   -1.70    1.40
 -10   7  11    0.80    1.40
 -10   7  11    2.40    1.10
  -9   7  11   26.60    2.00
  -9   7  11   22.30    2.50
   8  -7 -11   15.90    1.30
  -8   7  11   14.90    2.00
  -8   7  11   13.70    1.50
   7  -7 -11   39.30    2.30
  -7   7  11   36.00    2.10
  -7   7  11   45.20    2.40
  -7   7  11   52.79    3.10
   6  -7 -11   23.00    1.70
  -6   7  11   26.00    2.10
  -6   7  11   23.90    1.60
   5  -7 -11   15.70    2.20
  -5   7  11   14.00    1.70
  -5   7  11   14.50    1.20
   4  -7 -11   29.60    1.80
  -4   7  11   23.90    1.60
  -4   7  11   29.60    2.10
  -4   7  11   25.70    1.60
   3  -7 -11   11.60    1.30
  -3   7  11   12.40    1.00
  -3   7  11   14.50    1.00
  -3   7  11   12.20    1.50
   2  -7 -11   36.50    2.20
  -2   7  11   36.50    1.80
  -2   7  11   39.10    2.30
  -2   7  11   34.70    1.80
   1  -7 -11   35.80    2.10
  -1   7  11   32.70    1.60
  -1   7  11   34.50    2.00
  -1   7  11   30.60    1.60
   0  -7 -11   13.30    1.40
   0   7  11   14.80    1.30
   0   7  11   13.40    0.80
  -1  -7 -11   15.00    1.50
   1   7  11   15.80    1.30
  -2  -7 -11    8.00    1.20
   2   7  11    7.70    1.00
  -3  -7 -11   18.50    1.60
   3   7  11   21.60    1.50
  -4  -7 -11    6.50    1.20
   4   7  11    5.10    0.90
  -5  -7 -11    1.80    0.90
  -5  -7 -11    1.80    0.40
   5   7  11    0.70    0.50
   5   7  11    2.40    0.70
  -6  -7 -11    1.30    0.80
  -6  -7 -11    0.10    0.40
   6   7  11    0.80    0.60
   6   7  11    0.30    0.70
  -7  -7 -11    0.00    0.50
  -7  -7 -11    0.90    0.90
   7   7  11    0.00    0.70
   7   7  11    0.80    0.80
  -8  -7 -11    0.10    0.90
  -8  -7 -11    0.00    0.70
   8   7  11   -0.80    0.70
   8   7  11   -1.10    0.80
  -9  -7 -11   14.70    1.90
  -9  -7 -11   16.50    1.40
   9   7  11   15.40    1.60
 -10  -7 -11    0.70    1.10
 -10  -7 -11    0.90    0.80
  10   7  11    1.30    1.10
 -11  -7 -11   27.40    2.00
  11   7  11   28.30    2.40
 -12  -7 -11   20.40    2.00
 -12  -7 -11   22.90    2.40
  12   7  11   21.10    2.30
 -13  -7 -11    9.10    1.80
 -13  -7 -11   13.10    1.60
 -14  -7 -11    3.90    1.80
 -14  -7 -11    8.10    1.60
 -11   8  11    0.30    1.20
 -11   8  11    0.80    1.50
 -10   8  11   -0.40    1.00
 -10   8  11    0.30    1.30
  -9   8  11    2.60    1.30
  -9   8  11    2.20    0.90
  -9   8  11    3.40    1.10
  -8   8  11    3.80    1.30
  -8   8  11    4.20    1.00
   7  -8 -11    0.90    0.80
  -7   8  11    1.00    0.80
  -7   8  11    1.40    1.00
  -7   8  11    1.90    1.00
   6  -8 -11   -0.60    0.70
  -6   8  11   -0.20    0.60
  -6   8  11    0.00    0.90
   5  -8 -11    4.10    1.00
  -5   8  11    3.50    1.10
  -5   8  11    2.60    0.70
   4  -8 -11   12.10    1.30
  -4   8  11    9.60    1.40
  -4   8  11    9.60    1.00
   3  -8 -11   63.89    3.20
  -3   8  11   61.59    3.30
  -3   8  11   65.49    2.90
  -3   8  11   59.99    2.90
   2  -8 -11   41.30    2.40
  -2   8  11   41.50    2.00
  -2   8  11   40.20    2.00
  -2   8  11   40.30    2.40
   1  -8 -11   16.70    1.50
  -1   8  11   17.70    1.10
  -1   8  11   18.40    1.20
  -1   8  11   20.40    1.50
   0  -8 -11  109.89    5.00
   0   8  11  100.79    4.40
   0   8  11  106.49    4.50
   0   8  11  109.19    4.90
  -1  -8 -11   68.59    3.50
   1   8  11   71.29    3.40
   1   8  11   70.39    2.90
   1   8  11   61.69    2.90
  -2  -8 -11    6.30    1.20
   2   8  11    7.60    1.00
   2   8  11    6.40    0.70
   2   8  11    6.10    0.60
  -3  -8 -11   11.50    1.50
   3   8  11   14.80    1.20
   3   8  11   13.30    0.90
  -4  -8 -11    8.80    1.20
  -4  -8 -11    9.10    0.80
   4   8  11    7.60    1.00
   4   8  11    7.70    0.80
  -5  -8 -11    5.20    1.10
  -5  -8 -11    4.20    0.60
   5   8  11    2.60    0.70
   5   8  11    3.30    0.60
  -6  -8 -11    9.60    1.40
  -6  -8 -11    8.50    0.90
   6   8  11    9.60    1.10
   6   8  11    9.40    0.90
  -7  -8 -11   14.00    1.70
  -7  -8 -11   15.30    1.20
   7   8  11   14.60    1.40
   7   8  11   13.40    1.30
  -8  -8 -11   24.20    1.60
  -8  -8 -11   24.10    2.10
   8   8  11   22.60    1.80
   8   8  11   20.60    2.20
  -9  -8 -11   22.80    2.30
   9   8  11   22.40    1.90
 -10  -8 -11    3.60    2.20
 -10  -8 -11    4.60    1.00
  10   8  11    4.40    1.20
 -11  -8 -11   11.80    1.80
 -11  -8 -11   13.40    1.50
  11   8  11   11.90    1.50
 -12  -8 -11    2.40    1.50
 -12  -8 -11    2.60    1.20
  12   8  11    1.10    1.30
 -13  -8 -11   -0.20    1.30
 -13  -8 -11   -1.80    1.60
  13   8  11    1.30    1.50
 -14  -8 -11   -1.20    1.60
 -14  -8 -11   -0.10    1.50
  14   8  11   -2.60    1.60
 -10   9  11    2.60    1.10
 -10   9  11    0.60    1.30
  -9   9  11   10.20    1.70
  -8   9  11   10.90    1.80
  -8   9  11   10.20    1.30
  -8   9  11    9.20    1.10
  -7   9  11    4.40    1.00
  -7   9  11    1.90    1.20
  -6   9  11   36.30    3.40
  -6   9  11   39.30    2.30
   5  -9 -11   34.90    2.10
  -5   9  11   35.80    2.10
  -5   9  11   33.00    2.40
   4  -9 -11   17.60    1.60
  -4   9  11   19.40    1.40
  -4   9  11   17.40    1.80
   3  -9 -11    1.10    0.70
  -3   9  11    1.10    0.70
  -3   9  11    0.70    0.60
   2  -9 -11    0.20    0.70
  -2   9  11    0.50    0.70
  -2   9  11    0.30    0.70
  -2   9  11    0.20    0.50
   1  -9 -11    4.20    1.00
  -1   9  11    6.30    0.80
  -1   9  11    6.60    1.10
   0  -9 -11    2.70    0.90
   0   9  11    1.80    0.60
   0   9  11    2.80    0.80
   0   9  11    1.10    0.50
  -1  -9 -11   32.20    2.20
   1   9  11   28.90    1.60
   1   9  11   34.00    2.00
   1   9  11   34.70    1.80
  -2  -9 -11    1.00    0.90
   2   9  11    0.30    0.50
   2   9  11    0.10    0.60
  -3  -9 -11   27.20    2.10
  -3  -9 -11   28.30    1.50
   3   9  11   30.50    1.80
   3   9  11   23.80    1.40
  -4  -9 -11   74.49    3.30
  -4  -9 -11   74.29    3.90
   4   9  11   67.49    3.20
   4   9  11   79.49    3.50
  -5  -9 -11  121.49    5.60
  -5  -9 -11  115.49    4.80
   5   9  11  121.09    5.00
   5   9  11  100.79    4.90
  -6  -9 -11  116.59    5.70
  -6  -9 -11  120.09    5.00
   6   9  11  123.09    5.10
   6   9  11  106.29    5.00
  -7  -9 -11   27.60    1.70
  -7  -9 -11   25.70    2.30
   7   9  11   26.90    1.70
   7   9  11   18.80    2.10
  -8  -9 -11    3.20    1.00
  -8  -9 -11    2.80    1.20
   8   9  11    3.60    0.90
  -9  -9 -11   40.60    2.40
   9   9  11   41.60    2.40
 -10  -9 -11    9.00    1.80
 -10  -9 -11    7.50    1.30
  10   9  11    6.50    1.20
 -11  -9 -11    1.10    1.10
 -11  -9 -11   -1.70    1.30
  11   9  11    0.50    1.10
 -12  -9 -11    1.20    1.30
 -12  -9 -11    1.10    1.40
  12   9  11    3.70    1.30
 -13  -9 -11    5.30    2.80
 -13  -9 -11    0.80    1.70
  13   9  11    5.30    1.50
 -10  10  11    0.50    1.50
 -10  10  11   -0.80    1.10
  -9  10  11   18.10    2.40
  -9  10  11   17.90    1.90
  -8  10  11    3.90    1.40
  -8  10  11    3.20    0.90
  -8  10  11    2.10    1.00
  -7  10  11    6.80    1.20
  -7  10  11    8.60    1.50
  -6  10  11   26.00    2.30
  -6  10  11   23.10    1.90
   5 -10 -11   24.90    1.90
  -5  10  11   25.90    1.80
  -5  10  11   30.00    2.40
   4 -10 -11   82.09    4.10
  -4  10  11   83.09    3.90
  -4  10  11   82.79    4.40
   3 -10 -11   77.49    3.90
  -3  10  11   75.59    3.70
  -3  10  11   78.89    4.00
   2 -10 -11   48.40    2.80
  -2  10  11   47.10    2.50
  -2  10  11   46.60    2.80
   1 -10 -11   10.40    1.40
  -1  10  11   10.90    1.10
  -1  10  11   11.20    1.10
  -1  10  11    9.40    1.30
   0 -10 -11   26.20    2.10
   0  10  11   25.40    1.60
   0  10  11   25.80    1.70
   0  10  11   28.70    1.90
  -1 -10 -11   98.69    4.90
   1  10  11   94.49    4.30
   1  10  11  106.49    4.50
   1  10  11  106.79    4.70
  -2 -10 -11   10.20    1.10
  -2 -10 -11   13.90    1.70
   2  10  11   10.70    1.00
   2  10  11   12.90    1.30
  -3 -10 -11    2.20    0.70
  -3 -10 -11    5.20    1.30
   3  10  11    2.90    0.60
   3  10  11    2.90    0.80
  -4 -10 -11    0.80    0.80
  -4 -10 -11   -0.20    0.60
   4  10  11    0.80    0.70
   4  10  11    1.50    0.70
  -5 -10 -11   20.80    1.50
  -5 -10 -11   22.00    2.10
   5  10  11   24.50    1.60
   5  10  11   17.60    1.50
  -6 -10 -11   23.80    1.60
  -6 -10 -11   20.00    2.00
   6  10  11   25.30    2.20
  -7 -10 -11    3.80    1.30
   7  10  11    4.00    1.40
  -8 -10 -11    8.20    1.10
  -8 -10 -11    8.00    1.90
   8  10  11   11.70    1.70
  -9 -10 -11   18.40    1.70
  -9 -10 -11   12.80    1.90
   9  10  11   18.50    2.00
 -10 -10 -11    4.80    1.30
 -10 -10 -11    6.50    1.60
  10  10  11    5.40    1.10
 -11 -10 -11    6.90    1.50
 -11 -10 -11    4.60    1.40
  11  10  11    5.10    1.20
 -12 -10 -11    3.80    1.60
 -12 -10 -11    0.20    1.40
  12  10  11    3.30    1.30
 -13 -10 -11    4.20    1.60
  -9  11  11   10.80    1.70
  -9  11  11   11.70    2.10
  -8  11  11    8.40    1.80
  -8  11  11    9.60    1.20
  -8  11  11    9.00    1.40
  -7  11  11    3.10    1.00
  -7  11  11    1.90    1.10
  -7  11  11    1.90    1.20
  -6  11  11   -0.20    1.00
  -6  11  11    0.50    0.90
  -6  11  11    1.80    0.90
  -5  11  11    4.20    1.10
  -5  11  11    2.40    1.10
  -5  11  11    2.80    1.00
  -4  11  11   13.40    1.40
  -4  11  11   10.70    1.60
   3 -11 -11    5.50    1.20
  -3  11  11    5.90    1.00
  -3  11  11    5.30    1.10
   2 -11 -11   13.90    1.60
  -2  11  11   13.00    1.60
  -2  11  11   13.40    1.40
   1 -11 -11   15.10    1.60
  -1  11  11   13.40    1.50
  -1  11  11   15.70    1.40
   0 -11 -11    0.10    0.80
   0  11  11    1.30    0.80
  -1 -11 -11    1.70    0.90
   1  11  11    2.20    0.80
  -2 -11 -11    1.80    1.10
  -2 -11 -11    2.60    0.80
   2  11  11    3.50    0.80
  -3 -11 -11    1.50    1.00
  -3 -11 -11    0.40    0.70
   3  11  11    0.80    0.70
  -4 -11 -11   20.90    2.10
  -4 -11 -11   20.10    1.60
   4  11  11   25.60    1.60
  -5 -11 -11   14.10    1.80
  -6 -11 -11   13.00    1.40
   6  11  11   10.30    1.20
  -7 -11 -11   20.30    1.70
  -7 -11 -11   18.70    2.10
   7  11  11   19.90    1.50
  -8 -11 -11   24.20    2.40
  -8 -11 -11   23.90    2.00
   8  11  11   27.60    1.80
  -9 -11 -11   18.40    2.30
  -9 -11 -11   19.80    1.90
   9  11  11   18.60    1.50
 -10 -11 -11    4.70    1.70
 -10 -11 -11    2.90    1.20
  10  11  11    4.40    1.00
 -11 -11 -11    3.70    1.40
 -11 -11 -11    0.50    1.50
  11  11  11    1.30    1.20
 -12 -11 -11   -0.60    1.40
  12  11  11   -1.90    1.60
  -8  12  11   10.90    2.00
  -8  12  11   10.50    1.60
  -7  12  11    3.10    1.10
  -7  12  11    0.50    1.00
  -7  12  11    2.60    1.50
  -6  12  11    7.50    1.30
  -6  12  11    8.00    1.70
  -6  12  11    9.20    1.30
  -5  12  11   13.30    1.60
  -5  12  11   11.80    1.80
  -5  12  11   14.80    1.60
  -4  12  11   17.20    1.80
  -4  12  11   20.10    1.90
  -3  12  11    7.30    1.30
  -3  12  11   10.40    1.40
  -3  12  11    6.50    1.30
  -2  12  11    3.00    1.00
  -2  12  11    4.80    1.10
   1 -12 -11    3.50    1.20
  -1  12  11    4.50    1.00
  -1  12  11    6.20    1.10
   0 -12 -11   11.70    1.70
   0  12  11   12.60    1.50
   0  12  11   12.70    1.30
  -1 -12 -11   38.90    2.70
   1  12  11   41.30    2.40
  -2 -12 -11   12.60    1.80
  -2 -12 -11   13.70    1.40
   2  12  11   15.20    1.40
  -3 -12 -11    1.70    1.00
  -3 -12 -11    2.30    0.90
   3  12  11    1.00    0.70
  -4 -12 -11   20.10    1.70
   4  12  11   22.70    1.60
  -5 -12 -11    0.30    1.00
  -5 -12 -11    0.30    0.80
   5  12  11    1.00    0.70
  -6 -12 -11    1.20    0.90
  -6 -12 -11    1.50    1.20
   6  12  11    1.90    0.70
  -7 -12 -11    9.60    1.70
  -7 -12 -11   11.00    1.40
  -8 -12 -11    0.10    1.10
  -8 -12 -11    2.20    1.40
   8  12  11    2.80    0.80
  -9 -12 -11    2.90    1.30
   9  12  11    3.10    0.90
 -10 -12 -11    5.60    1.40
  10  12  11    2.70    1.50
 -11 -12 -11    2.30    1.40
  11  12  11    0.50    1.80
  -7  13  11   -0.50    1.50
  -7  13  11    1.90    1.20
  -7  13  11    4.00    1.30
  -6  13  11    0.80    1.30
  -6  13  11    0.50    1.10
  -6  13  11    2.80    1.20
  -5  13  11    6.70    1.40
  -5  13  11    4.80    1.40
  -4  13  11    8.90    1.60
  -4  13  11    7.70    1.40
  -4  13  11    7.10    1.50
  -3  13  11   27.60    2.30
  -3  13  11   29.70    2.20
  -3  13  11   28.00    2.40
  -2  13  11   26.90    2.10
  -2  13  11   26.20    2.20
  -2  13  11   25.30    2.20
  -1  13  11   27.40    2.00
  -1  13  11   27.80    2.30
  -1  13  11   26.10    2.10
   0  13  11    5.00    1.30
   0  13  11    3.40    1.00
   0  13  11    2.60    0.90
   1  13  11    5.50    1.10
  -2 -13 -11   13.20    1.40
   2  13  11   13.50    1.40
   2  13  11   14.80    2.00
  -3 -13 -11   28.10    2.00
   3  13  11   30.10    2.40
   3  13  11   31.20    1.90
  -4 -13 -11   20.50    1.90
   4  13  11   22.10    2.20
  -5 -13 -11   22.30    1.90
   5  13  11   20.90    1.50
   5  13  11   21.40    2.20
  -6 -13 -11    5.60    1.20
   6  13  11    7.20    1.80
   6  13  11    5.30    0.80
  -7 -13 -11    0.80    1.10
   7  13  11    0.60    1.40
   7  13  11    2.00    0.80
  -8 -13 -11    2.90    1.20
   8  13  11    1.50    1.60
  -9 -13 -11   -0.70    1.40
   9  13  11    1.10    1.50
 -10 -13 -11    3.80    1.60
  10  13  11    3.90    1.80
  -6  14  11   14.20    1.80
  -6  14  11   11.50    2.00
  -6  14  11   15.90    1.90
  -5  14  11    4.10    1.30
  -5  14  11    4.30    1.40
  -5  14  11    3.40    1.40
  -4  14  11   16.80    2.10
  -4  14  11   20.70    2.10
  -4  14  11   18.00    2.40
  -3  14  11    7.00    1.40
  -3  14  11    7.60    1.80
  -2  14  11    1.40    1.10
  -2  14  11    1.60    1.20
  -2  14  11    3.00    1.20
  -1  14  11    2.40    1.20
  -1  14  11    1.80    1.00
  -1  14  11   -0.30    1.00
   0  14  11    2.70    1.10
   0  14  11    0.50    0.90
   0  14  11    1.30    1.10
   1  14  11   -0.20    1.20
  -2 -14 -11    1.20    1.00
   2  14  11    1.70    0.90
   2  14  11   -1.00    1.00
  -3 -14 -11    7.60    1.40
   3  14  11    7.80    1.70
   3  14  11    9.90    1.10
  -4 -14 -11    3.10    1.20
   4  14  11    3.30    0.80
   4  14  11    1.70    1.30
  -5 -14 -11    1.40    1.10
   5  14  11    0.50    0.70
   5  14  11   -2.40    1.10
  -6 -14 -11   10.60    1.40
   6  14  11   10.70    2.00
  -7 -14 -11    2.00    1.10
   7  14  11   -2.60    1.30
  -8 -14 -11    3.50    1.30
   8  14  11    4.90    1.90
  -9 -14 -11    4.70    1.60
   9  14  11    2.90    1.90
  -4  15  11    7.30    1.50
  -4  15  11    8.50    1.60
  -4  15  11    8.40    1.70
  -3  15  11   20.90    2.20
  -3  15  11   14.20    2.00
  -3  15  11   16.20    1.90
  -2  15  11   27.90    2.40
  -2  15  11   22.40    3.20
  -2  15  11   29.60    2.60
  -1  15  11   10.90    1.70
  -1  15  11   10.10    1.50
  -1  15  11   13.60    1.90
   0  15  11   11.30    1.90
   0  15  11   14.80    1.70
   0  15  11   10.30    2.60
   1  15  11   -1.60    1.20
   1  15  11   -0.30    1.00
  -2 -15 -11    2.10    1.10
   2  15  11    2.30    1.30
   2  15  11    1.20    1.00
  -3 -15 -11    7.50    1.50
   3  15  11    7.10    1.20
   3  15  11    8.50    1.90
   4  15  11    6.30    1.10
   4  15  11    5.50    1.70
  -5 -15 -11    0.30    1.30
   5  15  11    3.50    1.60
  -6 -15 -11    1.50    1.30
   6  15  11    3.70    1.50
  -7 -15 -11   -0.30    1.30
   7  15  11    1.00    1.60
  -1  16  11    6.40    1.50
  -1  16  11    5.80    1.50
  -1  16  11    3.80    1.60
   0  16  11    4.90    1.50
   0  16  11    9.90    1.70
   0  16  11    7.30    1.30
   1  16  11   20.50    2.50
   1  16  11   18.90    1.80
  -2 -16 -11    2.10    1.20
   2  16  11    4.90    1.30
   2  16  11    5.10    1.70
  -3 -16 -11   26.60    2.40
   3  16  11   28.30    2.90
  -4 -16 -11    9.90    1.60
   4  16  11   14.10    2.30
   0   7 -12   -0.10    2.50
   0  -7  12   -2.20    1.50
   0  -7  12   -0.30    1.50
  -1   7 -12   -1.80    1.70
   1  -7  12   -1.90    1.40
   1  -7  12    3.00    1.50
  -2   7 -12    2.60    2.00
   2  -7  12    3.50    1.50
  -3   7 -12    3.90    3.10
   3  -7  12    4.50    1.70
   4   6 -12   -1.00    1.50
  -4  -6  12   -0.40    1.20
  -4  -6  12    2.80    1.50
   3   6 -12   11.50    2.00
  -3  -6  12    7.70    1.60
  -3  -6  12   11.90    1.90
   2   6 -12   -1.20    1.40
  -2  -6  12    0.50    1.20
  -2  -6  12    0.20    1.40
   1   6 -12   -1.00    1.30
  -1  -6  12   -1.90    1.30
  -1  -6  12    0.10    1.20
   0   6 -12    0.40    1.30
   0  -6  12    0.30    1.30
   0  -6  12   -1.80    1.20
  -1   6 -12    0.50    1.30
   1  -6  12    2.30    1.40
   1  -6  12    0.50    1.20
  -2   6 -12    2.30    1.30
   2  -6  12    1.80    1.50
  -3   6 -12    1.80    1.70
  -3   6 -12   -1.20    1.30
   3  -6  12    0.80    1.40
  -4   6 -12    7.70    1.70
  -4   6 -12    5.20    1.70
   4  -6  12    3.00    1.50
  -5   6 -12    2.80    1.60
  -5   6 -12    0.00    1.60
   5  -6  12    1.40    1.50
  -6   6 -12    1.00    1.70
  -6   6 -12    2.70    1.70
   6  -6  12    2.00    1.70
   5   5 -12    0.20    1.40
  -5  -5  12    3.30    1.40
  -5  -5  12    1.00    1.40
   4   5 -12   20.20    2.30
  -4  -5  12   22.70    2.30
  -4  -5  12   18.20    2.00
   3   5 -12    9.00    1.80
  -3  -5  12   11.10    1.60
  -3  -5  12   14.20    1.70
   2   5 -12   13.30    2.10
  -2  -5  12   13.40    1.70
  -2  -5  12   14.30    1.80
   1   5 -12    2.90    1.40
  -1  -5  12   -0.20    1.10
  -1  -5  12    3.10    1.30
   0   5 -12    5.80    1.60
   0  -5  12    4.70    1.30
   0  -5  12    8.80    1.30
  -1   5 -12    2.10    1.20
   1  -5  12   -1.50    1.10
   1  -5  12   -0.40    1.20
  -2   5 -12    1.60    1.20
   2  -5  12    1.50    1.30
  -3   5 -12    3.10    1.40
  -3   5 -12    5.20    1.40
   3  -5  12    5.30    1.40
  -4   5 -12    1.40    1.50
  -4   5 -12    2.60    1.30
   4  -5  12   -1.20    1.30
  -5   5 -12   26.70    2.60
  -5   5 -12   26.60    2.40
   5  -5  12   26.70    2.70
  -6   5 -12    4.30    1.70
  -6   5 -12    5.80    1.70
   6  -5  12    5.80    1.60
  -7   5 -12   -2.20    1.50
  -7   5 -12    0.80    1.60
   7  -5  12   -1.80    1.40
  -8   5 -12    5.30    1.70
  -8   5 -12    0.10    1.70
   8  -5  12    0.90    1.60
   7   4 -12   -0.80    1.30
  -7  -4  12    0.60    1.30
  -7  -4  12    3.70    1.50
   6   4 -12   -0.10    1.40
  -6  -4  12    0.70    1.20
   5   4 -12    1.10    1.30
  -5  -4  12    0.40    1.10
  -5  -4  12    1.80    1.20
   4   4 -12    0.70    1.30
  -4  -4  12    0.90    1.50
  -4  -4  12    0.50    1.10
   3   4 -12   10.30    1.80
  -3  -4  12   13.20    1.50
   2   4 -12    0.00    1.20
  -2  -4  12    0.20    1.30
  -2  -4  12    1.70    1.00
   1   4 -12    1.70    1.20
  -1  -4  12    0.20    1.30
  -1  -4  12   -0.30    0.90
   0   4 -12    2.00    1.30
   0  -4  12    2.40    1.90
   0  -4  12    2.70    0.90
  -1   4 -12    0.60    1.10
   1  -4  12   -2.50    0.90
  -2   4 -12    1.10    1.00
   2  -4  12    0.60    1.10
  -3   4 -12    1.20    1.10
  -3   4 -12   -0.20    1.00
   3  -4  12   -1.40    1.10
  -4   4 -12    3.40    1.10
  -4   4 -12    2.20    1.30
   4  -4  12    2.00    1.30
  -5   4 -12    5.40    1.40
  -5   4 -12    6.40    1.20
   5  -4  12    5.20    1.50
  -6   4 -12    1.30    1.40
  -6   4 -12    1.20    1.20
   6  -4  12    0.80    1.30
  -7   4 -12    6.70    1.50
  -7   4 -12    1.00    1.40
   7  -4  12    4.20    1.60
  -8   4 -12   -0.70    1.40
  -8   4 -12    0.30    1.40
   8  -4  12    0.30    1.30
  -9   4 -12    1.50    1.50
  -9   4 -12    1.30    1.50
   9  -4  12    2.00    1.70
 -10   4 -12    2.60    1.60
 -10   4 -12    0.00    1.50
   8   3 -12    0.10    1.30
  -8  -3  12    0.10    1.30
  -8  -3  12    1.50    1.40
   7   3 -12    3.30    1.20
  -7  -3  12    2.70    1.20
   6   3 -12    2.40    1.40
  -6  -3  12    4.30    1.20
  -6  -3  12    2.00    1.20
   5   3 -12    9.70    1.50
  -5  -3  12    8.90    1.30
   4   3 -12   14.20    1.80
  -4  -3  12   14.80    1.80
  -4  -3  12   12.90    1.40
   3   3 -12   18.20    2.00
  -3  -3  12   18.50    1.90
  -3  -3  12   20.20    1.70
   2   3 -12   31.50    2.30
  -2  -3  12   30.40    2.00
  -2  -3  12   27.10    2.30
   1   3 -12   20.60    2.00
  -1  -3  12   16.10    1.80
  -1  -3  12   15.50    1.60
   0   3 -12    1.00    1.00
   0  -3  12    0.30    0.90
   0  -3  12    1.20    1.00
  -1   3 -12    1.70    1.10
   1  -3  12    1.20    0.80
   1  -3  12    1.60    1.10
  -2   3 -12    0.30    1.10
   2  -3  12    1.80    1.10
  -3   3 -12    4.30    1.20
  -3   3 -12    5.20    1.00
   3  -3  12    4.90    1.70
  -4   3 -12    7.80    1.10
  -4   3 -12    8.50    1.50
   4  -3  12    5.40    1.40
  -5   3 -12   18.90    1.80
  -5   3 -12   22.10    2.10
   5  -3  12   16.00    2.00
  -6   3 -12    5.20    1.30
  -6   3 -12    1.50    1.00
   6  -3  12    3.50    1.30
  -7   3 -12    1.40    1.10
  -7   3 -12    0.60    1.20
   7  -3  12    1.60    1.30
  -8   3 -12   10.10    1.70
  -8   3 -12    7.40    1.40
   8  -3  12    7.30    1.60
  -9   3 -12    2.20    1.30
  -9   3 -12    0.60    1.30
   9  -3  12   -0.60    1.40
 -10   3 -12    3.40    1.40
 -10   3 -12   -1.30    1.30
  10  -3  12   -0.20    1.40
 -11   3 -12    3.10    1.60
 -11   3 -12    0.10    1.60
   9   2 -12    9.90    1.70
  -9  -2  12    4.30    1.50
  -9  -2  12    7.00    1.60
   8   2 -12    1.90    1.30
  -8  -2  12    3.70    1.30
   7   2 -12   12.00    2.10
  -7  -2  12   13.90    1.60
  -6  -2  12    2.00    1.40
  -6  -2  12    1.10    1.00
   5   2 -12    0.50    1.30
  -5  -2  12    0.50    1.10
  -5  -2  12    0.90    0.90
   4   2 -12    0.50    1.10
  -4  -2  12   -0.30    0.80
  -4  -2  12    0.60    1.00
   3   2 -12    2.00    1.10
  -3  -2  12    1.60    0.80
  -3  -2  12    0.30    0.90
   2   2 -12    0.40    1.10
  -2  -2  12    0.00    0.70
  -2  -2  12   -0.10    0.90
   1   2 -12    0.30    1.00
   1   2 -12    0.40    0.90
  -1  -2  12    1.00    1.00
  -1  -2  12    0.70    0.70
   0   2 -12    2.60    1.10
   0   2 -12   -0.70    0.80
   0  -2  12    1.30    0.70
   0  -2  12    1.30    1.00
  -1   2 -12   13.40    1.80
   1  -2  12   15.10    1.60
  -2   2 -12    6.30    1.40
  -2   2 -12    5.90    0.90
  -2   2 -12    6.40    1.10
   2  -2  12    6.90    1.20
  -3   2 -12    9.50    1.50
  -3   2 -12    6.80    0.90
   3  -2  12    6.60    1.30
  -4   2 -12   16.60    1.40
  -4   2 -12   16.30    2.10
   4  -2  12   15.20    1.80
  -5   2 -12   10.50    1.10
  -5   2 -12    9.90    1.20
  -6   2 -12    9.90    1.60
  -6   2 -12   13.00    1.40
  -6   2 -12   13.30    1.70
   6  -2  12   12.20    1.80
  -7   2 -12    8.50    1.60
  -7   2 -12    8.90    1.20
   7  -2  12    9.50    1.60
  -8   2 -12    4.70    1.00
  -8   2 -12    4.90    1.50
   8  -2  12    5.00    1.50
  -9   2 -12    1.00    1.10
  -9   2 -12    0.70    1.30
   9  -2  12    3.80    1.50
 -10   2 -12    4.20    1.50
 -10   2 -12    1.10    1.30
  10  -2  12    4.20    1.40
 -11   2 -12   -0.20    1.40
 -11   2 -12   -0.20    1.30
  11  -2  12    1.30    1.60
   9   1 -12   11.30    1.70
  -9  -1  12   12.20    1.70
  -9  -1  12   11.20    1.70
   8   1 -12   10.00    1.60
  -8  -1  12    8.90    1.50
  -8  -1  12    8.40    1.60
   7   1 -12   12.20    1.60
  -7  -1  12    9.90    1.40
  -7  -1  12    6.60    1.40
   6   1 -12    6.90    1.40
  -6  -1  12   11.00    1.30
   5   1 -12    5.80    1.30
  -5  -1  12    7.30    1.00
  -5  -1  12    6.30    1.20
   4   1 -12    3.50    1.20
  -4  -1  12    3.70    0.90
  -4  -1  12    4.20    1.20
   3   1 -12    9.30    1.40
   3   1 -12    9.10    1.50
  -3  -1  12    9.10    1.30
  -3  -1  12   10.80    1.20
   2   1 -12    2.60    0.80
   2   1 -12    5.10    1.20
  -2  -1  12    2.90    1.00
  -2  -1  12    4.40    0.70
   1   1 -12    2.80    0.80
   1   1 -12    5.10    1.30
  -1  -1  12    5.40    0.80
  -1  -1  12    3.60    1.00
   0   1 -12   10.60    1.10
   0   1 -12    9.70    1.50
   0  -1  12    9.00    1.30
   0  -1  12    9.70    1.00
  -1   1 -12    1.20    0.80
  -1   1 -12    0.70    0.60
   1  -1  12    0.20    0.90
  -2   1 -12    0.60    0.50
  -2   1 -12    0.90    0.60
  -2   1 -12    1.10    0.90
   2  -1  12    1.00    1.00
  -3   1 -12   -2.00    0.80
  -3   1 -12   -0.40    0.60
  -3   1 -12    0.10    0.50
   3  -1  12   -1.10    0.90
  -4   1 -12    1.20    0.60
  -4   1 -12    1.60    0.60
  -4   1 -12    0.60    0.90
   4  -1  12    1.00    1.00
  -5   1 -12    0.00    0.60
  -5   1 -12   -0.80    0.90
  -5   1 -12   -0.10    0.70
   5  -1  12    0.70    1.00
  -6   1 -12    4.50    1.10
  -6   1 -12    1.70    1.00
  -6   1 -12    3.50    0.80
   6  -1  12    2.40    1.60
  -7   1 -12    1.90    1.20
  -7   1 -12    1.00    0.70
  -7   1 -12    1.50    1.00
   7  -1  12    1.30    1.20
  -8   1 -12    5.90    1.00
  -8   1 -12    6.60    1.60
   8  -1  12    4.80    1.40
  -9   1 -12    3.20    1.30
  -9   1 -12    0.20    0.90
   9  -1  12    0.30    1.30
 -10   1 -12    1.60    1.30
 -10   1 -12    1.20    1.10
  10  -1  12    0.50    1.20
 -11   1 -12    1.50    1.50
 -11   1 -12    2.20    1.20
  11  -1  12    0.00    1.40
 -12   1 -12    1.30    1.50
 -12   1 -12   -1.30    1.30
  12  -1  12   -2.20    1.60
  10   0 -12    6.70    1.60
 -10   0  12    5.20    1.60
 -10   0  12    4.10    1.40
   9   0 -12    2.70    1.20
  -9   0  12    3.80    1.50
  -9   0  12    3.20    1.60
   8   0 -12    2.10    1.10
  -8   0  12    1.10    1.10
  -8   0  12    1.00    1.20
   7   0 -12    5.40    1.20
  -7   0  12    7.10    1.40
  -7   0  12    4.10    1.00
   6   0 -12   -0.50    0.90
  -6   0  12    0.70    0.90
  -6   0  12    0.50    1.10
   5   0 -12    5.00    1.20
  -5   0  12    5.90    1.20
  -5   0  12    6.80    1.00
   4   0 -12    4.50    1.10
   4   0 -12    4.20    1.80
  -4   0  12    4.40    0.80
  -4   0  12    4.80    1.10
   3   0 -12    7.70    1.30
  -3   0  12    9.20    1.30
  -3   0  12    7.20    0.80
   2   0 -12   -0.40    0.80
   2   0 -12   -0.80    0.60
  -2   0  12    0.00    0.90
  -2   0  12   -0.10    0.50
   1   0 -12   33.90    2.40
   1   0 -12   36.80    1.80
  -1   0  12   38.00    2.40
  -1   0  12   37.20    1.80
   0   0 -12    2.60    0.50
   0   0 -12    1.50    0.90
   0   0  12    3.30    1.00
   0   0  12    3.30    0.50
  -1   0 -12    0.30    0.80
   1   0  12    2.50    1.00
  -2   0 -12    6.00    1.20
   2   0  12    5.10    1.10
  -3   0 -12    3.40    1.10
   3   0  12    5.60    1.10
  -4   0 -12    1.90    0.90
   4   0  12    3.50    1.10
  -5   0 -12    7.70    1.30
  -5   0 -12    7.90    0.70
  -5   0 -12    6.60    0.70
   5   0  12    9.30    1.40
  -6   0 -12   34.10    2.30
  -6   0 -12   31.30    1.60
  -6   0 -12   27.40    1.60
   6   0  12   28.60    2.30
  -7   0 -12   12.40    1.30
  -7   0 -12   15.20    1.20
  -7   0 -12   16.60    1.90
   7   0  12   14.80    1.90
  -8   0 -12    6.00    1.30
  -8   0 -12    2.60    0.80
  -8   0 -12    2.80    1.10
   8   0  12    1.80    1.20
  -9   0 -12    0.90    0.80
   9   0  12    1.00    1.20
 -10   0 -12   -0.80    1.10
 -10   0 -12    0.60    0.90
  10   0  12    1.00    1.40
 -11   0 -12    6.10    1.50
 -11   0 -12    5.60    1.20
  11   0  12    4.10    1.50
 -12   0 -12   -0.80    1.40
 -12   0 -12   -2.00    1.20
  12   0  12    0.40    1.60
 -13   0 -12   -4.60    1.60
 -13   0 -12    0.70    1.50
  13   0  12   -1.30    1.80
  10  -1 -12    3.70    1.30
 -10   1  12    5.70    1.50
 -10   1  12    6.20    1.40
   9  -1 -12   16.00    1.80
  -9   1  12   16.10    2.00
  -9   1  12   18.40    1.90
   8  -1 -12    9.30    1.40
  -8   1  12    6.60    1.40
  -8   1  12    7.50    1.20
   7  -1 -12   15.50    1.80
  -7   1  12   18.20    2.00
  -7   1  12   19.80    1.70
   6  -1 -12   20.80    1.80
  -6   1  12   20.70    1.60
  -6   1  12   16.40    1.90
   5  -1 -12    5.10    1.20
  -5   1  12    3.80    1.10
  -5   1  12    3.50    0.80
   4  -1 -12    0.40    0.80
   4  -1 -12    0.60    0.90
  -4   1  12   -0.20    0.80
  -4   1  12    0.30    0.60
   3  -1 -12   13.50    1.20
   3  -1 -12   13.50    1.50
  -3   1  12   13.90    1.60
  -3   1  12   14.20    1.10
   2  -1 -12    0.10    0.60
   2  -1 -12    0.30    0.80
  -2   1  12    0.50    0.80
  -2   1  12   -0.10    0.40
   1  -1 -12   -0.10    0.70
   1  -1 -12    0.10    0.50
  -1   1  12    1.00    0.50
  -1   1  12    1.60    0.90
   0  -1 -12    4.70    1.10
   0   1  12    5.80    1.10
  -1  -1 -12    1.40    0.90
   1   1  12    1.40    0.90
  -2  -1 -12    2.40    0.90
   2   1  12    0.90    0.80
  -3  -1 -12   -0.30    0.80
   3   1  12   -0.30    0.80
  -4  -1 -12    1.30    0.80
   4   1  12    2.20    1.00
  -5  -1 -12    2.80    1.00
   5   1  12    0.90    0.90
  -6  -1 -12    5.40    0.60
  -6  -1 -12    5.40    0.70
  -6  -1 -12    6.20    1.30
   6   1  12    4.90    1.20
  -7  -1 -12    2.60    0.70
  -7  -1 -12    3.90    0.70
  -7  -1 -12    6.40    1.30
   7   1  12    4.80    1.30
  -8  -1 -12   12.80    1.20
  -8  -1 -12   16.50    2.00
  -8  -1 -12   14.40    1.20
   8   1  12   17.10    1.90
  -9  -1 -12   12.20    1.50
  -9  -1 -12   16.10    1.40
  -9  -1 -12   22.20    2.10
   9   1  12   14.40    1.90
  10   1  12    4.10    1.50
 -11  -1 -12    1.80    1.00
 -11  -1 -12    3.60    1.40
  11   1  12    2.60    1.50
 -12  -1 -12    9.10    1.40
 -12  -1 -12   11.40    1.70
  12   1  12   10.30    2.00
 -13  -1 -12   10.40    1.60
 -13  -1 -12   11.90    1.90
  13   1  12    8.10    2.00
  10  -2 -12    0.40    1.10
 -10   2  12   -1.20    1.30
 -10   2  12    0.00    1.10
   9  -2 -12    1.00    1.00
  -9   2  12    2.60    1.30
  -9   2  12    1.00    0.90
   8  -2 -12    6.20    1.30
  -8   2  12    5.20    1.30
  -8   2  12    7.70    1.20
   7  -2 -12    0.50    0.90
  -7   2  12    1.60    1.00
  -7   2  12    0.70    0.80
   6  -2 -12   15.30    1.70
  -6   2  12   16.70    1.40
  -6   2  12   15.70    1.80
   5  -2 -12   21.60    2.00
   5  -2 -12   30.40    2.10
  -5   2  12   31.10    1.70
  -5   2  12   31.00    2.20
   4  -2 -12   24.30    1.90
   4  -2 -12   23.70    2.20
  -4   2  12   27.10    1.50
  -4   2  12   27.20    2.10
   3  -2 -12    9.10    0.90
   3  -2 -12   10.30    1.30
  -3   2  12   11.70    1.50
  -3   2  12   10.10    0.90
   2  -2 -12    2.70    0.50
   2  -2 -12    1.90    0.90
  -2   2  12    1.50    0.40
  -2   2  12    2.50    0.90
   1  -2 -12   79.39    3.90
  -1   2  12   78.59    3.90
   0  -2 -12  121.49    5.70
   0   2  12  127.09    5.60
  -1  -2 -12   44.50    2.60
   1   2  12   39.70    2.50
  -2  -2 -12   24.00    1.80
   2   2  12   18.70    1.70
  -3  -2 -12   24.90    1.90
   3   2  12   22.70    1.80
  -4  -2 -12    8.80    1.30
   4   2  12    7.80    1.20
  -5  -2 -12   15.90    1.60
   5   2  12   15.80    1.60
  -6  -2 -12    7.00    1.40
   6   2  12    7.00    1.30
  -7  -2 -12   15.90    1.80
  -7  -2 -12   12.30    1.00
  -7  -2 -12   11.60    0.90
   7   2  12    9.90    1.50
  -8  -2 -12    1.50    0.80
  -8  -2 -12    1.40    0.60
  -8  -2 -12    1.90    1.20
   8   2  12    0.80    1.00
  -9  -2 -12    0.30    1.10
  -9  -2 -12   -0.60    0.70
  -9  -2 -12   -2.20    1.00
   9   2  12   -0.50    1.20
 -10  -2 -12   -0.80    0.80
 -10  -2 -12   -0.40    1.20
  10   2  12   -2.20    1.10
 -11  -2 -12   -0.70    0.90
 -11  -2 -12   -0.40    1.20
  11   2  12   -0.40    1.20
 -12  -2 -12   -0.30    1.10
 -12  -2 -12   -0.60    1.30
  12   2  12    0.30    1.40
 -13  -2 -12    5.80    1.60
 -13  -2 -12    4.60    1.40
  13   2  12    4.30    1.90
 -11   3  12    7.60    1.70
 -11   3  12    3.10    1.40
  10  -3 -12    1.90    1.20
 -10   3  12    4.50    2.10
 -10   3  12    3.10    1.40
   9  -3 -12    8.70    1.20
  -9   3  12    6.60    1.50
  -9   3  12    9.00    1.30
   8  -3 -12    2.50    0.90
  -8   3  12    2.10    0.90
  -8   3  12    2.50    1.20
   7  -3 -12   14.90    1.50
  -7   3  12   12.40    1.40
  -7   3  12   14.20    1.90
   6  -3 -12   13.50    1.40
  -6   3  12   13.90    1.90
  -6   3  12   14.90    1.90
   5  -3 -12   -0.10    0.80
   5  -3 -12   -0.50    0.80
  -5   3  12    2.30    1.00
  -5   3  12    0.40    0.60
   4  -3 -12    4.00    1.00
   4  -3 -12    3.60    0.70
  -4   3  12    4.80    0.60
  -4   3  12    4.10    1.00
   3  -3 -12    3.90    1.00
   3  -3 -12    2.00    0.60
  -3   3  12    3.80    0.50
  -3   3  12    3.50    1.00
   2  -3 -12   11.50    1.40
  -2   3  12   11.80    1.30
   1  -3 -12    4.80    1.10
  -1   3  12    6.10    1.00
   0  -3 -12   24.10    1.80
   0   3  12   23.50    1.80
  -1  -3 -12    0.90    0.80
   1   3  12    0.60    0.70
  -2  -3 -12    2.90    0.80
   2   3  12    4.20    1.00
  -3  -3 -12    2.50    1.00
   3   3  12    1.50    0.80
  -4  -3 -12   22.10    1.80
   4   3  12   22.90    1.80
  -5  -3 -12   22.00    1.80
   5   3  12   17.00    1.70
  -6  -3 -12   14.50    1.70
   6   3  12   11.30    1.50
  -7  -3 -12   22.70    1.90
   7   3  12   27.50    2.10
  -8  -3 -12   35.30    2.40
  -8  -3 -12   27.80    1.80
  -8  -3 -12   31.50    1.60
   8   3  12   31.90    2.40
  -9  -3 -12   37.60    2.60
  -9  -3 -12   29.20    2.90
  -9  -3 -12   34.80    1.90
   9   3  12   32.80    2.60
 -10  -3 -12   -1.40    1.10
 -10  -3 -12    0.20    0.80
 -11  -3 -12   -0.10    1.40
 -11  -3 -12    0.40    0.90
  11   3  12   -0.80    1.20
 -12  -3 -12    4.60    1.20
 -12  -3 -12    4.50    1.60
  12   3  12    6.10    1.50
 -13  -3 -12    5.90    1.60
 -13  -3 -12    5.60    1.40
  13   3  12    5.10    1.70
 -14  -3 -12    1.20    1.50
 -14  -3 -12    3.40    1.70
  14   3  12    0.20    1.80
 -11   4  12    1.80    1.50
 -11   4  12    5.30    1.40
 -10   4  12   -0.60    1.30
   9  -4 -12    9.10    1.20
  -9   4  12    6.20    1.50
  -9   4  12    8.40    1.20
   8  -4 -12   36.20    2.30
  -8   4  12   46.10    3.00
  -8   4  12   38.30    2.40
   7  -4 -12    7.00    1.10
  -7   4  12    6.30    1.30
  -7   4  12    8.40    1.10
   6  -4 -12   22.70    1.70
   5  -4 -12   27.80    1.80
   5  -4 -12   28.40    2.00
  -5   4  12   31.60    2.30
  -5   4  12   30.90    1.70
   4  -4 -12   -1.20    0.70
  -4   4  12    1.00    0.80
  -4   4  12    0.70    0.50
   3  -4 -12   -0.40    0.70
  -3   4  12    0.00    0.60
  -3   4  12    0.80    0.40
   2  -4 -12   33.10    2.10
  -2   4  12   34.10    2.20
   1  -4 -12   65.89    3.30
  -1   4  12   63.69    3.30
   0  -4 -12    4.60    1.00
   0   4  12    3.30    0.80
  -1  -4 -12  164.38    7.30
   1   4  12  166.98    7.20
  -2  -4 -12    3.90    1.00
   2   4  12    3.50    1.00
  -3  -4 -12   50.89    2.90
   3   4  12   48.90    2.70
  -4  -4 -12    7.30    1.20
   4   4  12    6.60    1.10
  -5  -4 -12   20.90    1.80
   5   4  12   20.00    1.70
  -6  -4 -12    9.60    1.40
   6   4  12   10.10    1.30
  -7  -4 -12    3.90    1.20
   7   4  12    2.30    0.90
  -8  -4 -12    3.90    0.80
  -8  -4 -12    3.30    0.60
  -8  -4 -12    4.60    1.30
   8   4  12    5.00    1.20
  -9  -4 -12    2.40    1.10
  -9  -4 -12    1.80    1.00
  -9  -4 -12    2.60    0.80
   9   4  12    2.30    1.20
 -10  -4 -12    0.70    1.20
 -10  -4 -12    0.70    0.80
  10   4  12    1.80    1.20
 -11  -4 -12    2.20    2.10
 -11  -4 -12   -0.80    0.80
  11   4  12    1.30    1.30
 -12  -4 -12   -0.60    1.00
 -12  -4 -12   -0.20    1.20
  12   4  12    1.90    1.30
 -13  -4 -12    1.20    1.50
 -13  -4 -12    0.20    1.20
  13   4  12    0.50    1.60
 -14  -4 -12    2.10    1.50
 -14  -4 -12    2.20    1.70
  14   4  12    3.70    1.80
 -11   5  12    4.30    1.40
 -11   5  12    4.30    1.70
 -10   5  12    7.10    1.70
   9  -5 -12    5.00    1.00
  -9   5  12    5.20    1.10
  -9   5  12    5.30    1.50
   8  -5 -12   13.20    1.50
  -8   5  12    9.50    1.70
  -8   5  12   10.60    1.30
   7  -5 -12    0.80    0.80
  -7   5  12   -0.20    0.70
  -7   5  12    0.10    1.00
   6  -5 -12   -0.10    0.80
  -6   5  12    0.50    1.00
   5  -5 -12    1.50    0.80
  -5   5  12    2.80    0.70
  -5   5  12    1.30    0.90
   4  -5 -12   15.20    1.40
  -4   5  12   11.00    1.00
  -4   5  12   13.60    1.00
  -4   5  12   12.60    1.60
   3  -5 -12    0.80    0.70
  -3   5  12    1.70    0.40
  -3   5  12    1.70    0.80
  -3   5  12    2.00    0.50
   2  -5 -12   -0.20    0.60
  -2   5  12    2.10    0.80
  -2   5  12    1.10    0.30
   1  -5 -12    0.60    0.80
  -1   5  12    2.20    0.80
   0  -5 -12  146.49    6.50
   0   5  12  145.69    6.50
  -1  -5 -12   76.39    3.90
   1   5  12   78.79    3.80
  -2  -5 -12    8.00    1.20
   2   5  12    5.10    1.00
  -3  -5 -12    5.40    1.10
   3   5  12    4.60    0.90
  -4  -5 -12   38.80    2.40
   4   5  12   37.60    2.20
  -5  -5 -12    7.90    1.30
   5   5  12    7.90    1.20
  -6  -5 -12   10.70    1.50
   6   5  12    8.20    1.20
  -7  -5 -12   17.50    1.80
   7   5  12   16.50    1.70
  -8  -5 -12    6.10    0.70
  -8  -5 -12    5.90    1.20
   8   5  12    5.10    1.10
  -9  -5 -12   34.30    2.00
  -9  -5 -12   40.20    2.70
   9   5  12   42.00    2.60
 -10  -5 -12    1.50    1.20
 -10  -5 -12   -0.40    0.80
  10   5  12    1.90    1.10
 -11  -5 -12    3.00    1.00
 -11  -5 -12    2.70    1.30
  11   5  12    1.00    1.10
 -12  -5 -12    0.40    1.10
 -12  -5 -12    0.10    1.30
  12   5  12    1.10    1.40
 -13  -5 -12    1.50    1.30
 -13  -5 -12    3.20    1.60
  13   5  12    2.90    1.50
 -14  -5 -12   -1.20    1.50
 -14  -5 -12   -2.90    1.40
  14   5  12   -0.40    1.70
 -11   6  12   -2.20    1.20
 -11   6  12   -0.20    1.80
 -10   6  12    4.20    1.50
 -10   6  12    4.40    1.30
   9  -6 -12    2.00    1.00
  -9   6  12    4.10    1.00
  -9   6  12    1.60    1.20
   8  -6 -12   59.59    3.10
  -8   6  12   58.09    3.80
  -8   6  12   65.19    3.20
  -7   6  12   38.00    2.80
  -7   6  12   41.50    2.30
   6  -6 -12   68.19    3.40
  -6   6  12   69.89    3.30
   5  -6 -12   30.00    2.00
  -5   6  12   29.30    2.20
  -5   6  12   24.60    1.80
  -5   6  12   29.80    1.70
   4  -6 -12   28.20    1.90
  -4   6  12   26.30    2.00
  -4   6  12   25.60    1.50
  -4   6  12   22.80    2.00
   3  -6 -12    1.00    0.70
  -3   6  12    1.20    0.40
  -3   6  12    0.80    0.50
  -3   6  12    0.70    0.70
   2  -6 -12    1.40    0.80
  -2   6  12    0.50    0.30
  -2   6  12    0.60    0.60
  -2   6  12    0.30    0.40
   1  -6 -12   17.40    1.50
  -1   6  12   15.50    1.50
   0  -6 -12   28.70    2.00
   0   6  12   30.60    2.00
  -1  -6 -12    0.70    0.80
   1   6  12    0.70    0.60
  -2  -6 -12   -0.10    0.70
   2   6  12    0.30    0.60
  -3  -6 -12    4.60    1.10
   3   6  12    5.60    0.90
  -4  -6 -12    2.60    0.90
   4   6  12    1.50    0.80
  -5  -6 -12    6.80    1.20
   5   6  12    6.50    1.10
  -6  -6 -12    2.20    0.90
   6   6  12    0.90    0.80
  -7  -6 -12    1.30    1.00
  -7  -6 -12    0.60    0.40
   7   6  12    0.90    0.60
   7   6  12    0.60    0.80
  -8  -6 -12   14.50    1.90
  -8  -6 -12   10.40    1.00
   8   6  12   11.20    1.40
   8   6  12   11.10    1.00
  -9  -6 -12   12.20    1.20
  -9  -6 -12   13.90    1.80
   9   6  12   12.80    1.50
   9   6  12   13.90    1.70
 -10  -6 -12   14.60    2.50
 -10  -6 -12    9.90    1.10
  10   6  12   10.20    1.60
 -11  -6 -12    2.10    0.90
 -11  -6 -12    1.50    1.20
  11   6  12    0.20    1.20
 -12  -6 -12    0.80    1.10
 -12  -6 -12    2.40    1.30
 -13  -6 -12    1.80    1.30
 -13  -6 -12    4.00    1.70
  13   6  12    2.70    1.50
 -14  -6 -12    2.20    1.50
 -14  -6 -12    4.80    1.80
  14   6  12    2.10    1.80
 -10   7  12    3.50    1.20
 -10   7  12    2.70    1.50
  -9   7  12   -0.70    1.00
  -9   7  12    0.10    1.00
   8  -7 -12   21.10    1.70
  -8   7  12   18.80    2.30
  -8   7  12   20.40    1.80
   7  -7 -12    8.70    1.90
  -7   7  12    9.20    1.20
  -7   7  12   11.40    1.70
   6  -7 -12    6.50    1.00
  -6   7  12    6.70    1.00
  -6   7  12    7.40    1.40
   5  -7 -12   15.40    1.50
  -5   7  12   15.10    1.30
  -5   7  12   16.90    1.80
   4  -7 -12   26.10    1.80
  -4   7  12   21.10    1.40
  -4   7  12   26.30    2.00
  -4   7  12   18.70    1.40
   3  -7 -12   13.40    1.40
  -3   7  12   14.40    1.00
  -3   7  12   13.40    1.10
  -3   7  12   17.10    1.70
   2  -7 -12   13.70    1.40
  -2   7  12   15.20    1.50
  -2   7  12   10.40    0.90
  -2   7  12    9.60    0.80
   1  -7 -12    2.10    0.80
  -1   7  12    1.70    0.80
   0  -7 -12    0.90    0.70
   0   7  12    1.20    0.70
  -1  -7 -12   26.40    2.00
   1   7  12   27.50    1.80
  -2  -7 -12   52.79    3.10
   2   7  12   56.79    2.90
  -3  -7 -12   13.40    1.60
   3   7  12   12.00    1.30
  -4  -7 -12   18.10    1.80
   4   7  12   21.90    1.60
  -5  -7 -12   39.00    2.60
   5   7  12   40.60    2.30
  -6  -7 -12    1.50    0.90
   6   7  12    1.00    0.50
   6   7  12    1.00    0.90
  -7  -7 -12    8.30    0.80
  -7  -7 -12    9.30    1.40
   7   7  12    6.90    0.80
   7   7  12    7.80    1.20
  -8  -7 -12   13.40    1.70
  -8  -7 -12   12.20    1.10
   8   7  12   12.50    1.30
   8   7  12    9.50    1.30
  -9  -7 -12    1.90    0.80
  -9  -7 -12    2.60    1.20
   9   7  12    2.20    1.10
   9   7  12    0.70    1.00
 -10  -7 -12    0.50    1.10
 -10  -7 -12   -0.20    1.00
  10   7  12    0.20    1.20
 -11  -7 -12    4.10    1.00
 -11  -7 -12    6.80    1.70
  11   7  12    7.20    1.40
 -12  -7 -12    4.00    1.30
 -12  -7 -12    1.20    1.40
  12   7  12    0.10    1.40
 -13  -7 -12   -1.70    1.50
 -13  -7 -12   -0.30    1.40
  13   7  12   -0.40    1.60
 -10   8  12   -0.70    1.10
 -10   8  12   -0.90    1.30
  -9   8  12    5.60    1.30
  -9   8  12    3.30    1.50
   8  -8 -12    5.90    1.00
  -8   8  12    7.00    1.60
  -8   8  12    7.00    1.20
   7  -8 -12    3.20    1.60
  -7   8  12    2.20    1.20
  -7   8  12    4.90    1.00
   6  -8 -12    1.10    0.80
  -6   8  12    2.50    1.00
  -6   8  12    2.80    0.80
   5  -8 -12    6.10    1.10
  -5   8  12    5.80    1.00
  -5   8  12    4.60    1.50
   4  -8 -12   -0.30    0.70
  -4   8  12    0.40    0.60
  -4   8  12    1.10    0.80
  -4   8  12    0.40    0.90
   3  -8 -12   -1.10    0.60
  -3   8  12    1.50    0.80
  -3   8  12    0.80    0.60
   2  -8 -12    0.20    0.70
  -2   8  12    0.90    0.70
  -2   8  12    0.90    0.50
  -2   8  12    1.30    0.50
   1  -8 -12    3.50    1.00
  -1   8  12    2.90    0.90
  -1   8  12    2.20    0.50
  -1   8  12    1.30    0.50
   0  -8 -12   14.90    1.50
   0   8  12   19.90    1.50
   0   8  12   14.00    0.90
   0   8  12   12.90    0.90
  -1  -8 -12    8.10    1.30
   1   8  12    9.60    1.20
   1   8  12    8.70    0.70
  -2  -8 -12   27.20    2.10
   2   8  12   27.90    1.90
  -3  -8 -12    3.60    1.00
   3   8  12    2.90    0.90
  -4  -8 -12   28.60    2.20
   4   8  12   31.50    1.90
  -5  -8 -12   22.50    2.00
  -5  -8 -12   21.00    1.30
   5   8  12   23.70    1.70
   5   8  12   21.90    1.30
  -6  -8 -12   32.30    2.40
  -6  -8 -12   33.40    1.60
   6   8  12   32.80    2.10
   6   8  12   31.10    1.70
  -7  -8 -12    0.70    0.60
  -7  -8 -12    0.80    1.00
   7   8  12   -0.50    0.90
   7   8  12    0.10    0.70
  -8  -8 -12    3.60    0.80
  -8  -8 -12    3.40    1.10
   8   8  12    2.80    1.10
   8   8  12    2.60    0.90
  -9  -8 -12   21.90    1.60
  -9  -8 -12   22.50    3.00
   9   8  12   19.50    1.90
 -10  -8 -12   48.60    2.60
 -10  -8 -12   46.50    3.30
  10   8  12   48.90    3.00
 -11  -8 -12    8.70    1.70
 -11  -8 -12    8.50    1.30
  11   8  12    7.10    1.50
 -12  -8 -12   -0.20    1.30
 -12  -8 -12    0.00    1.20
  12   8  12    0.30    1.30
 -13  -8 -12   16.10    2.40
 -13  -8 -12   22.20    2.40
  13   8  12   26.30    2.80
 -10   9  12    1.10    2.00
 -10   9  12   -1.00    1.20
  -9   9  12    2.60    1.40
  -9   9  12    2.10    1.10
  -8   9  12   14.90    2.10
  -8   9  12   16.00    1.70
  -7   9  12   17.20    2.20
  -7   9  12   17.20    1.60
   6  -9 -12   17.50    1.60
  -6   9  12   17.70    1.50
  -6   9  12   18.10    2.00
   5  -9 -12   31.10    2.10
  -5   9  12   29.30    2.40
  -5   9  12   30.50    1.90
   4  -9 -12   49.20    2.80
  -4   9  12   46.60    2.90
   3  -9 -12   49.20    2.80
  -3   9  12   44.30    2.90
  -3   9  12   48.60    2.40
  -3   9  12   42.70    2.30
   2  -9 -12    8.60    1.40
  -2   9  12    7.40    1.10
  -2   9  12    9.40    1.00
  -2   9  12    9.40    1.30
   1  -9 -12   19.70    1.70
  -1   9  12   20.00    1.70
  -1   9  12   17.80    1.20
  -1   9  12   18.50    1.20
   0  -9 -12   95.59    4.70
   0   9  12   96.59    4.00
   0   9  12   97.49    4.50
   0   9  12   85.89    3.90
  -1  -9 -12   39.10    2.60
   1   9  12   40.20    1.90
   1   9  12   42.70    2.00
   1   9  12   47.30    2.50
  -2  -9 -12   64.69    3.60
   2   9  12   66.19    2.80
   2   9  12   59.29    2.80
   2   9  12   67.09    3.20
  -3  -9 -12   17.90    1.80
   3   9  12   16.20    1.10
   3   9  12   18.80    1.50
  -4  -9 -12    3.10    1.00
  -4  -9 -12    3.50    0.60
   4   9  12    2.50    0.60
   4   9  12    1.80    0.80
  -5  -9 -12    1.00    0.60
  -5  -9 -12    0.40    0.90
   5   9  12    1.90    0.60
   5   9  12    1.50    0.70
  -6  -9 -12    2.10    0.60
  -6  -9 -12    1.40    0.90
   6   9  12    0.40    0.70
   6   9  12    0.70    0.80
  -7  -9 -12   19.40    1.40
  -7  -9 -12   22.00    2.20
   7   9  12   20.90    1.70
   7   9  12   19.50    1.50
  -8  -9 -12    3.90    1.70
  -8  -9 -12    4.50    0.90
   8   9  12    4.20    1.10
  -9  -9 -12    4.10    1.50
  -9  -9 -12    2.10    1.60
   9   9  12    3.80    1.10
 -10  -9 -12   10.10    1.90
 -10  -9 -12   12.40    1.40
  10   9  12   14.60    1.60
 -11  -9 -12    2.70    1.20
 -11  -9 -12    4.10    1.40
  11   9  12    2.30    1.20
 -12  -9 -12    5.20    1.50
 -12  -9 -12    7.00    1.80
  12   9  12    7.00    1.50
 -13  -9 -12    0.00    1.60
 -13  -9 -12    0.40    1.60
  13   9  12    4.70    1.60
  -9  10  12    2.90    1.20
  -9  10  12    3.80    1.70
  -8  10  12    0.90    1.10
  -8  10  12    3.30    1.50
  -8  10  12    0.20    1.10
  -7  10  12    1.30    1.20
  -7  10  12    4.10    1.00
  -7  10  12    4.10    1.10
   6 -10 -12    4.50    1.10
  -6  10  12    4.90    1.10
  -6  10  12    2.50    1.20
   5 -10 -12    4.50    1.10
  -5  10  12    5.40    1.40
  -5  10  12    7.20    1.00
   4 -10 -12    0.70    0.80
  -4  10  12    0.40    1.00
  -4  10  12    0.70    0.70
   3 -10 -12   19.20    1.80
  -3  10  12   22.40    1.90
   2 -10 -12   20.10    1.80
  -2  10  12   24.50    1.90
  -2  10  12   21.70    1.50
   1 -10 -12   18.30    1.70
  -1  10  12   18.30    1.60
  -1  10  12   15.60    1.30
  -1  10  12   13.40    1.20
   0 -10 -12    3.00    1.00
   0  10  12    1.10    0.60
   0  10  12    3.60    0.80
  -1 -10 -12   30.70    2.30
   1  10  12   35.90    2.10
   1  10  12   30.10    1.70
   1  10  12   26.80    1.60
  -2 -10 -12   81.19    4.20
   2  10  12   75.39    3.40
   2  10  12   79.89    3.70
   2  10  12   69.39    3.30
  -3 -10 -12   16.40    1.90
   3  10  12   16.80    1.20
   3  10  12   19.10    1.50
  -4 -10 -12   39.60    1.90
  -4 -10 -12   40.30    2.70
   4  10  12   33.60    1.90
   4  10  12   39.40    2.20
  -5 -10 -12    6.50    1.50
  -5 -10 -12    7.20    0.90
   5  10  12    4.90    1.00
   5  10  12    6.00    1.00
  -6 -10 -12    2.30    1.30
  -6 -10 -12    3.60    0.80
   6  10  12    3.80    0.80
   6  10  12    3.40    0.90
  -7 -10 -12    7.80    1.50
  -7 -10 -12    9.30    1.10
   7  10  12    9.20    1.10
  -8 -10 -12    1.90    1.20
  -8 -10 -12    3.10    1.40
   8  10  12    3.10    1.00
  -9 -10 -12   19.40    2.40
  -9 -10 -12   21.60    1.90
   9  10  12   25.30    2.00
 -10 -10 -12   10.00    1.90
 -10 -10 -12   10.20    1.40
  10  10  12    9.10    1.40
 -11 -10 -12    8.00    1.90
 -11 -10 -12    7.00    1.50
  11  10  12    5.90    1.40
 -12 -10 -12   -0.10    1.40
 -12 -10 -12    0.50    1.60
  12  10  12    0.50    1.40
  -8  11  12    2.30    1.10
  -8  11  12    1.20    1.50
  -7  11  12   18.50    2.30
  -7  11  12   18.50    1.80
  -7  11  12   20.50    1.90
  -6  11  12    2.80    1.00
  -6  11  12    1.10    1.00
  -6  11  12    2.30    1.30
  -5  11  12   20.00    2.20
  -5  11  12   18.60    1.70
   4 -11 -12   16.90    1.80
  -4  11  12   18.10    1.90
  -4  11  12   17.00    1.60
   3 -11 -12    3.70    1.00
  -3  11  12    2.90    0.80
  -3  11  12    2.20    1.00
   2 -11 -12    0.60    0.90
  -2  11  12    0.50    0.80
  -2  11  12    1.10    0.70
   1 -11 -12    1.60    1.00
  -1  11  12    2.00    0.90
  -1  11  12    2.20    1.30
   0 -11 -12   13.80    1.70
   0  11  12   12.00    1.40
   0  11  12   14.00    1.30
  -1 -11 -12   17.90    2.00
   1  11  12   18.40    1.60
   1  11  12   16.70    1.40
   1  11  12   14.90    1.40
  -2 -11 -12    0.70    0.90
   2  11  12    0.80    0.80
   2  11  12    0.60    0.70
  -3 -11 -12   11.80    1.10
  -3 -11 -12   11.00    1.60
   3  11  12   10.00    1.20
   3  11  12    9.20    1.00
  -4 -11 -12   -0.50    1.10
  -4 -11 -12   -1.10    0.60
   4  11  12    0.80    0.70
  -5 -11 -12    1.20    0.80
  -5 -11 -12    2.20    1.30
   5  11  12    2.50    0.70
  -6 -11 -12    6.80    1.40
  -6 -11 -12    2.20    1.10
   6  11  12    4.10    0.90
  -7 -11 -12    0.30    1.10
  -7 -11 -12    1.20    0.90
   7  11  12    0.70    0.80
  -8 -11 -12   -1.40    1.00
  -8 -11 -12    0.70    1.30
   8  11  12    0.90    0.90
  -9 -11 -12    0.90    1.10
  -9 -11 -12    0.40    1.20
   9  11  12   -0.30    1.00
 -10 -11 -12   10.40    2.00
 -10 -11 -12    9.70    1.40
  10  11  12    9.30    1.30
 -11 -11 -12    0.50    1.60
 -11 -11 -12    0.80    1.20
  11  11  12    2.10    1.30
 -12 -11 -12    1.40    3.10
 -12 -11 -12    4.70    1.80
  -8  12  12   26.30    3.10
  -8  12  12   27.20    2.40
  -7  12  12    4.60    1.60
  -7  12  12    4.30    1.20
  -7  12  12    3.00    1.20
  -6  12  12   11.50    1.60
  -6  12  12    7.90    1.80
  -6  12  12    8.90    1.40
  -5  12  12    7.20    1.60
  -5  12  12    9.00    1.30
  -5  12  12    7.40    1.30
  -4  12  12   14.70    1.70
  -4  12  12   15.50    1.60
  -4  12  12   13.30    1.80
  -3  12  12   14.20    1.50
   2 -12 -12   21.80    2.00
  -2  12  12   19.00    1.70
  -2  12  12   21.00    1.90
   1 -12 -12    0.90    0.90
  -1  12  12    0.80    0.80
  -1  12  12   -0.50    0.80
   0 -12 -12    2.60    1.10
   0  12  12    1.90    0.90
   0  12  12    0.40    0.80
  -1 -12 -12   18.30    2.10
   1  12  12   19.80    1.80
   1  12  12   17.60    1.60
  -2 -12 -12   33.40    3.40
   2  12  12   37.10    2.30
  -3 -12 -12    6.90    1.10
  -3 -12 -12    6.80    1.50
   3  12  12    8.70    1.20
  -4 -12 -12   16.40    2.10
  -4 -12 -12   14.10    1.40
   4  12  12   18.40    1.50
  -5 -12 -12   16.00    1.60
  -5 -12 -12   15.70    2.00
   5  12  12   18.80    1.40
  -6 -12 -12    5.90    1.00
  -6 -12 -12    6.00    1.50
   6  12  12    4.90    0.90
  -7 -12 -12    4.10    1.10
  -7 -12 -12    7.10    1.60
   7  12  12    5.80    1.00
  -8 -12 -12    0.80    1.30
  -8 -12 -12    1.70    1.10
  -9 -12 -12    2.80    1.50
  -9 -12 -12    1.30    1.20
   9  12  12    5.20    1.40
 -10 -12 -12    9.50    1.90
 -10 -12 -12    5.20    1.40
  -7  13  12   18.20    2.40
  -7  13  12   22.50    2.10
  -7  13  12   15.50    1.90
  -6  13  12   14.50    1.70
  -6  13  12   10.10    1.60
  -6  13  12   12.90    2.10
  -5  13  12    6.90    1.50
  -5  13  12    9.50    1.50
  -5  13  12    7.30    1.40
  -4  13  12    5.10    1.30
  -4  13  12    5.30    1.20
  -4  13  12    7.10    1.30
  -3  13  12    6.50    1.40
  -3  13  12    5.70    1.20
  -2  13  12    2.10    1.30
  -2  13  12   -0.10    1.00
  -2  13  12    2.30    1.00
  -1  13  12    7.00    1.20
  -1  13  12    6.10    1.30
   0  13  12    3.30    1.10
   0  13  12    3.10    1.00
  -1 -13 -12   -0.20    1.00
   1  13  12    0.40    0.90
   1  13  12   -0.60    0.80
  -2 -13 -12    0.90    1.20
   2  13  12    0.50    0.80
  -3 -13 -12    1.10    0.80
  -3 -13 -12   -0.80    1.10
   3  13  12   -0.30    0.80
  -4 -13 -12    0.20    1.20
  -4 -13 -12   -1.00    0.90
   4  13  12    1.00    0.80
  -5 -13 -12    3.80    1.40
  -5 -13 -12    4.20    1.10
   5  13  12    3.70    0.90
  -6 -13 -12    3.70    1.10
  -6 -13 -12    2.70    1.40
   6  13  12    7.50    1.50
  -7 -13 -12    9.40    1.40
  -7 -13 -12   12.90    1.90
   7  13  12    9.30    1.10
  -8 -13 -12    8.50    1.30
   8  13  12    7.30    1.20
  -9 -13 -12    4.00    1.40
   9  13  12    0.30    1.60
 -10 -13 -12    3.20    2.00
  10  13  12    0.50    1.70
  -5  14  12    0.20    1.20
  -5  14  12   -1.00    1.30
  -4  14  12   22.60    2.30
  -4  14  12   27.50    2.60
  -4  14  12   24.60    2.20
  -3  14  12    9.50    1.50
  -3  14  12    8.30    1.50
  -3  14  12    8.50    1.70
  -2  14  12    0.30    1.10
  -2  14  12   -1.60    1.10
  -2  14  12    0.60    1.00
  -1  14  12    4.00    1.20
  -1  14  12    3.50    1.20
  -1  14  12    3.10    1.40
   0  14  12    5.10    1.10
   0  14  12    3.30    1.10
   0  14  12    4.80    1.40
   1  14  12   19.20    1.90
   1  14  12   18.20    1.80
   1  14  12   18.50    2.30
   2  14  12   13.10    1.40
   2  14  12   13.40    2.00
  -3 -14 -12    7.40    1.20
   3  14  12    3.00    1.30
   3  14  12    5.80    1.10
  -4 -14 -12    2.20    1.10
   4  14  12    1.30    1.30
   4  14  12    1.20    0.80
  -5 -14 -12    9.40    1.40
   5  14  12   10.70    1.90
  -6 -14 -12   -0.50    1.10
   6  14  12   -1.40    1.10
   6  14  12   -0.20    0.80
  -7 -14 -12   -0.70    1.10
   7  14  12   -2.60    1.30
  -8 -14 -12    3.40    1.50
   8  14  12    2.00    1.70
  -3  15  12    5.20    1.60
  -3  15  12    5.60    1.60
  -3  15  12    6.70    1.40
  -2  15  12   -0.40    1.30
  -2  15  12   -0.80    1.20
  -2  15  12   -1.90    1.20
  -1  15  12   -0.10    1.30
   0  15  12    1.10    1.20
   0  15  12    0.50    1.40
   0  15  12    1.90    1.10
   1  15  12    1.80    1.40
   1  15  12    2.90    1.20
   1  15  12    3.10    1.30
   2  15  12   14.10    1.50
   2  15  12   14.20    2.20
  -3 -15 -12   17.30    1.80
   3  15  12   18.80    2.50
   3  15  12   17.00    1.80
  -4 -15 -12   31.70    2.50
   4  15  12   36.70    2.10
   4  15  12   29.50    2.90
  -5 -15 -12   29.00    2.50
   5  15  12   28.20    2.90
  -6 -15 -12   13.30    2.20
   6  15  12   11.30    2.10
  -7 -15 -12    4.10    1.40
   0  16  12    2.00    1.40
   0  16  12    2.00    1.40
   0  16  12    3.80    1.40
   1  16  12    2.40    1.30
   1  16  12   -0.80    1.50
   1  16  12    0.20    1.20
   2  16  12   -0.70    1.20
   2  16  12    1.30    1.60
  -3 -16 -12   -0.40    1.20
   3  16  12    1.40    1.70
   1  -6  13   -0.30    1.40
   1  -6  13    0.00    1.40
  -2   6 -13    2.00    1.90
   2  -6  13    0.50    1.60
   3   5 -13    3.00    1.80
  -3  -5  13    4.20    1.50
  -3  -5  13    3.30    1.50
   2   5 -13    0.60    1.60
  -2  -5  13    1.70    1.40
  -2  -5  13    0.90    1.30
   1   5 -13    1.30    1.50
  -1  -5  13    2.30    1.40
  -1  -5  13    1.90    1.30
   0   5 -13    0.70    1.50
   0  -5  13    1.70    1.40
   0  -5  13    3.20    1.40
  -1   5 -13   -0.90    1.30
   1  -5  13   -1.30    1.20
   1  -5  13    0.10    1.30
  -2   5 -13   -0.70    1.40
  -2   5 -13    1.80    1.60
   2  -5  13    2.60    1.50
  -3   5 -13    0.80    1.40
  -3   5 -13   -0.50    1.40
   3  -5  13    0.70    1.40
  -4   5 -13    0.90    1.50
  -4   5 -13    0.70    1.50
   4  -5  13    2.90    1.70
  -5   5 -13    1.80    1.60
  -5   5 -13    2.60    1.60
   5  -5  13    2.40    1.70
  -6   5 -13   17.10    2.20
  -6   5 -13   17.70    2.40
   6  -5  13   15.50    2.30
   5   4 -13    0.60    1.50
  -5  -4  13   -0.10    1.40
  -5  -4  13   -1.50    1.40
   4   4 -13    0.80    1.40
  -4  -4  13    2.30    1.30
  -4  -4  13    1.50    1.30
   3   4 -13   -1.70    1.30
  -3  -4  13   -0.60    1.20
  -3  -4  13   -0.90    1.20
   2   4 -13   17.30    2.20
  -2  -4  13   16.20    1.60
  -2  -4  13   12.30    1.80
   1   4 -13    5.10    1.50
  -1  -4  13    4.50    1.20
  -1  -4  13    4.10    1.40
   0   4 -13    1.90    1.30
   0  -4  13    1.40    1.20
   0  -4  13    1.10    1.20
  -1   4 -13    0.60    1.20
   1  -4  13    0.40    1.00
   1  -4  13    3.00    1.30
  -2   4 -13    1.10    1.20
  -2   4 -13    2.20    1.30
   2  -4  13    2.00    1.30
  -3   4 -13    4.90    1.30
  -3   4 -13    2.20    1.40
   3  -4  13    3.00    1.40
  -4   4 -13    1.80    1.30
  -4   4 -13    1.10    1.40
   4  -4  13    1.60    1.40
  -5   4 -13    2.40    1.40
  -5   4 -13    1.00    1.40
   5  -4  13    2.80    1.60
  -6   4 -13    1.30    1.60
  -6   4 -13   -1.00    1.40
   6  -4  13    2.10    1.50
  -7   4 -13    0.30    1.50
  -7   4 -13    1.30    1.50
   7  -4  13    0.70    1.50
  -8   4 -13   -1.00    1.60
  -8   4 -13    1.90    1.70
   8  -4  13    0.00    1.60
   6   3 -13    3.40    1.50
  -6  -3  13    2.70    1.40
   5   3 -13    0.50    1.30
  -5  -3  13    0.80    1.30
  -5  -3  13   -0.80    1.10
   4   3 -13    1.10    1.30
  -4  -3  13    1.90    1.30
  -4  -3  13    2.00    1.10
   3   3 -13    4.60    1.50
  -3  -3  13    2.30    1.30
  -3  -3  13    3.10    1.10
   2   3 -13    1.50    1.30
  -2  -3  13    2.60    1.20
  -2  -3  13    3.00    1.00
   1   3 -13    1.60    1.30
  -1  -3  13    1.70    1.00
  -1  -3  13    1.30    1.20
   0   3 -13    6.30    1.50
   0  -3  13    2.50    1.10
  -1   3 -13    6.50    1.50
   1  -3  13    7.50    1.40
  -2   3 -13    7.70    1.20
  -2   3 -13    7.50    1.60
   2  -3  13    7.30    1.50
  -3   3 -13    2.60    1.00
  -3   3 -13   -0.50    1.00
   3  -3  13    1.00    1.20
  -4   3 -13    6.30    1.20
  -4   3 -13    4.90    1.50
   4  -3  13    3.80    1.40
  -5   3 -13    2.20    1.10
  -5   3 -13    1.40    1.40
   5  -3  13    4.30    1.50
  -6   3 -13    5.30    1.60
  -6   3 -13    6.40    1.50
   6  -3  13    5.50    1.70
  -7   3 -13    6.50    1.70
  -7   3 -13    9.20    1.40
   7  -3  13    6.60    1.70
  -8   3 -13    3.70    1.60
  -8   3 -13    3.60    1.40
   8  -3  13    2.60    1.50
  -9   3 -13    0.60    1.40
  -9   3 -13    0.00    1.50
   9  -3  13   -1.50    1.50
   7   2 -13    1.70    1.30
  -7  -2  13    1.10    1.30
  -7  -2  13   -0.50    1.30
   6   2 -13    7.80    1.60
  -6  -2  13    8.10    1.50
  -6  -2  13    8.10    1.40
   5   2 -13    4.70    1.50
  -5  -2  13    2.80    1.30
   4   2 -13    1.10    1.20
  -4  -2  13    2.60    1.10
  -4  -2  13    1.90    0.90
   3   2 -13    5.80    1.40
  -3  -2  13    6.20    1.00
  -3  -2  13    4.50    1.30
   2   2 -13    5.10    1.40
  -2  -2  13    7.20    1.60
  -2  -2  13    3.30    1.20
   1   2 -13    1.70    1.20
  -1  -2  13    0.30    1.30
  -1  -2  13    2.90    0.90
   0   2 -13    0.10    1.10
   0  -2  13   -0.40    0.80
   0  -2  13    1.50    1.40
  -1   2 -13   15.70    1.90
   1  -2  13   12.10    1.70
  -2   2 -13   16.90    1.70
  -2   2 -13   20.80    2.00
  -2   2 -13   17.90    1.40
   2  -2  13   22.40    2.10
  -3   2 -13    1.50    1.10
  -3   2 -13    0.50    0.80
  -3   2 -13    0.20    1.00
   3  -2  13    1.60    1.30
  -4   2 -13   -0.40    1.00
  -4   2 -13   -1.50    0.80
   4  -2  13   -0.90    1.10
  -5   2 -13    0.50    0.90
  -5   2 -13   -0.20    1.10
   5  -2  13    0.30    1.20
  -6   2 -13    2.50    1.40
  -6   2 -13    1.20    0.90
   6  -2  13    2.40    1.30
  -7   2 -13    3.20    1.50
  -7   2 -13    3.20    1.10
   7  -2  13    2.70    1.50
  -8   2 -13    0.80    1.00
  -8   2 -13    0.70    1.30
   8  -2  13   -0.50    1.40
  -9   2 -13   -2.10    1.20
  -9   2 -13   -0.80    1.50
   9  -2  13    2.70    1.60
 -10   2 -13    5.50    1.50
 -10   2 -13    6.40    1.70
  10  -2  13    4.20    1.60
   8   1 -13   14.50    1.70
  -8  -1  13   14.10    1.90
   7   1 -13    4.20    1.40
  -7  -1  13    3.30    1.40
  -7  -1  13    4.00    1.30
   6   1 -13    0.30    1.20
  -6  -1  13    1.40    1.20
  -6  -1  13    2.20    1.00
   5   1 -13    3.00    1.30
  -5  -1  13    2.50    1.10
  -5  -1  13    3.30    1.00
   4   1 -13    2.30    2.10
  -4  -1  13    2.00    1.20
  -4  -1  13    2.40    0.90
  -3  -1  13    0.00    1.70
  -3  -1  13    0.50    0.70
   2   1 -13    4.70    1.20
  -2  -1  13    7.80    0.90
  -2  -1  13    5.60    1.40
   1   1 -13    0.90    1.80
   1   1 -13   -0.90    0.90
  -1  -1  13   -0.60    0.60
  -1  -1  13    0.80    1.00
   0   1 -13   10.70    2.60
   0   1 -13    8.70    1.00
   0  -1  13   11.70    1.10
   0  -1  13   10.40    1.50
  -1   1 -13    4.50    0.80
  -1   1 -13    2.30    0.60
   1  -1  13    3.60    1.20
  -2   1 -13    5.40    2.30
  -2   1 -13    4.80    0.60
  -2   1 -13    4.60    0.80
   2  -1  13    6.60    1.50
  -3   1 -13   36.60    2.50
  -3   1 -13   28.70    1.70
  -4   1 -13    1.60    0.70
  -4   1 -13    5.00    0.70
  -4   1 -13    6.40    1.30
   4  -1  13    4.50    1.30
  -5   1 -13    8.20    0.90
  -5   1 -13    9.90    1.60
  -5   1 -13   10.30    1.00
   5  -1  13    9.10    1.60
  -6   1 -13    1.40    0.70
  -6   1 -13    2.60    1.10
   6  -1  13    1.00    1.20
  -7   1 -13   -0.40    1.00
  -7   1 -13    0.60    0.80
   7  -1  13    1.60    1.30
  -8   1 -13    1.00    1.00
  -8   1 -13    1.40    1.30
   8  -1  13    2.00    1.30
  -9   1 -13    9.90    1.80
   9  -1  13    6.80    1.60
 -10   1 -13    0.70    1.20
 -10   1 -13    0.10    1.30
  10  -1  13   -1.10    1.40
 -11   1 -13   -0.70    1.30
 -11   1 -13    0.20    1.60
  11  -1  13   -1.40    1.50
   9   0 -13   -1.70    1.30
   8   0 -13   14.00    1.80
  -8   0  13   15.10    1.90
  -8   0  13   12.50    1.60
   7   0 -13    1.70    1.20
  -7   0  13    1.70    1.10
  -7   0  13    0.70    1.20
   6   0 -13   -0.80    0.90
  -6   0  13   -1.00    0.90
  -6   0  13   -0.50    1.10
   5   0 -13   -0.40    0.90
  -5   0  13    1.80    0.80
  -5   0  13   -0.70    0.90
   4   0 -13   -0.40    0.90
  -4   0  13    1.60    0.70
  -4   0  13   -0.80    1.50
   3   0 -13    0.40    1.30
   3   0 -13    0.50    1.00
  -3   0  13    1.00    0.70
  -3   0  13    1.80    1.10
   2   0 -13    0.80    0.80
   2   0 -13    0.60    1.00
  -2   0  13    2.20    1.10
  -2   0  13    2.30    0.60
   1   0 -13    0.80    0.70
   1   0 -13   -0.10    1.00
  -1   0  13    0.30    1.00
  -1   0  13    0.70    0.50
   0   0 -13   13.60    1.70
   0   0  13   17.40    1.90
  -1   0 -13    4.80    1.20
   1   0  13    4.00    1.20
  -2   0 -13    2.90    1.10
   2   0  13    1.80    1.00
  -3   0 -13    5.20    1.20
   3   0  13    5.40    1.30
  -4   0 -13   12.20    1.80
   4   0  13   12.20    1.60
  -6   0 -13    0.40    1.20
  -6   0 -13    1.90    0.60
  -6   0 -13    2.20    0.70
   6   0  13    0.40    1.10
  -7   0 -13   -1.40    0.80
  -7   0 -13    0.70    0.70
  -7   0 -13    0.20    1.10
   7   0  13   -0.20    1.00
  -8   0 -13    1.40    0.80
  -8   0 -13    1.50    1.20
   8   0  13    0.20    1.10
  -9   0 -13    0.50    0.90
  -9   0 -13    1.50    1.30
   9   0  13    0.80    1.40
 -10   0 -13   -0.60    1.30
 -10   0 -13   -1.10    1.00
  10   0  13    1.60    1.40
 -11   0 -13    7.70    1.80
 -11   0 -13    5.60    1.40
  11   0  13    3.10    1.50
 -12   0 -13    2.20    1.80
 -12   0 -13    0.60    1.50
  12   0  13    1.90    1.70
   9  -1 -13    1.80    1.30
  -9   1  13    2.70    1.50
   8  -1 -13    4.10    1.30
  -8   1  13    4.80    1.30
  -8   1  13    8.20    1.40
   7  -1 -13   -0.30    1.20
  -7   1  13    2.60    1.00
  -7   1  13    1.50    1.30
   6  -1 -13    2.20    1.00
  -6   1  13    2.10    0.90
  -6   1  13    3.60    1.10
   5  -1 -13   23.50    2.10
  -5   1  13   24.10    2.20
  -5   1  13   23.60    2.60
   4  -1 -13   35.90    2.40
   4  -1 -13   30.50    2.20
  -4   1  13   36.60    1.90
  -4   1  13   34.30    2.90
   3  -1 -13   21.00    1.50
   3  -1 -13   20.60    1.90
  -3   1  13   21.00    2.00
  -3   1  13   22.10    1.40
   2  -1 -13   28.90    2.20
   2  -1 -13   30.40    1.60
  -2   1  13   30.40    2.30
  -2   1  13   31.10    1.50
   1  -1 -13   23.30    1.90
  -1   1  13   20.50    1.90
   0  -1 -13   17.20    1.80
   0   1  13   19.10    1.90
  -1  -1 -13   11.20    1.50
   1   1  13   10.10    1.30
  -2  -1 -13   -0.70    0.80
   2   1  13   -1.00    0.90
  -3  -1 -13    0.70    1.00
   3   1  13   -0.80    0.90
  -4  -1 -13    4.50    1.20
   4   1  13    6.00    1.20
  -5  -1 -13   -1.60    0.90
   5   1  13   -2.00    0.90
  -6  -1 -13    5.70    1.40
   6   1  13    2.10    1.40
  -7  -1 -13    1.80    0.60
  -7  -1 -13    1.30    0.60
   7   1  13    0.90    1.20
  -8  -1 -13    4.60    0.80
  -8  -1 -13    2.00    0.90
  -8  -1 -13    5.80    1.40
   8   1  13    5.40    1.30
  -9  -1 -13    0.50    0.80
  -9  -1 -13    0.60    1.20
   9   1  13   -0.10    1.30
 -10  -1 -13   -0.10    1.20
 -10  -1 -13   -1.20    0.90
  10   1  13    0.60    1.20
 -11  -1 -13    2.70    1.50
 -11  -1 -13    2.60    1.10
  11   1  13   -1.10    1.50
 -12  -1 -13    1.40    1.30
 -12  -1 -13    2.80    1.70
  12   1  13   -0.30    1.50
   9  -2 -13   -1.10    1.10
  -9   2  13    4.40    1.30
  -9   2  13    0.80    1.40
   8  -2 -13    1.20    1.10
  -8   2  13    0.70    1.00
  -8   2  13    1.30    1.20
   7  -2 -13    1.00    1.00
  -7   2  13   -0.20    1.20
  -7   2  13    1.30    0.90
   6  -2 -13    1.10    1.00
  -6   2  13    2.20    0.80
  -6   2  13    2.20    1.10
   5  -2 -13   -2.90    1.70
   5  -2 -13   -1.10    0.90
  -5   2  13    0.20    0.70
  -5   2  13    1.00    1.10
   4  -2 -13   -0.20    0.90
   4  -2 -13   -0.60    0.80
  -4   2  13    0.50    0.60
  -4   2  13   -0.70    1.00
   3  -2 -13    3.50    1.10
   3  -2 -13    1.30    0.60
  -3   2  13    2.90    0.50
  -3   2  13    3.60    1.00
   2  -2 -13    0.40    0.90
  -2   2  13    1.60    1.00
   1  -2 -13   10.80    1.40
  -1   2  13   10.10    1.30
   0  -2 -13   -0.70    0.90
   0   2  13    0.70    0.90
  -1  -2 -13   -0.20    0.90
   1   2  13    0.10    0.90
  -2  -2 -13   33.70    2.40
   2   2  13   34.60    2.30
  -3  -2 -13   17.60    1.80
   3   2  13   16.70    1.80
  -4  -2 -13   50.59    2.90
   4   2  13   44.30    2.80
  -5  -2 -13   35.20    2.40
   5   2  13   32.50    2.40
  -6  -2 -13   19.30    1.90
   6   2  13   14.30    1.70
  -7  -2 -13   35.10    2.50
   7   2  13   38.00    2.80
  -8  -2 -13    8.10    2.50
  -8  -2 -13    5.80    0.80
  -8  -2 -13    8.50    0.80
   8   2  13    5.70    1.20
  -9  -2 -13    8.90    1.60
  -9  -2 -13    6.60    0.90
   9   2  13    6.30    1.50
 -10  -2 -13    8.20    1.70
 -10  -2 -13    7.00    1.10
  10   2  13    5.10    1.50
 -11  -2 -13    3.10    1.10
 -11  -2 -13    2.30    1.40
  11   2  13    3.20    1.50
 -12  -2 -13    7.80    1.40
 -12  -2 -13    6.20    1.80
  12   2  13    4.00    1.70
 -13  -2 -13    1.30    1.50
 -13  -2 -13    4.60    1.70
  13   2  13    2.30    1.90
 -10   3  13    7.80    1.90
 -10   3  13   12.30    1.60
   9  -3 -13    1.90    1.10
  -9   3  13    2.50    1.40
  -9   3  13    0.70    1.10
   8  -3 -13   14.10    1.60
  -8   3  13   18.30    2.10
  -8   3  13   16.00    1.70
   7  -3 -13   14.50    1.60
  -7   3  13   13.60    1.50
  -7   3  13   13.50    1.80
   6  -3 -13   19.70    1.80
  -6   3  13   18.50    1.60
  -6   3  13   17.90    2.00
   5  -3 -13   16.40    1.70
   5  -3 -13   12.70    1.40
  -5   3  13   17.60    1.30
  -5   3  13   14.40    2.00
   4  -3 -13    6.20    0.90
   4  -3 -13    8.40    1.30
  -4   3  13    9.00    1.40
  -4   3  13    7.80    0.80
   3  -3 -13   11.40    1.50
  -3   3  13   11.40    0.80
  -3   3  13   10.30    1.50
   2  -3 -13   31.00    2.20
  -2   3  13   32.10    2.20
   1  -3 -13   33.40    2.20
  -1   3  13   31.10    2.20
   0  -3 -13    7.60    1.30
   0   3  13    7.00    1.20
  -1  -3 -13   27.00    2.00
   1   3  13   27.40    2.00
  -2  -3 -13    9.50    1.40
   2   3  13    7.30    1.10
  -3  -3 -13    4.20    1.10
   3   3  13    4.70    1.10
  -4  -3 -13    1.20    1.00
   4   3  13    1.10    1.00
  -5  -3 -13   -0.60    0.90
   5   3  13    0.70    0.90
  -6  -3 -13    1.70    1.00
   6   3  13    0.20    1.00
  -7  -3 -13    2.40    1.00
   7   3  13    3.30    1.10
  -8  -3 -13    2.20    1.50
   8   3  13    0.40    1.40
  -9  -3 -13   -1.00    0.90
  -9  -3 -13   -0.90    1.10
  -9  -3 -13    0.10    0.70
   9   3  13    1.00    1.20
 -10  -3 -13    9.50    1.10
 -10  -3 -13    8.80    1.70
  10   3  13   10.80    1.70
 -11  -3 -13    1.80    1.30
  11   3  13   -0.20    1.40
 -12  -3 -13    2.30    1.50
 -12  -3 -13    0.30    1.10
  12   3  13    2.00    1.60
 -13  -3 -13    7.10    1.80
 -13  -3 -13    3.30    1.50
  13   3  13    6.70    1.90
 -10   4  13    3.50    1.30
 -10   4  13    2.40    1.60
   9  -4 -13   -1.20    1.10
  -9   4  13   -0.70    1.20
  -9   4  13   -1.40    1.00
   8  -4 -13    1.20    1.00
  -8   4  13   -0.60    1.20
  -8   4  13    0.50    0.90
   7  -4 -13   15.10    1.70
  -7   4  13   15.50    2.10
  -7   4  13   15.30    1.50
   6  -4 -13    0.10    0.90
  -6   4  13    0.90    1.10
   5  -4 -13    2.50    1.10
  -5   4  13    5.70    1.30
  -5   4  13    4.20    0.80
   4  -4 -13    6.40    1.20
  -4   4  13    4.20    0.70
  -4   4  13    4.20    1.10
   3  -4 -13   11.50    1.50
  -3   4  13    8.90    0.90
  -3   4  13    9.50    0.80
  -3   4  13    8.70    1.40
   2  -4 -13    2.00    1.00
  -2   4  13    1.90    0.90
   1  -4 -13    4.90    1.20
  -1   4  13    4.80    1.10
   0  -4 -13   38.10    2.50
   0   4  13   40.10    2.40
  -1  -4 -13   50.39    3.00
   1   4  13   49.20    2.80
  -2  -4 -13  113.49    5.40
   2   4  13  111.79    5.20
  -3  -4 -13    5.10    1.20
   3   4  13    6.40    1.10
  -4  -4 -13    8.30    1.40
   4   4  13    7.90    1.30
  -5  -4 -13   25.70    2.10
   5   4  13   24.00    1.90
  -6  -4 -13   11.30    1.50
   6   4  13   11.60    1.50
  -7  -4 -13    3.10    1.20
   7   4  13    2.40    1.20
  -8  -4 -13    4.20    1.30
   8   4  13    1.90    1.10
  -9  -4 -13    2.50    0.60
  -9  -4 -13    2.30    1.30
  -9  -4 -13    2.50    1.00
   9   4  13    1.40    2.10
 -10  -4 -13   -0.20    0.80
 -10  -4 -13    2.30    1.50
  10   4  13    1.40    1.30
 -11  -4 -13    1.10    1.30
 -11  -4 -13   -0.30    1.00
  11   4  13    0.60    1.30
 -12  -4 -13   -2.20    1.10
 -12  -4 -13    0.50    1.40
  12   4  13    0.00    1.40
 -13  -4 -13    2.80    1.70
 -13  -4 -13    0.00    1.40
 -10   5  13    6.50    1.40
 -10   5  13    3.80    1.70
  -9   5  13   33.20    2.90
  -9   5  13   30.40    2.30
   8  -5 -13   10.20    1.30
  -8   5  13    7.90    1.30
  -8   5  13    9.20    1.80
   7  -5 -13    0.60    0.90
  -7   5  13    0.70    0.80
  -7   5  13    0.80    1.20
   6  -5 -13   24.80    1.90
  -6   5  13   22.90    2.20
   5  -5 -13    2.60    1.00
  -5   5  13    3.30    0.80
  -5   5  13    3.60    0.70
  -5   5  13    4.40    1.20
   4  -5 -13    3.60    1.00
  -4   5  13    2.50    1.00
  -4   5  13    2.00    0.60
  -4   5  13    2.40    0.60
   3  -5 -13   13.60    1.60
  -3   5  13   10.30    0.80
  -3   5  13    8.90    1.30
  -3   5  13    9.30    0.90
   2  -5 -13    3.00    1.00
  -2   5  13    3.20    0.90
   1  -5 -13   26.10    2.00
  -1   5  13   28.90    2.00
   0  -5 -13   34.90    2.40
   0   5  13   38.10    2.30
  -1  -5 -13   16.50    1.70
   1   5  13   17.60    1.60
  -2  -5 -13    1.60    0.90
   2   5  13    1.70    0.90
  -3  -5 -13    1.20    0.90
   3   5  13    1.60    0.90
  -4  -5 -13   10.10    1.50
   4   5  13    7.70    1.20
  -5  -5 -13    7.20    1.30
   5   5  13    9.20    1.30
  -6  -5 -13    4.70    1.20
   6   5  13    4.50    1.10
  -7  -5 -13    3.00    1.30
   7   5  13    2.50    1.00
  -8  -5 -13   12.20    1.80
   8   5  13   12.50    1.70
  -9  -5 -13   18.30    1.30
  -9  -5 -13   19.50    1.70
  -9  -5 -13   22.10    2.30
 -10  -5 -13   10.80    1.80
 -10  -5 -13   10.60    1.10
  10   5  13   11.80    3.10
 -11  -5 -13   -1.60    1.30
 -11  -5 -13    0.80    1.00
  11   5  13    0.70    1.30
 -12  -5 -13   -1.40    1.10
 -12  -5 -13    1.50    1.30
  12   5  13    0.80    1.50
 -13  -5 -13    2.10    1.60
 -13  -5 -13   -0.10    1.40
  13   5  13    2.60    1.70
 -10   6  13   -1.90    1.40
 -10   6  13   -0.50    1.20
   9  -6 -13   -0.10    1.20
  -9   6  13   -0.40    1.10
  -9   6  13   -0.50    1.20
   8  -6 -13    2.30    1.00
  -8   6  13    1.20    1.00
  -8   6  13    1.40    1.20
   7  -6 -13   22.50    1.80
  -7   6  13   21.20    1.70
  -7   6  13   21.60    2.30
   6  -6 -13   14.00    1.50
  -6   6  13   10.80    1.20
  -6   6  13   14.20    1.80
   5  -6 -13   48.30    2.70
  -5   6  13   42.00    2.40
  -5   6  13   52.49    3.10
  -5   6  13   49.80    2.40
   4  -6 -13    7.00    1.20
  -4   6  13    7.90    0.90
  -4   6  13    5.80    0.80
  -4   6  13    5.20    1.20
   3  -6 -13    6.60    1.10
  -3   6  13    3.80    0.60
  -3   6  13    5.00    0.60
  -3   6  13    5.80    1.20
   2  -6 -13    6.70    1.20
  -2   6  13    4.90    1.00
   1  -6 -13    6.00    1.20
  -1   6  13    4.20    1.00
   0  -6 -13   16.80    1.70
   0   6  13   16.40    1.60
  -1  -6 -13    6.50    1.20
   1   6  13    6.00    1.10
  -2  -6 -13   90.99    4.60
   2   6  13   91.79    4.40
  -3  -6 -13    1.70    0.90
   3   6  13    0.60    0.90
  -4  -6 -13    8.20    1.40
   4   6  13    6.10    1.10
  -5  -6 -13    2.70    1.10
   5   6  13    0.50    0.90
  -6  -6 -13    1.20    0.90
   6   6  13    0.00    0.80
  -7  -6 -13    3.50    1.10
   7   6  13    2.70    1.00
  -8  -6 -13   10.90    1.80
   8   6  13   10.60    1.50
  -9  -6 -13    5.30    1.30
  -9  -6 -13    3.80    0.70
   9   6  13    2.30    1.20
 -10  -6 -13    1.70    0.90
 -10  -6 -13    2.10    1.20
  10   6  13   -0.50    1.20
 -11  -6 -13    0.90    1.30
 -11  -6 -13   -2.70    1.70
  11   6  13   -0.90    1.30
 -12  -6 -13   -1.40    1.30
 -12  -6 -13    0.60    1.10
  12   6  13    1.80    1.60
 -13  -6 -13    0.30    1.40
 -13  -6 -13    2.60    1.60
  13   6  13    2.90    1.70
  -9   7  13    1.80    1.40
  -9   7  13    1.40    1.10
  -8   7  13    1.80    0.90
  -8   7  13    0.00    1.10
   7  -7 -13   21.50    1.80
  -7   7  13   19.40    2.30
  -7   7  13   20.80    1.70
   6  -7 -13    1.80    0.90
  -6   7  13    1.60    0.70
  -6   7  13    1.70    1.10
   5  -7 -13    2.90    0.90
  -5   7  13    2.30    0.60
  -5   7  13    1.10    1.00
   4  -7 -13   -0.10    0.80
  -4   7  13    1.50    1.40
  -4   7  13    0.50    0.50
   3  -7 -13    1.00    0.70
  -3   7  13    0.30    0.40
  -3   7  13    0.10    0.50
  -3   7  13    1.30    0.90
   2  -7 -13    3.00    0.90
  -2   7  13    1.50    0.50
  -2   7  13    1.60    0.80
   1  -7 -13    1.60    0.90
  -1   7  13    2.10    0.90
   0  -7 -13   51.89    3.00
   0   7  13   50.49    2.90
  -1  -7 -13   71.89    3.80
   1   7  13   75.39    3.70
  -2  -7 -13   19.10    1.80
   2   7  13   16.70    1.60
  -3  -7 -13    9.80    1.40
   3   7  13    8.40    1.20
  -4  -7 -13    0.40    0.80
   4   7  13    1.40    0.90
  -5  -7 -13    4.30    1.10
   5   7  13    3.80    1.10
  -6  -7 -13    0.70    1.00
   6   7  13    0.30    0.90
  -7  -7 -13    0.80    1.10
   7   7  13    1.30    0.90
  -8  -7 -13    1.30    1.40
  -8  -7 -13    2.50    0.60
   8   7  13    1.00    0.80
   8   7  13    3.60    1.00
  -9  -7 -13   12.30    1.20
  -9  -7 -13   14.00    2.00
   9   7  13   11.50    1.50
 -10  -7 -13   18.60    1.70
 -10  -7 -13   20.90    2.30
  10   7  13   22.00    2.30
 -11  -7 -13    2.10    1.50
 -11  -7 -13    2.10    1.10
  11   7  13    0.90    1.40
 -12  -7 -13    9.30    1.40
 -12  -7 -13   13.70    1.90
  12   7  13    9.10    1.80
 -13  -7 -13   -2.10    1.70
 -13  -7 -13    2.00    1.50
  13   7  13    2.90    1.60
  -9   8  13    0.50    1.20
  -9   8  13    1.90    1.40
  -8   8  13    3.60    1.10
  -8   8  13    4.90    1.50
   7  -8 -13   24.80    2.00
  -7   8  13   28.70    2.40
  -7   8  13   25.70    1.90
   6  -8 -13    6.20    1.20
  -6   8  13    5.80    1.00
  -6   8  13    5.60    1.30
   5  -8 -13   23.00    1.90
  -5   8  13   24.30    2.20
   4  -8 -13   17.00    1.70
  -4   8  13   16.60    2.40
  -4   8  13   15.60    1.40
  -4   8  13   19.70    1.30
   3  -8 -13    8.00    1.30
  -3   8  13    8.00    0.80
  -3   8  13    7.50    1.30
  -3   8  13    6.60    0.80
   2  -8 -13   10.70    1.50
  -2   8  13   10.60    1.40
  -2   8  13    7.60    0.80
  -2   8  13    8.90    0.90
   1  -8 -13   11.90    1.60
  -1   8  13   11.40    1.40
   0  -8 -13   55.89    3.20
   0   8  13   52.49    3.00
  -1  -8 -13   21.00    1.90
   1   8  13   23.00    1.80
  -2  -8 -13    1.90    1.10
   2   8  13    1.30    0.80
  -3  -8 -13    0.90    0.90
   3   8  13    4.50    1.00
  -4  -8 -13   10.40    1.60
   4   8  13   13.70    1.40
  -5  -8 -13    5.40    1.30
   5   8  13    6.20    1.10
  -6  -8 -13   11.40    1.60
   6   8  13   11.10    1.30
  -7  -8 -13    3.60    0.60
   7   8  13    2.40    0.70
   7   8  13    2.40    1.00
  -8  -8 -13    9.70    1.70
  -8  -8 -13    5.80    0.70
   8   8  13    6.10    1.20
   8   8  13    4.30    1.10
  -9  -8 -13    0.00    1.20
  -9  -8 -13   -0.80    0.80
   9   8  13   -0.10    1.10
 -10  -8 -13    2.00    1.00
 -10  -8 -13   -0.40    1.20
 -11  -8 -13    6.10    1.60
 -11  -8 -13    4.60    1.20
  11   8  13    4.00    1.40
 -12  -8 -13    1.00    1.60
 -12  -8 -13    3.00    1.40
  -9   9  13    3.50    1.20
  -9   9  13    0.20    1.40
  -8   9  13    3.60    1.40
  -8   9  13    1.90    1.10
   7  -9 -13    2.70    1.10
  -7   9  13    2.70    1.00
  -7   9  13    2.20    1.30
   6  -9 -13    4.10    1.10
  -6   9  13    4.50    1.00
  -6   9  13    4.30    1.40
   5  -9 -13   -2.10    0.90
  -5   9  13   -1.00    1.00
  -5   9  13    2.60    0.70
   4  -9 -13   23.20    1.90
  -4   9  13   25.60    2.00
  -4   9  13   21.90    1.50
   3  -9 -13    1.60    0.90
  -3   9  13    2.70    1.00
  -3   9  13    1.70    0.60
  -3   9  13    2.00    0.80
   2  -9 -13    1.30    0.90
  -2   9  13    0.80    0.60
  -2   9  13   -0.40    0.50
  -2   9  13   -0.40    0.90
   1  -9 -13    4.30    1.10
  -1   9  13    3.70    0.60
  -1   9  13    4.30    0.60
  -1   9  13    5.30    1.10
   0  -9 -13   18.20    1.80
   0   9  13   15.80    1.60
   0   9  13   15.60    1.00
   0   9  13   16.40    1.00
  -1  -9 -13   35.00    2.50
   1   9  13   34.60    2.30
  -2  -9 -13   24.40    2.20
   2   9  13   29.60    2.00
  -3  -9 -13   57.69    3.40
   3   9  13   61.19    3.20
  -4  -9 -13   17.70    1.90
   4   9  13   16.50    1.50
  -5  -9 -13   17.70    1.90
   5   9  13   12.30    1.10
   5   9  13   15.00    1.50
  -6  -9 -13   28.20    1.50
   6   9  13   31.50    2.10
   6   9  13   28.80    1.60
  -7  -9 -13   33.30    1.80
  -7  -9 -13   34.80    2.60
   7   9  13   36.90    2.30
   7   9  13   31.00    1.90
  -8  -9 -13   71.09    4.10
  -8  -9 -13   67.29    3.20
   8   9  13   69.09    3.50
  -9  -9 -13   39.20    2.30
  -9  -9 -13   40.90    3.20
   9   9  13   39.90    2.70
 -10  -9 -13    8.10    1.80
 -10  -9 -13    7.50    1.30
  10   9  13   11.00    1.60
 -11  -9 -13    2.80    1.20
 -11  -9 -13    2.60    1.60
  11   9  13    2.80    1.40
 -12  -9 -13    3.60    1.40
 -12  -9 -13    2.50    1.70
  12   9  13    2.50    1.50
  -8  10  13   12.30    1.80
  -8  10  13   10.70    1.90
  -7  10  13    9.90    1.40
  -7  10  13    9.90    1.80
   6 -10 -13   22.70    2.00
  -6  10  13   22.60    1.80
  -6  10  13   25.10    2.30
   5 -10 -13    2.30    1.00
  -5  10  13   -0.10    0.80
  -5  10  13    0.40    1.00
   4 -10 -13   18.30    1.80
  -4  10  13   19.40    1.50
  -4  10  13   18.00    2.00
   3 -10 -13    6.40    1.20
  -3  10  13    6.50    0.90
   2 -10 -13    0.00    0.90
  -2  10  13   -0.20    0.70
  -2  10  13    2.30    0.70
  -2  10  13    1.20    1.00
   1 -10 -13   32.40    2.30
  -1  10  13   32.30    1.80
  -1  10  13   30.90    1.90
  -1  10  13   30.10    2.30
   0 -10 -13   17.80    1.90
   0  10  13   19.40    1.20
   0  10  13   20.70    1.80
   0  10  13   16.70    1.30
  -1 -10 -13    0.90    1.00
   1  10  13    2.20    0.60
   1  10  13    2.30    1.00
   1  10  13    2.60    0.60
  -2 -10 -13    4.80    1.20
   2  10  13    2.30    0.60
   2  10  13    4.50    1.00
   2  10  13    2.80    0.60
  -3 -10 -13    1.90    1.00
   3  10  13    1.10    0.60
   3  10  13    3.20    1.00
   3  10  13    0.60    0.50
  -4 -10 -13    0.20    1.20
   4  10  13    2.50    0.90
   4  10  13    1.40    0.60
  -5 -10 -13   21.00    2.80
  -5 -10 -13   21.70    1.30
   5  10  13   21.90    1.70
   5  10  13   17.70    1.30
  -6 -10 -13   22.60    2.20
  -6 -10 -13   19.10    1.40
   6  10  13   19.90    1.70
   6  10  13   16.70    1.50
  -7 -10 -13   12.00    1.80
  -7 -10 -13   13.80    1.40
   7  10  13   17.90    1.60
  -8 -10 -13    1.80    1.30
  -8 -10 -13   -0.20    0.90
   8  10  13    0.00    0.90
  -9 -10 -13    1.70    1.20
  -9 -10 -13    0.80    1.30
   9  10  13    1.40    1.10
 -10 -10 -13    9.10    1.90
 -10 -10 -13    7.30    1.30
  10  10  13    6.70    1.40
 -11 -10 -13    1.50    1.30
 -11 -10 -13    3.10    1.70
  11  10  13    2.70    1.40
 -12 -10 -13   -2.20    1.60
 -12 -10 -13   -0.50    1.50
  12  10  13    3.60    1.60
  -8  11  13   21.70    3.00
  -8  11  13   16.80    1.80
  -7  11  13   14.10    2.10
  -7  11  13   11.40    1.50
  -7  11  13   15.40    1.70
  -6  11  13    5.60    1.50
  -6  11  13    4.90    1.10
   5 -11 -13    1.20    1.00
  -5  11  13   -0.30    0.80
  -5  11  13    0.60    1.10
   4 -11 -13   12.00    1.60
  -4  11  13   14.50    1.50
  -4  11  13   13.10    1.80
   3 -11 -13   30.70    2.40
  -3  11  13   33.00    2.50
  -3  11  13   32.50    2.00
   2 -11 -13    6.20    1.30
  -2  11  13    5.50    1.20
   1 -11 -13   22.30    2.00
  -1  11  13   19.10    1.50
  -1  11  13   23.90    2.10
   0 -11 -13   24.60    2.20
   0  11  13   19.50    1.50
   0  11  13   24.00    1.60
   0  11  13   27.00    2.00
  -1 -11 -13   28.40    2.40
   1  11  13   29.00    1.70
   1  11  13   30.00    2.10
   1  11  13   27.30    1.80
  -2 -11 -13   32.80    2.60
   2  11  13   33.90    2.00
   2  11  13   36.80    2.20
  -3 -11 -13    5.90    2.20
   3  11  13    5.30    1.20
  -4 -11 -13    4.60    1.40
   4  11  13    4.60    1.00
  -5 -11 -13   -0.40    1.10
  -5 -11 -13    1.00    0.80
   5  11  13    0.90    0.80
  -6 -11 -13    1.00    0.80
  -6 -11 -13    0.90    1.10
   6  11  13    3.00    1.00
  -7 -11 -13    0.40    1.20
  -7 -11 -13    1.40    0.90
   7  11  13   -1.30    0.90
  -8 -11 -13   -0.80    1.20
  -8 -11 -13    0.90    1.00
   8  11  13   -0.60    1.00
  -9 -11 -13    1.60    1.40
  -9 -11 -13    2.40    1.20
   9  11  13    2.80    1.20
 -10 -11 -13    0.10    1.30
 -10 -11 -13    1.00    1.60
  10  11  13    2.30    1.20
 -11 -11 -13    0.20    1.40
 -11 -11 -13    0.60    1.60
  11  11  13    1.90    1.40
  -7  12  13   25.50    2.80
  -7  12  13   21.50    2.20
  -7  12  13   21.80    2.10
  -6  12  13   15.10    1.80
  -6  12  13   19.90    1.90
  -6  12  13   19.80    2.30
  -5  12  13    2.50    1.10
  -5  12  13    1.50    1.30
  -5  12  13    0.60    1.00
  -4  12  13    0.40    1.10
  -4  12  13   -0.20    0.90
   3 -12 -13   -1.10    1.00
  -3  12  13    0.90    0.90
  -3  12  13   -0.50    1.00
   2 -12 -13    8.50    1.50
  -2  12  13    9.30    1.60
  -2  12  13   10.00    1.20
   1 -12 -13    1.30    1.10
  -1  12  13    1.90    0.90
  -1  12  13    1.60    0.90
   0 -12 -13    0.30    1.80
   0  12  13    2.80    1.00
   0  12  13    0.30    1.00
  -1 -12 -13   10.80    1.90
   1  12  13    9.70    1.80
   1  12  13   12.00    1.50
  -2 -12 -13    6.00    1.50
   2  12  13    7.50    1.20
   2  12  13    8.20    1.10
  -3 -12 -13    5.90    1.50
   3  12  13    6.10    1.10
  -4 -12 -13    0.50    0.80
  -4 -12 -13    2.30    1.40
   4  12  13    0.10    0.80
  -5 -12 -13    2.00    1.30
  -5 -12 -13    3.20    1.10
   5  12  13    4.00    1.00
  -6 -12 -13    2.90    1.00
  -6 -12 -13    1.10    1.30
   6  12  13    2.80    1.00
  -7 -12 -13    1.30    1.00
  -7 -12 -13   -0.50    1.10
   7  12  13    0.70    0.90
  -8 -12 -13    5.40    1.20
  -8 -12 -13    5.00    1.50
   8  12  13    5.20    1.20
  -9 -12 -13    4.60    1.30
  -9 -12 -13    3.00    1.60
   9  12  13    3.00    1.10
 -10 -12 -13   11.30    1.70
 -10 -12 -13   14.60    2.40
  10  12  13   16.60    2.60
  -6  13  13    2.90    1.60
  -6  13  13   -0.10    1.20
  -6  13  13    2.70    1.30
  -5  13  13    5.00    1.40
  -5  13  13    2.20    1.20
  -5  13  13    1.70    1.30
  -4  13  13   -0.30    1.00
  -4  13  13    2.00    1.30
  -4  13  13    0.60    1.50
  -3  13  13    5.80    1.40
  -3  13  13    6.20    1.20
  -3  13  13    6.30    1.70
  -2  13  13   41.90    2.60
  -2  13  13   42.40    2.90
   1 -13 -13    3.20    1.30
  -1  13  13    1.80    1.00
   0 -13 -13   22.00    2.30
   0  13  13   27.10    2.20
   0  13  13   23.70    1.90
  -1 -13 -13   18.40    2.20
   1  13  13   22.60    2.00
   1  13  13   20.70    1.80
  -2 -13 -13    8.70    1.60
   2  13  13    6.60    1.20
   2  13  13    7.20    1.20
  -3 -13 -13   -0.50    1.20
   3  13  13   -0.60    0.90
  -4 -13 -13   -0.10    1.20
  -4 -13 -13    0.20    0.90
   4  13  13   -0.70    0.80
  -5 -13 -13   -0.60    1.30
  -5 -13 -13    0.20    1.00
   5  13  13    0.20    0.90
  -6 -13 -13    3.10    1.50
  -6 -13 -13    3.20    1.10
   6  13  13    3.40    1.00
  -7 -13 -13    5.10    1.30
  -7 -13 -13    0.80    1.50
   7  13  13    6.40    1.10
  -8 -13 -13   -2.20    1.40
  -8 -13 -13   -1.90    1.20
   8  13  13    1.00    1.10
  -9 -13 -13    1.40    1.60
  -9 -13 -13   -1.20    1.20
  -4  14  13    0.20    1.40
  -4  14  13   -0.20    1.40
  -4  14  13   -0.70    1.30
  -3  14  13   50.19    3.40
  -3  14  13   50.89    3.40
  -3  14  13   52.19    3.10
  -2  14  13    8.40    1.60
  -2  14  13    8.80    1.50
  -2  14  13    8.30    1.40
  -1  14  13    6.80    1.50
  -1  14  13    7.70    1.40
  -1  14  13    6.70    1.40
   0  14  13   -1.40    1.00
   0  14  13    0.80    1.10
   0  14  13    0.20    1.10
   1  14  13    0.80    1.10
   1  14  13    3.00    1.20
   1  14  13    3.10    1.10
   2  14  13    3.60    1.10
   2  14  13    7.60    1.30
  -3 -14 -13    3.40    1.50
   3  14  13    4.10    1.10
  -4 -14 -13    5.60    1.20
  -4 -14 -13    6.90    1.80
   4  14  13    5.00    1.10
  -5 -14 -13    2.80    1.20
  -5 -14 -13    4.30    1.50
   5  14  13    0.30    1.00
  -6 -14 -13   14.50    1.70
   6  14  13   20.90    1.70
  -7 -14 -13    1.90    1.30
   7  14  13    0.00    1.50
  -8 -14 -13    1.70    1.40
   8  14  13    1.20    2.00
  -2  15  13   34.50    2.80
  -2  15  13   34.20    2.60
  -2  15  13   34.60    2.90
  -1  15  13   -1.40    1.30
  -1  15  13   -0.20    1.30
  -1  15  13    1.40    1.30
   0  15  13    0.50    1.50
   0  15  13   -2.70    1.20
   0  15  13    0.50    1.20
   1  15  13   11.30    1.60
   1  15  13    9.10    2.00
   1  15  13    9.50    1.60
   2  15  13    0.50    1.10
   2  15  13   -0.20    1.40
   2  15  13    1.60    1.20
   3  15  13   -0.20    1.40
   3  15  13    0.20    1.10
  -4 -15 -13    3.10    1.30
   4  15  13    5.40    1.20
   4  15  13    5.00    1.90
  -5 -15 -13    8.00    1.50
   5  15  13    5.20    1.80
  -6 -15 -13    2.40    1.40
   2   4 -14    0.60    1.50
  -2  -4  14    0.40    1.40
  -2  -4  14    0.50    1.40
   1   4 -14    9.90    1.90
  -1  -4  14    8.10    1.50
  -1  -4  14    9.30    1.70
   0   4 -14    1.00    1.40
   0  -4  14    1.60    1.30
   0  -4  14   -0.40    1.40
  -1   4 -14    4.30    1.60
   1  -4  14    2.30    1.40
  -2   4 -14    0.70    1.40
  -2   4 -14    0.20    1.40
   2  -4  14    1.10    1.50
  -3   4 -14    1.70    1.40
  -3   4 -14   -0.70    1.40
   3  -4  14   -1.00    1.40
  -4   4 -14    2.50    1.60
  -4   4 -14    1.80    1.60
   4  -4  14   -0.80    1.50
  -5   4 -14    1.10    1.60
  -5   4 -14   -2.70    2.00
   5  -4  14   -0.20    1.60
   4   3 -14    6.30    1.70
  -4  -3  14    5.70    1.50
  -4  -3  14    5.30    1.50
   3   3 -14   -0.60    1.40
  -3  -3  14    2.20    1.40
  -3  -3  14    2.60    1.30
   2   3 -14    1.20    1.50
  -2  -3  14   -0.20    1.10
  -2  -3  14    1.20    1.30
   1   3 -14    5.30    1.60
  -1  -3  14    5.90    1.20
  -1  -3  14    6.10    1.50
   0   3 -14    1.20    1.40
   0  -3  14    3.10    1.30
  -1   3 -14    2.90    1.20
  -1   3 -14    4.60    1.50
   1  -3  14    3.50    1.40
  -2   3 -14    0.90    1.10
  -2   3 -14   -0.10    1.30
   2  -3  14    0.90    1.30
  -3   3 -14    0.60    1.10
  -3   3 -14    0.50    1.40
   3  -3  14   -0.10    1.30
  -4   3 -14    1.20    1.40
  -4   3 -14    0.10    1.20
   4  -3  14   -0.30    1.30
  -5   3 -14    3.80    1.30
  -5   3 -14    1.80    1.50
   5  -3  14   -0.10    1.40
  -6   3 -14    0.20    1.40
   6  -3  14    0.70    1.60
  -7   3 -14    4.60    1.70
   7  -3  14   -1.70    1.50
   5   2 -14    0.30    1.50
  -5  -2  14   -0.70    1.30
  -5  -2  14   -2.50    1.20
   4   2 -14    2.30    1.40
  -4  -2  14    3.00    1.30
  -4  -2  14    1.70    1.10
   3   2 -14    4.00    1.40
  -3  -2  14    4.20    1.30
  -3  -2  14    3.90    1.10
   2   2 -14    2.30    1.40
  -2  -2  14    0.30    1.30
   1   2 -14    6.30    1.50
  -1  -2  14    5.90    1.00
  -1  -2  14    5.90    1.50
   0   2 -14    5.50    1.50
   0  -2  14    2.20    1.30
  -1   2 -14   -1.70    0.80
  -1   2 -14   -0.20    1.20
   1  -2  14   -1.00    1.10
  -2   2 -14    2.70    1.30
  -2   2 -14    2.10    0.80
   2  -2  14    3.00    1.30
  -3   2 -14    0.70    1.10
  -3   2 -14    0.60    0.80
   3  -2  14    2.50    1.30
  -4   2 -14    9.80    1.00
  -4   2 -14   13.10    1.80
   4  -2  14   12.70    1.80
  -5   2 -14    1.50    1.00
  -5   2 -14    4.30    1.50
   5  -2  14    1.20    1.40
  -6   2 -14    2.80    1.10
  -6   2 -14    5.00    1.40
   6  -2  14    0.60    1.50
  -7   2 -14    4.50    1.30
  -7   2 -14    2.20    1.60
   7  -2  14    5.60    1.80
  -8   2 -14    0.30    1.60
   8  -2  14    0.30    1.50
  -9   2 -14    3.70    1.90
   9  -2  14    3.10    2.30
   6   1 -14    2.80    1.30
  -6  -1  14    5.90    1.30
  -6  -1  14    2.50    1.40
   5   1 -14    2.10    1.30
  -5  -1  14    3.30    1.40
  -5  -1  14    1.80    1.10
   4   1 -14   -0.20    1.20
  -4  -1  14    2.00    0.90
  -4  -1  14    0.90    1.20
   3   1 -14    1.90    1.30
  -3  -1  14    1.20    1.20
  -3  -1  14    2.40    0.90
   2   1 -14    1.00    1.20
  -2  -1  14    2.40    1.30
  -2  -1  14    1.00    0.80
   1   1 -14    0.50    1.10
  -1  -1  14    1.80    0.80
  -1  -1  14    0.10    1.10
   0   1 -14    0.00    1.10
   0  -1  14   -0.40    1.10
  -1   1 -14   12.20    1.80
   1  -1  14   11.90    1.70
  -2   1 -14   -0.10    1.10
   2  -1  14    0.00    1.10
  -3   1 -14   -0.10    1.20
   3  -1  14   -0.40    1.10
  -4   1 -14    0.80    1.10
   4  -1  14    0.20    1.20
  -5   1 -14   13.30    1.90
   5  -1  14    8.90    1.60
  -6   1 -14    4.60    0.90
  -6   1 -14    5.20    1.50
   6  -1  14    5.80    1.60
  -7   1 -14    4.30    1.00
  -7   1 -14    2.80    1.50
   7  -1  14    4.00    1.60
  -8   1 -14    9.70    1.40
  -8   1 -14    9.30    1.90
   8  -1  14    8.20    1.80
  -9   1 -14    5.10    1.80
   9  -1  14    5.10    1.80
 -10   1 -14    0.30    1.50
  10  -1  14   -0.30    2.00
   7   0 -14   22.60    2.40
  -7   0  14   23.90    2.60
  -7   0  14   31.00    2.30
   6   0 -14    4.70    1.40
  -6   0  14    6.70    1.40
  -6   0  14    9.80    1.30
   5   0 -14   11.40    1.70
  -5   0  14   13.00    1.30
  -5   0  14    9.90    1.70
   4   0 -14   15.40    1.90
  -4   0  14   18.30    1.60
  -4   0  14   16.40    2.00
   3   0 -14    3.90    1.30
  -3   0  14    3.20    0.80
  -3   0  14    2.50    1.20
   2   0 -14   14.20    1.80
  -2   0  14   13.60    1.20
  -2   0  14   11.00    1.70
   1   0 -14    5.90    1.40
  -1   0  14   10.40    1.60
   0   0 -14    6.60    1.50
   0   0  14    6.60    1.40
  -1   0 -14    0.60    1.20
   1   0  14   -0.80    1.00
  -2   0 -14    3.90    1.30
   2   0  14    1.40    1.20
  -3   0 -14    0.60    1.20
   3   0  14   -1.10    1.00
  -4   0 -14    0.80    1.00
   4   0  14    2.70    1.10
  -5   0 -14    0.20    1.10
   5   0  14    0.50    1.10
  -6   0 -14   -0.20    1.30
   6   0  14    1.60    1.40
  -7   0 -14    1.60    1.20
   7   0  14   -0.40    1.20
  -8   0 -14   -0.10    0.80
  -8   0 -14    2.40    1.40
   8   0  14    0.80    1.40
  -9   0 -14    0.10    1.20
  -9   0 -14   -0.80    1.40
   9   0  14   -1.30    1.40
 -10   0 -14   -0.50    1.50
  10   0  14    1.00    1.50
   8  -1 -14   -1.80    2.50
  -8   1  14   -2.30    1.30
  -8   1  14   -2.90    1.20
   7  -1 -14   16.80    3.30
  -7   1  14   20.20    1.90
  -7   1  14   11.60    1.80
  -6   1  14    1.50    0.90
  -6   1  14   -1.40    1.10
  -5   1  14    0.60    1.10
   4  -1 -14   -0.90    1.10
  -4   1  14    0.40    1.00
   3  -1 -14    1.40    1.20
  -3   1  14    0.00    1.10
  -3   1  14    0.80    0.60
   2  -1 -14    1.70    1.30
  -2   1  14    3.70    1.20
  -2   1  14    2.30    0.60
   1  -1 -14   15.60    2.20
  -1   1  14   18.50    2.00
   0   1  14    1.00    1.30
   1   1  14   22.20    3.00
  -2  -1 -14   13.40    2.20
   2   1  14   14.30    2.70
  -3  -1 -14    6.80    1.40
   3   1  14    8.60    1.50
  -4  -1 -14    6.90    1.50
   4   1  14    7.10    1.40
  -5  -1 -14   -2.40    1.40
   5   1  14    0.70    1.00
  -6  -1 -14    6.00    1.30
   6   1  14    3.80    1.20
  -7  -1 -14    6.90    1.60
   7   1  14    4.30    1.40
  -8  -1 -14    6.60    1.50
   8   1  14    5.60    1.60
  -9  -1 -14   10.60    1.80
  -9  -1 -14    7.00    1.00
   9   1  14    8.50    1.90
 -10  -1 -14   -0.40    1.30
 -10  -1 -14    0.50    1.50
  10   1  14   -0.20    1.40
 -11  -1 -14    4.10    1.60
  11   1  14    2.20    1.70
   8  -2 -14    1.80    1.30
  -8   2  14    0.70    1.40
  -8   2  14    3.10    1.20
   7  -2 -14    5.40    1.30
  -7   2  14    4.10    1.20
  -7   2  14    4.20    1.40
   6  -2 -14    4.70    1.30
  -6   2  14    2.90    1.00
  -6   2  14    2.70    1.30
   5  -2 -14    5.80    1.40
  -5   2  14    6.00    0.90
  -5   2  14    6.00    1.30
   4  -2 -14    8.00    1.50
  -4   2  14    8.20    1.60
  -4   2  14    7.80    0.90
   3  -2 -14    3.50    1.30
  -3   2  14    4.20    0.60
  -3   2  14    5.50    1.30
   2  -2 -14   19.00    2.00
  -2   2  14   14.50    1.90
   1  -2 -14   11.70    1.60
   0  -2 -14   -0.20    1.00
   0   2  14    2.10    1.10
  -1  -2 -14    0.00    1.00
   1   2  14    1.60    1.10
  -2  -2 -14    1.10    1.10
   2   2  14    4.70    1.20
  -3  -2 -14   14.00    2.10
   3   2  14   13.70    1.90
  -5  -2 -14    1.20    1.10
   5   2  14    1.10    1.10
  -6  -2 -14    0.60    1.20
   6   2  14    1.30    1.20
  -7  -2 -14    5.20    1.40
   7   2  14    5.00    1.30
  -8  -2 -14    1.40    1.20
   8   2  14    2.20    1.40
  -9  -2 -14    3.30    0.80
  -9  -2 -14    2.30    1.30
   9   2  14    2.10    1.40
 -10  -2 -14    1.50    1.50
 -10  -2 -14    1.70    1.00
  10   2  14    1.40    1.40
 -11  -2 -14    1.90    1.70
  11   2  14    2.00    1.60
 -12  -2 -14    0.70    1.70
  12   2  14    1.50    1.70
   8  -3 -14   -0.40    1.10
  -8   3  14    0.00    1.10
  -8   3  14   -0.90    1.20
   7  -3 -14    0.30    1.10
  -7   3  14    0.90    0.90
  -7   3  14    1.70    1.30
   6  -3 -14    0.00    1.00
  -6   3  14    1.30    1.20
  -6   3  14   -0.20    1.00
   5  -3 -14    1.20    1.10
  -5   3  14    1.40    1.10
  -5   3  14    1.00    0.70
   4  -3 -14    1.40    1.00
  -4   3  14    0.10    1.10
  -4   3  14    1.00    0.60
   3  -3 -14    9.00    1.40
  -3   3  14    7.80    1.30
   2  -3 -14   10.60    1.50
  -2   3  14    8.00    2.40
   1  -3 -14   11.30    1.60
  -1   3  14   16.50    1.80
   0  -3 -14   70.29    3.80
  -1  -3 -14   45.60    2.90
   1   3  14   45.50    2.80
  -2  -3 -14   14.50    1.80
   2   3  14   12.90    1.60
  -3  -3 -14   39.20    2.60
   3   3  14   38.00    2.50
  -4  -3 -14    2.20    1.00
   4   3  14   -0.90    1.00
   5   3  14    3.00    1.40
  -6  -3 -14    0.10    1.10
   6   3  14   -1.30    1.20
  -7  -3 -14    3.80    1.50
   7   3  14    5.20    1.30
  -8  -3 -14    1.10    1.20
   8   3  14    0.30    1.20
  -9  -3 -14    1.40    1.40
   9   3  14    3.30    1.30
 -10  -3 -14   -0.10    0.90
 -10  -3 -14   -2.50    1.30
  10   3  14    0.40    1.40
 -11  -3 -14    1.10    1.30
 -11  -3 -14    1.40    1.40
  11   3  14   -1.50    1.60
 -12  -3 -14    4.60    1.90
  12   3  14    3.50    1.90
   9  -4 -14   16.30    1.80
  -9   4  14   15.50    2.20
  -9   4  14   15.70    1.70
   8  -4 -14    5.30    1.40
  -8   4  14    5.30    1.60
  -8   4  14    5.30    1.20
   7  -4 -14    1.50    1.10
  -7   4  14    2.70    1.00
  -7   4  14    0.30    1.20
   6  -4 -14   -0.50    1.00
  -6   4  14    0.20    1.20
   5  -4 -14   16.30    1.80
  -5   4  14   14.60    1.30
  -5   4  14   13.30    1.80
   4  -4 -14   -0.70    0.90
  -4   4  14   -0.50    1.00
  -4   4  14   -0.10    0.50
   3  -4 -14    9.90    1.50
  -3   4  14   10.50    1.40
   2  -4 -14    0.00    0.90
  -2   4  14    0.60    1.60
   1  -4 -14    0.60    0.90
  -1   4  14    1.30    0.90
   0  -4 -14    0.50    1.00
   0   4  14    0.70    1.00
  -1  -4 -14    0.40    0.90
   1   4  14    0.70    0.90
  -2  -4 -14    0.80    1.00
   2   4  14   -0.40    0.90
  -3  -4 -14   19.30    2.00
   3   4  14   23.30    2.00
  -4  -4 -14   21.40    2.10
   4   4  14   18.10    1.90
  -5  -4 -14    1.80    1.10
   5   4  14    1.90    1.10
  -6  -4 -14    2.40    1.30
   6   4  14    1.50    1.10
  -7  -4 -14    2.00    1.20
   7   4  14    2.60    1.70
  -8  -4 -14   50.29    3.30
   8   4  14   44.50    3.10
  -9  -4 -14   19.80    2.30
   9   4  14   18.90    2.10
 -10  -4 -14   11.90    1.20
 -10  -4 -14   12.50    2.00
  10   4  14   10.40    1.80
 -11  -4 -14    4.20    1.30
 -11  -4 -14    9.10    1.80
  11   4  14    3.80    1.60
 -12  -4 -14   -0.90    1.50
  12   4  14    2.90    1.60
   9  -5 -14    3.60    1.80
  -9   5  14    2.80    1.60
  -9   5  14    1.10    1.20
   8  -5 -14    2.90    1.20
  -8   5  14    1.90    1.10
  -8   5  14    3.70    1.60
   7  -5 -14    5.10    1.20
  -7   5  14    6.50    1.60
  -7   5  14    3.60    1.00
   6  -5 -14    6.30    1.30
  -6   5  14   10.50    1.80
  -6   5  14    8.20    1.60
   5  -5 -14   39.90    2.70
  -5   5  14   42.80    2.90
  -5   5  14   45.60    2.20
   4  -5 -14   28.70    2.10
  -4   5  14   25.80    1.90
  -4   5  14   26.80    1.40
  -4   5  14   22.40    2.10
   3  -5 -14    3.50    1.10
  -3   5  14    4.20    1.20
   2  -5 -14   20.40    1.80
  -2   5  14   22.10    2.30
   1  -5 -14    8.00    1.40
  -1   5  14    9.00    1.20
   0  -5 -14    5.30    1.10
   0   5  14    4.80    1.10
  -1  -5 -14    0.90    1.00
   1   5  14    1.10    1.00
  -2  -5 -14    9.20    1.50
   2   5  14    8.40    1.30
  -3  -5 -14   59.79    3.50
   3   5  14   59.69    3.30
  -4  -5 -14   23.00    2.10
   4   5  14   19.60    1.90
  -5  -5 -14    8.30    1.50
   5   5  14    8.10    1.40
   6   5  14    0.50    1.00
  -7  -5 -14    0.30    1.10
   7   5  14    0.40    1.10
  -8  -5 -14    1.50    1.10
   8   5  14   -0.10    1.40
  -9  -5 -14    2.90    1.40
   9   5  14    1.20    1.20
 -10  -5 -14   -0.70    0.80
 -10  -5 -14   -0.30    1.30
  10   5  14   -1.00    1.30
 -11  -5 -14    4.90    1.60
 -11  -5 -14    2.10    1.20
  11   5  14    2.90    1.50
 -12  -5 -14    1.40    1.50
  12   5  14    1.20    1.70
  -9   6  14    1.00    2.00
  -9   6  14    3.50    1.20
   8  -6 -14    1.70    1.10
  -8   6  14    1.30    1.10
  -8   6  14    2.40    1.40
   7  -6 -14   -0.20    1.00
  -7   6  14    0.50    0.90
  -7   6  14    0.50    1.30
   6  -6 -14    7.40    1.30
  -6   6  14    6.50    1.40
   5  -6 -14   10.80    1.50
  -5   6  14   10.50    1.60
  -5   6  14    9.90    1.10
   4  -6 -14    2.70    1.00
  -4   6  14    4.10    1.20
  -4   6  14    3.90    0.60
   3  -6 -14    3.40    1.10
  -3   6  14    3.10    1.00
   2  -6 -14   -0.80    0.80
  -2   6  14    1.00    0.90
   1  -6 -14    5.60    1.20
  -1   6  14    5.40    1.10
   0  -6 -14    3.30    1.10
   0   6  14    5.30    1.10
  -1  -6 -14   35.20    2.50
   1   6  14   37.20    2.40
  -2  -6 -14    6.40    1.40
   2   6  14    6.40    1.20
  -3  -6 -14   44.90    2.90
   3   6  14   44.80    2.70
  -4  -6 -14   21.90    2.10
   4   6  14   26.50    2.00
  -5  -6 -14    4.50    1.30
   5   6  14    6.00    1.20
   6   6  14    3.20    1.10
  -7  -6 -14    4.30    1.30
   7   6  14    3.70    1.20
  -8  -6 -14    3.10    1.20
   8   6  14    2.30    1.20
  -9  -6 -14    4.10    1.50
   9   6  14    2.40    1.30
 -10  -6 -14    0.10    0.70
 -10  -6 -14    1.20    1.20
  10   6  14   -1.50    1.30
 -11  -6 -14    4.50    1.60
 -11  -6 -14    3.50    1.20
  11   6  14    1.00    1.50
 -12  -6 -14    0.00    1.90
 -12  -6 -14    2.90    1.60
  12   6  14    1.50    1.60
   8  -7 -14   23.40    2.10
  -8   7  14   21.20    2.00
  -8   7  14   28.80    2.70
   7  -7 -14   11.50    1.60
  -7   7  14   14.30    1.40
  -7   7  14   12.00    1.90
   6  -7 -14    4.60    1.10
  -6   7  14    5.10    0.90
  -6   7  14    4.60    1.40
   5  -7 -14   18.50    1.80
  -5   7  14   18.40    1.90
  -5   7  14   17.70    1.30
   4  -7 -14   12.90    1.70
  -4   7  14   16.40    1.10
  -4   7  14   10.70    1.50
   3  -7 -14   13.60    1.70
  -3   7  14   14.10    1.70
  -3   7  14   14.30    0.90
  -3   7  14   11.60    1.00
   2  -7 -14    4.50    1.10
  -2   7  14    7.10    2.30
   1  -7 -14   15.00    1.80
  -1   7  14   16.40    1.70
   0  -7 -14    5.50    1.30
   0   7  14    5.10    1.10
  -1  -7 -14    5.60    1.20
   1   7  14    5.20    1.10
  -2  -7 -14   39.50    2.80
   2   7  14   41.60    2.60
  -3  -7 -14   10.80    1.60
   3   7  14    7.10    1.30
  -4  -7 -14   -0.80    0.90
   4   7  14    0.50    0.90
  -5  -7 -14   -0.40    1.00
   5   7  14   -0.70    1.00
  -6  -7 -14    0.60    1.00
   6   7  14    0.10    1.00
  -7  -7 -14    0.90    1.20
   7   7  14    1.20    1.10
  -8  -7 -14    0.60    1.20
   8   7  14    1.10    1.10
  -9  -7 -14    1.30    1.30
   9   7  14    2.00    1.60
 -10  -7 -14    6.10    0.90
 -10  -7 -14    4.60    1.50
  10   7  14    6.50    1.60
 -11  -7 -14    1.50    1.40
 -11  -7 -14   -1.40    1.10
  11   7  14   -1.70    1.40
 -12  -7 -14   -0.20    1.70
 -12  -7 -14    0.30    1.50
  12   7  14    3.10    1.60
   8  -8 -14    0.40    1.30
  -8   8  14    1.20    1.00
  -8   8  14   -0.20    1.40
   7  -8 -14    8.90    1.50
  -7   8  14    6.10    1.60
  -7   8  14    7.70    1.10
   6  -8 -14    4.80    1.10
  -6   8  14    1.40    1.20
  -6   8  14    3.70    0.90
   5  -8 -14    7.20    1.30
  -5   8  14    6.60    1.40
  -5   8  14    5.20    0.90
   4  -8 -14   10.80    1.40
  -4   8  14    9.70    1.00
  -4   8  14    9.70    1.50
   3  -8 -14   11.80    1.60
  -3   8  14   14.70    1.70
  -3   8  14   13.30    1.20
  -3   8  14   13.70    1.00
   2  -8 -14   15.70    1.80
   1  -8 -14   10.90    1.50
  -1   8  14   12.30    1.50
   0  -8 -14   16.80    1.80
   0   8  14   12.40    1.50
  -1  -8 -14   15.00    1.90
   1   8  14   13.60    1.60
  -2  -8 -14   31.80    2.40
   2   8  14   30.70    2.20
  -3  -8 -14    7.10    1.40
   3   8  14   10.70    1.30
  -4  -8 -14    3.90    1.20
   4   8  14    7.90    1.20
  -5  -8 -14   34.50    3.70
   5   8  14   35.50    2.30
  -6  -8 -14    3.10    1.10
   6   8  14    3.50    1.10
  -7  -8 -14   20.80    2.20
   7   8  14   18.90    1.90
  -8  -8 -14   13.30    1.90
   8   8  14   11.90    1.60
  -9  -8 -14    9.20    1.70
  -9  -8 -14    6.60    0.80
   9   8  14    4.90    1.30
 -10  -8 -14    0.90    1.00
 -10  -8 -14    2.30    1.40
 -11  -8 -14   -2.30    1.30
 -11  -8 -14    1.50    1.60
  11   8  14    0.00    1.40
 -12  -8 -14    2.50    2.50
 -12  -8 -14   -1.80    1.60
  12   8  14    1.60    1.60
   8  -9 -14    0.00    1.60
  -8   9  14    0.00    1.40
  -8   9  14    0.20    1.10
   7  -9 -14    5.10    1.30
  -7   9  14    5.40    1.60
  -7   9  14    3.80    1.10
   6  -9 -14    0.50    1.10
  -6   9  14    0.70    1.20
  -6   9  14    0.10    0.90
   5  -9 -14   16.60    1.80
  -5   9  14   16.70    1.50
  -5   9  14   17.30    2.10
   4  -9 -14    4.70    1.20
  -4   9  14    6.60    1.20
  -4   9  14    6.30    0.90
   3  -9 -14    1.70    1.00
  -3   9  14    1.50    1.10
  -3   9  14    0.90    0.60
   2  -9 -14    6.60    1.40
  -2   9  14    6.60    0.80
  -2   9  14    7.30    0.70
  -2   9  14    7.20    1.40
   1  -9 -14    1.70    1.00
  -1   9  14    1.90    1.00
   0  -9 -14    7.70    1.40
   0   9  14    5.90    1.10
  -1  -9 -14    5.10    1.20
   1   9  14    3.00    1.10
  -2  -9 -14    0.60    1.10
   2   9  14    0.60    0.90
  -3  -9 -14    2.00    1.10
   3   9  14   -0.30    0.90
  -4  -9 -14    1.20    1.20
   4   9  14    0.30    0.80
  -5  -9 -14    3.60    1.20
   5   9  14    2.30    0.90
  -6  -9 -14    7.80    1.60
   6   9  14    6.80    1.30
  -7  -9 -14    4.00    1.30
   7   9  14    2.00    1.20
  -8  -9 -14    5.20    1.50
  -8  -9 -14    4.00    0.70
   8   9  14    3.60    1.10
  -9  -9 -14   10.00    1.80
  -9  -9 -14    8.30    1.00
   9   9  14    7.70    1.50
 -10  -9 -14   31.90    3.00
 -10  -9 -14   25.40    2.10
  10   9  14   33.90    2.70
 -11  -9 -14   19.80    2.10
 -11  -9 -14   16.90    2.40
  11   9  14   15.90    3.10
   7 -10 -14    5.70    1.30
  -7  10  14    5.20    1.20
  -7  10  14    5.10    1.80
   6 -10 -14    6.70    1.50
  -6  10  14    9.50    1.60
  -6  10  14   10.80    1.30
   5 -10 -14    7.70    1.40
  -5  10  14    9.00    1.10
  -5  10  14    9.40    1.70
   4 -10 -14    8.40    1.60
  -4  10  14    9.20    1.60
   3 -10 -14   28.70    2.40
  -3  10  14   30.00    1.70
  -3  10  14   32.10    2.50
   2 -10 -14   21.40    2.20
  -2  10  14   25.00    1.50
  -2  10  14   24.00    2.20
   1 -10 -14    1.80    1.10
  -1  10  14    1.70    0.60
   0 -10 -14   20.50    2.00
   0  10  14   16.80    1.00
   0  10  14   15.90    1.10
   0  10  14   20.20    1.80
  -1 -10 -14   51.39    3.20
   1  10  14   53.49    3.10
   2  10  14   26.00    2.10
  -3 -10 -14   12.60    1.90
   3  10  14   13.50    1.50
  -4 -10 -14    7.30    1.50
   4  10  14    4.10    1.10
  -5 -10 -14   44.50    3.10
   5  10  14   43.40    2.60
  -6 -10 -14    2.70    1.50
   6  10  14    4.90    1.10
  -7 -10 -14    1.10    1.40
  -7 -10 -14   -0.80    0.70
   7  10  14    2.90    1.10
  -8 -10 -14   -0.80    1.30
  -8 -10 -14    0.30    0.90
   8  10  14    1.20    1.00
  -9 -10 -14   -1.00    1.30
  -9 -10 -14    3.60    1.00
   9  10  14    0.80    1.10
 -10 -10 -14    1.90    1.70
  10  10  14    3.40    1.50
 -11 -10 -14    3.80    1.70
 -11 -10 -14    1.30    1.40
  11  10  14    6.60    1.60
  -7  11  14    0.70    1.60
  -7  11  14    0.40    1.20
  -7  11  14    2.30    1.10
   6 -11 -14    1.70    1.30
  -6  11  14   -0.20    1.00
  -6  11  14    2.00    1.40
   5 -11 -14    2.90    1.20
  -5  11  14    0.60    1.00
  -5  11  14    2.90    1.40
   4 -11 -14    4.10    1.20
  -4  11  14    5.50    1.40
  -4  11  14    4.80    1.00
   3 -11 -14    9.90    1.50
  -3  11  14   11.90    1.70
   2 -11 -14    0.30    1.10
  -2  11  14    0.10    0.70
  -2  11  14   -0.80    1.00
   1 -11 -14    0.40    1.10
  -1  11  14    0.50    0.70
  -1  11  14    0.10    1.10
   0  11  14    9.50    0.90
   0  11  14    9.60    1.30
  -1 -11 -14    6.30    1.40
   1  11  14    7.00    0.80
   1  11  14    8.30    1.30
  -2 -11 -14   20.00    2.20
   2  11  14   20.00    1.40
   2  11  14   20.90    1.90
  -3 -11 -14    6.30    1.60
   3  11  14    6.20    1.20
   3  11  14    6.80    0.80
  -4 -11 -14    7.60    1.70
   4  11  14    7.20    1.10
   4  11  14    5.50    0.80
  -5 -11 -14   -1.20    1.20
   5  11  14    1.40    0.90
  -6 -11 -14    2.20    0.80
  -6 -11 -14    1.70    1.50
   6  11  14    3.00    1.10
  -7 -11 -14    3.70    1.30
  -7 -11 -14    4.60    1.00
   7  11  14    6.20    1.20
  -8 -11 -14    6.90    1.70
  -8 -11 -14    6.20    1.10
   8  11  14    5.40    1.30
  -9 -11 -14    8.80    2.00
   9  11  14   13.60    1.70
 -10 -11 -14    1.70    1.80
 -10 -11 -14    1.70    1.40
  10  11  14    5.30    1.50
  -6  12  14   21.50    2.10
  -6  12  14   22.20    2.60
  -6  12  14   24.80    2.30
  -5  12  14   49.99    2.90
  -5  12  14   49.30    3.50
   4 -12 -14    9.30    1.60
  -4  12  14   11.10    1.30
  -4  12  14    9.80    1.70
   3 -12 -14   34.30    3.20
  -3  12  14   33.80    2.20
  -3  12  14   38.20    2.80
   2 -12 -14   -0.90    1.30
  -2  12  14    1.70    1.20
   1 -12 -14    4.30    1.40
  -1  12  14    4.30    1.30
   0 -12 -14    3.90    1.30
   0  12  14    1.60    0.90
  -1 -12 -14    6.10    1.50
   1  12  14    5.00    1.30
   1  12  14    4.10    0.90
  -2 -12 -14    0.20    1.10
   2  12  14    0.10    0.80
   2  12  14    0.30    1.00
  -3 -12 -14    0.90    1.30
   3  12  14    1.90    0.90
   3  12  14    1.90    1.10
  -4 -12 -14    1.00    1.20
   4  12  14    2.10    1.00
  -5 -12 -14    3.00    1.50
   5  12  14    1.40    0.90
  -6 -12 -14    1.30    1.50
  -6 -12 -14    0.30    1.00
   6  12  14    1.20    1.10
  -7 -12 -14   -1.40    1.20
  -7 -12 -14    0.50    1.40
   7  12  14    1.20    1.10
  -8 -12 -14   -1.90    1.40
  -8 -12 -14    0.70    1.10
   8  12  14   -0.80    1.20
  -9 -12 -14   -0.80    1.70
  -9 -12 -14   -2.10    1.20
   9  12  14   -1.30    1.30
  -5  13  14   -1.20    1.20
  -5  13  14    1.10    1.20
  -5  13  14    0.70    1.40
  -4  13  14   -1.50    1.00
  -4  13  14    0.10    1.30
  -4  13  14    0.90    1.20
  -3  13  14    1.00    1.00
  -3  13  14    1.30    1.20
   2 -13 -14   15.70    2.00
  -2  13  14   15.70    1.90
  -2  13  14   14.40    1.50
   1 -13 -14    1.30    1.30
  -1  13  14    3.70    1.30
  -1  13  14   -0.20    1.00
   0 -13 -14   -0.50    1.10
   0  13  14   -1.30    0.90
   0  13  14   -0.10    1.10
  -1 -13 -14    8.00    1.70
   1  13  14   10.40    1.60
   1  13  14    9.60    1.30
  -2 -13 -14   24.20    2.50
   2  13  14   23.60    2.10
   2  13  14   18.60    1.80
  -3 -13 -14   24.20    2.50
   3  13  14   21.40    2.10
   3  13  14   24.20    2.10
  -4 -13 -14    3.60    1.60
   4  13  14    3.00    1.10
  -5 -13 -14    5.70    1.30
  -5 -13 -14    4.80    1.60
   5  13  14    6.20    1.20
  -6 -13 -14   -0.60    1.00
  -6 -13 -14    0.90    1.40
   6  13  14    0.10    1.10
  -7 -13 -14    4.10    1.20
  -7 -13 -14    6.00    1.80
   7  13  14    5.50    1.20
  -8 -13 -14    1.60    1.40
  -8 -13 -14   -1.50    1.50
   8  13  14   -0.70    1.20
  -3  14  14   12.00    1.90
  -3  14  14    6.90    1.40
  -3  14  14    9.60    1.80
  -2  14  14    4.80    1.40
  -2  14  14    4.60    1.50
  -2  14  14    2.30    1.40
  -1  14  14    0.80    1.20
  -1  14  14    2.50    1.30
  -1  14  14    3.90    1.50
   0 -14 -14    0.90    1.40
   0  14  14    0.50    1.20
   0  14  14    0.70    1.10
  -1 -14 -14    4.90    1.50
   1  14  14    3.00    1.90
   1  14  14    3.90    1.20
  -2 -14 -14    4.00    1.40
   2  14  14    1.40    1.10
   2  14  14    0.80    1.20
  -3 -14 -14    2.50    1.50
   3  14  14    3.30    1.10
   3  14  14    4.90    1.30
  -4 -14 -14    3.20    1.60
   4  14  14    2.70    1.20
  -5 -14 -14    1.10    1.20
  -5 -14 -14    1.70    1.50
  -6 -14 -14    5.60    1.70
  -6 -14 -14    1.60    1.30
   6  14  14    4.90    1.20
  -7 -14 -14   11.80    1.70
   0  15  14    1.60    1.30
   0  15  14    2.30    1.60
   0  15  14    1.00    1.30
   1  15  14    0.10    1.50
   1  15  14    1.20    1.30
   1  15  14    3.30    1.40
   2  15  14    2.60    1.60
   2  15  14    2.30    1.30
   2  15  14    2.80    1.40
   3  15  14   -0.40    1.20
   3  15  14    1.80    1.30
   3  15  14   -1.50    1.60
   4  15  14    1.40    1.70
   4  15  14    4.00    1.30
  -1  -3  15   -1.80    1.40
   0   3 -15    3.00    1.60
   0  -3  15    2.70    1.50
  -1   3 -15    2.60    1.70
   1  -3  15    1.80    1.50
  -2   3 -15   -0.80    1.40
   2  -3  15   -0.20    1.50
  -3   3 -15   10.20    1.90
   3  -3  15    8.40    1.80
   4  -3  15    5.70    1.80
   3   2 -15    0.00    1.50
  -3  -2  15   -1.70    1.40
   2   2 -15   -0.60    1.50
  -2  -2  15    0.40    1.40
   1   2 -15   -0.80    1.30
  -1  -2  15   -1.10    1.40
   0   2 -15    0.60    1.50
   0  -2  15    0.90    1.40
  -1   2 -15   -0.80    1.30
   1  -2  15   -1.90    1.20
  -2   2 -15    5.40    1.50
   2  -2  15    1.90    1.40
  -3   2 -15    1.70    1.40
   3  -2  15   -0.20    1.40
  -4   2 -15   -1.80    1.20
   4  -2  15    1.10    1.50
  -5   2 -15   -0.10    1.40
   5  -2  15    1.30    1.50
  -6   2 -15    0.70    1.50
   6  -2  15   -0.30    1.60
   4   1 -15   11.60    1.90
  -4  -1  15    8.70    1.90
   3   1 -15    7.40    1.60
  -3  -1  15    0.60    1.30
   2   1 -15    2.60    1.40
  -2  -1  15    3.10    1.40
   1   1 -15    3.20    1.40
  -1  -1  15   -1.00    1.30
   0   1 -15    0.60    1.40
   0  -1  15   -1.70    1.30
  -1   1 -15    0.80    1.30
   1  -1  15   -1.10    1.20
  -2   1 -15    0.60    1.40
   2  -1  15   -1.10    1.30
  -3   1 -15    0.20    1.30
   3  -1  15    0.10    1.30
  -4   1 -15    1.50    1.20
   4  -1  15    0.20    1.30
  -5   1 -15    0.30    1.40
   5  -1  15   -1.00    1.40
  -6   1 -15   -1.40    1.40
   6  -1  15    0.20    1.30
  -7   1 -15    0.40    1.60
   7  -1  15   -1.60    1.40
  -8   1 -15    0.90    1.60
   8  -1  15   -3.10    1.60
   5   0 -15    2.00    1.40
  -5   0  15    0.50    1.30
   4   0 -15    5.50    1.60
  -4   0  15    7.20    1.60
   3   0 -15   22.60    2.20
  -3   0  15   15.30    2.00
   2   0 -15   23.70    2.40
  -2   0  15   28.30    2.60
   1   0 -15    9.60    1.70
  -1   0  15   14.00    1.80
   0   0 -15    4.70    1.40
   0   0  15    3.30    1.40
  -1   0 -15    0.90    1.20
   1   0  15    1.30    1.20
  -2   0 -15    2.10    1.30
   2   0  15    4.40    1.40
  -3   0 -15   17.80    2.10
   3   0  15   13.00    1.90
  -4   0 -15    2.10    1.30
   4   0  15    1.80    1.30
  -5   0 -15   11.50    1.80
   5   0  15    6.50    1.40
  -6   0 -15    5.50    1.70
   6   0  15    2.20    1.50
  -7   0 -15    4.40    1.60
   7   0  15    4.40    1.60
  -8   0 -15    1.10    1.60
   8   0  15   -0.60    1.40
  -9   0 -15   -1.20    1.60
   9   0  15   -1.30    1.50
   6  -1 -15    0.90    1.40
  -6   1  15    6.80    2.00
  -6   1  15    7.20    1.70
   5  -1 -15    0.50    1.30
  -5   1  15    3.90    1.40
   4  -1 -15   -2.00    1.20
  -4   1  15    1.90    1.50
  -4   1  15    1.90    1.30
   3  -1 -15   -1.30    1.20
  -3   1  15   -0.40    1.10
   2  -1 -15    6.60    1.50
  -2   1  15    5.10    1.50
   1  -1 -15    2.70    1.40
  -1   1  15    4.30    1.40
   0  -1 -15    1.70    1.20
   0   1  15    2.30    1.30
  -1  -1 -15    4.80    1.40
   1   1  15    1.90    1.30
  -2  -1 -15    0.50    1.20
   2   1  15   -0.40    1.20
  -3  -1 -15   -0.20    1.20
   3   1  15    1.40    1.20
  -4  -1 -15    0.70    1.30
   4   1  15    2.30    1.20
  -5  -1 -15    2.70    1.30
   5   1  15    3.30    1.40
  -6  -1 -15   17.10    2.10
   6   1  15   13.90    1.70
  -7  -1 -15    1.40    1.40
   7   1  15    1.00    1.30
  -8  -1 -15    3.90    1.50
   8   1  15    1.50    1.50
  -9  -1 -15    2.80    1.50
   9   1  15    2.00    1.60
 -10  -1 -15   -2.30    1.60
  10   1  15   -2.40    1.50
   7  -2 -15    4.00    1.50
  -7   2  15    4.00    1.70
  -7   2  15    8.10    2.10
   6  -2 -15   16.90    2.10
  -6   2  15   15.30    1.60
  -6   2  15   14.00    2.00
   5  -2 -15    4.70    1.40
  -5   2  15    4.40    1.10
  -5   2  15    2.90    1.40
   4  -2 -15    8.10    1.60
  -4   2  15    8.20    1.20
  -4   2  15    9.40    1.50
   3  -2 -15   14.00    1.90
  -3   2  15   14.00    1.90
   2  -2 -15    4.90    1.30
  -2   2  15    5.60    1.40
   1  -2 -15    3.10    1.20
  -1   2  15    3.60    1.40
   0  -2 -15    4.40    1.40
   0   2  15    3.90    1.40
  -1  -2 -15    0.80    1.10
   1   2  15    2.90    1.10
  -2  -2 -15   -0.60    1.10
   2   2  15    0.70    1.10
  -3  -2 -15    0.00    1.00
   3   2  15   -0.60    1.10
  -4  -2 -15    2.90    1.20
   4   2  15    1.60    1.10
  -5  -2 -15   25.70    2.20
   5   2  15   20.00    2.20
  -6  -2 -15   12.50    2.00
   6   2  15    8.50    1.60
  -7  -2 -15    5.00    1.60
   7   2  15    1.20    1.40
  -8  -2 -15    3.30    1.60
   8   2  15    1.20    1.50
  -9  -2 -15   -1.30    1.50
   9   2  15    0.50    1.50
 -10  -2 -15    0.20    1.60
  10   2  15    0.00    1.60
  -7   3  15    1.40    1.40
  -7   3  15    1.70    1.30
  -6   3  15    3.10    1.50
  -5   3  15   -1.00    1.20
  -5   3  15    0.40    0.80
  -4   3  15    4.10    0.80
  -4   3  15    3.00    1.40
   3  -3 -15    0.90    2.00
  -3   3  15    0.40    1.20
   2  -3 -15    2.10    1.90
  -2   3  15   -0.10    1.10
   1  -3 -15    1.20    1.30
  -1   3  15    2.30    1.10
   0  -3 -15   -0.20    1.00
   0   3  15   -0.70    1.00
  -1  -3 -15    1.40    1.20
   1   3  15    0.90    1.10
  -2  -3 -15    2.30    1.20
   2   3  15    3.00    1.10
  -3  -3 -15    4.00    1.30
   3   3  15    5.10    1.30
  -4  -3 -15   47.30    3.20
   4   3  15   47.60    3.00
  -5  -3 -15    0.50    1.10
   5   3  15    1.20    1.20
  -6  -3 -15    6.30    1.50
   6   3  15    1.70    1.30
  -7  -3 -15    9.70    1.90
   7   3  15    8.70    1.60
  -8  -3 -15    1.60    1.40
   8   3  15   -0.10    1.40
  -9  -3 -15    1.80    1.60
   9   3  15    3.90    1.60
 -10  -3 -15   -0.30    1.50
  10   3  15   -0.40    1.40
 -11  -3 -15    3.10    1.80
  11   3  15    0.70    1.60
   7  -4 -15    6.30    1.50
  -7   4  15   10.20    1.70
  -7   4  15    6.90    1.20
   6  -4 -15    4.90    1.30
  -6   4  15    5.40    1.60
  -6   4  15    2.50    1.20
   5  -4 -15    0.50    1.10
  -5   4  15    1.40    1.20
  -5   4  15    1.50    0.80
   4  -4 -15   34.30    2.50
  -4   4  15   34.40    2.60
   3  -4 -15   11.00    1.60
  -3   4  15   10.20    1.70
   2  -4 -15    7.80    1.40
  -2   4  15    9.80    1.50
   1  -4 -15   11.70    1.90
  -1   4  15    9.90    1.60
   0   4  15    8.40    1.40
   1   4  15    0.20    1.00
  -2  -4 -15    0.70    1.20
   2   4  15    0.10    1.00
  -3  -4 -15    3.40    1.30
   3   4  15    3.00    1.10
  -4  -4 -15    8.00    1.60
   4   4  15    7.70    1.50
  -5  -4 -15   34.80    2.70
   5   4  15   34.30    2.60
  -6  -4 -15   -0.70    1.10
   6   4  15   -0.30    1.20
  -7  -4 -15   -0.60    1.30
   7   4  15   -0.70    1.10
  -8  -4 -15   -0.60    1.20
   8   4  15   -0.90    1.30
  -9  -4 -15   -0.20    1.30
   9   4  15   -2.10    1.30
 -10  -4 -15    0.40    1.50
  10   4  15    2.20    1.60
 -11  -4 -15    1.80    1.60
  11   4  15    0.70    1.80
   7  -5 -15   -0.40    1.10
  -7   5  15    1.40    1.40
  -7   5  15    3.20    1.10
   6  -5 -15   -0.80    1.00
  -6   5  15    0.50    1.30
  -6   5  15    0.30    0.90
   5  -5 -15   -0.60    1.10
  -5   5  15   -0.10    1.10
  -5   5  15   -1.50    0.70
   4  -5 -15    9.90    1.60
  -4   5  15    9.30    1.60
   3  -5 -15    0.60    1.10
  -3   5  15    0.00    1.10
   2  -5 -15    6.00    1.30
  -2   5  15    4.90    1.30
   1  -5 -15   -1.70    0.90
  -1   5  15    2.20    1.00
   0  -5 -15   -0.10    1.00
   0   5  15    0.50    1.00
  -1  -5 -15    8.80    1.90
   1   5  15    7.40    1.40
   2   5  15    0.20    1.00
  -3  -5 -15    3.10    1.20
   3   5  15    5.10    1.40
  -4  -5 -15   39.00    2.70
   4   5  15   37.20    2.60
  -5  -5 -15    6.80    1.50
   5   5  15    7.10    1.40
  -6  -5 -15    8.90    1.40
   6   5  15    7.20    1.50
  -7  -5 -15    8.90    1.70
   7   5  15    7.90    1.60
  -8  -5 -15    6.90    1.70
   8   5  15    8.50    1.60
  -9  -5 -15    1.30    1.40
   9   5  15    1.10    1.40
 -10  -5 -15    4.40    1.70
  10   5  15    2.30    1.60
 -11  -5 -15    0.10    1.70
  11   5  15   -0.90    1.60
   7  -6 -15    9.90    1.50
  -7   6  15    9.10    1.90
   6  -6 -15    3.30    1.20
  -6   6  15    2.20    0.90
  -6   6  15    2.40    1.30
   5  -6 -15    0.30    1.00
  -5   6  15   -1.00    1.10
  -5   6  15   -0.10    0.70
   4  -6 -15   24.50    2.20
  -4   6  15   28.20    2.40
   3  -6 -15    3.20    1.10
  -3   6  15    3.90    1.10
   2  -6 -15   28.80    2.30
  -2   6  15   32.60    2.30
   1  -6 -15   -0.60    0.90
  -1   6  15   -0.10    0.90
   0  -6 -15   -1.30    0.90
   0   6  15    0.00    0.90
  -1  -6 -15    0.00    0.90
   1   6  15    0.60    1.20
  -3  -6 -15    2.20    1.20
  -4  -6 -15   -0.40    1.10
  -5  -6 -15    2.60    1.40
   5   6  15    5.40    1.90
  -6  -6 -15    4.60    1.30
   6   6  15    2.70    1.30
  -7  -6 -15    3.60    1.50
   7   6  15    3.10    1.40
  -8  -6 -15    3.30    1.50
   8   6  15    3.80    1.40
  -9  -6 -15    5.10    1.70
   9   6  15    8.70    1.50
 -10  -6 -15   -1.00    1.50
  10   6  15   -1.10    1.40
 -11  -6 -15    2.50    1.70
  11   6  15   -0.30    1.70
   7  -7 -15   -0.90    1.20
  -7   7  15    0.60    1.00
  -7   7  15   -0.80    1.30
   6  -7 -15   14.00    1.60
  -6   7  15   14.10    2.10
   5  -7 -15   13.40    1.70
  -5   7  15   14.60    1.30
  -5   7  15   13.80    1.90
   4  -7 -15   41.90    2.70
  -4   7  15   39.30    1.90
  -4   7  15   40.40    2.80
   3  -7 -15   24.50    2.20
  -3   7  15   30.30    2.30
   2  -7 -15    3.00    1.10
  -2   7  15    3.30    1.10
   1  -7 -15   27.80    2.30
  -1   7  15   31.70    2.40
   0  -7 -15    7.90    1.30
   0   7  15    8.50    1.30
  -1  -7 -15   22.20    2.20
   1   7  15   16.00    2.50
  -3  -7 -15   13.70    1.80
   3   7  15   13.00    1.80
  -4  -7 -15   20.70    2.20
   4   7  15   21.80    2.20
  -5  -7 -15    7.00    1.60
   5   7  15    6.10    1.90
  -6  -7 -15    6.60    1.40
   6   7  15    5.80    2.20
  -7  -7 -15    3.40    1.40
   7   7  15    8.10    1.50
  -8  -7 -15    0.00    1.30
   8   7  15    1.80    1.20
  -9  -7 -15    0.00    1.40
   9   7  15    0.00    1.30
 -10  -7 -15    2.40    1.50
  10   7  15    3.50    1.60
 -11  -7 -15    1.70    1.60
  11   7  15   -0.40    1.50
   7  -8 -15    0.40    1.30
  -7   8  15    1.60    1.50
  -7   8  15    0.90    1.00
   6  -8 -15    1.30    1.10
  -6   8  15    1.50    0.90
  -6   8  15    0.40    1.10
   5  -8 -15    2.40    1.10
  -5   8  15    3.70    0.80
  -5   8  15    1.70    1.20
   4  -8 -15    1.00    1.00
  -4   8  15    1.00    0.60
  -4   8  15    0.30    1.00
   3  -8 -15   -0.20    0.90
  -3   8  15    0.30    1.10
   2  -8 -15    1.80    1.10
  -2   8  15    1.00    1.00
   1  -8 -15    6.20    1.40
  -1   8  15    6.00    1.30
   0  -8 -15    3.20    1.20
   0   8  15    2.30    1.10
  -2  -8 -15    2.20    1.30
   2   8  15    4.00    1.50
  -3  -8 -15   -0.70    0.90
   3   8  15    0.30    1.10
  -4  -8 -15    0.80    1.10
   4   8  15    1.20    1.00
  -5  -8 -15   13.40    1.90
   5   8  15   13.80    1.70
  -6  -8 -15    5.50    1.60
   6   8  15    4.20    1.40
  -7  -8 -15    1.50    1.20
   7   8  15    1.60    1.90
  -8  -8 -15   18.20    2.30
   8   8  15   18.90    2.10
   9   8  15   13.00    1.80
 -10  -8 -15   13.60    2.20
  10   8  15   12.10    1.90
 -11  -8 -15    3.90    1.90
  11   8  15    6.00    1.70
   7  -9 -15    4.20    1.50
  -7   9  15    2.30    1.70
  -7   9  15    7.50    1.30
   6  -9 -15   -2.50    1.30
  -6   9  15    2.00    1.50
  -6   9  15    1.20    1.00
   5  -9 -15    3.10    1.30
  -5   9  15    3.30    0.90
  -5   9  15    1.50    1.40
   4  -9 -15    6.00    1.40
  -4   9  15    5.80    0.80
  -4   9  15    4.70    1.30
   3  -9 -15    7.90    1.60
  -3   9  15    7.00    0.70
  -3   9  15    7.20    1.50
   2  -9 -15    8.20    1.50
  -2   9  15    5.30    1.30
   1  -9 -15   11.40    1.60
  -1   9  15   15.10    1.80
   0   9  15   20.20    2.00
  -1  -9 -15    5.60    1.40
   1   9  15    7.30    1.90
  -2  -9 -15    9.50    1.50
   2   9  15   13.10    2.50
  -3  -9 -15    2.60    1.20
   3   9  15    2.70    1.10
  -4  -9 -15    2.30    1.30
   4   9  15    4.90    1.10
  -5  -9 -15    5.50    1.50
   5   9  15    7.70    1.30
  -6  -9 -15   13.60    2.00
   6   9  15   15.50    1.70
  -7  -9 -15    1.20    1.20
   7   9  15    0.00    1.50
  -8  -9 -15    0.10    1.30
   8   9  15   -0.10    1.80
  -9  -9 -15   -2.10    1.20
   9   9  15   -0.30    1.30
 -10  -9 -15    0.60    1.70
  10   9  15    1.70    1.50
   6 -10 -15    3.50    1.30
  -6  10  15    2.00    1.10
  -6  10  15   -1.50    1.30
   5 -10 -15   -1.80    1.10
  -5  10  15    0.90    1.40
  -5  10  15   -1.10    0.90
   4 -10 -15    3.20    1.20
  -4  10  15    1.60    0.80
  -4  10  15    2.40    1.30
   3 -10 -15    0.90    1.20
  -3  10  15    1.40    1.20
  -3  10  15    2.30    0.70
   2 -10 -15   15.30    2.90
  -2  10  15   18.80    2.10
  -2  10  15   20.00    1.20
   1 -10 -15    3.60    1.70
  -1  10  15    2.90    1.10
   0 -10 -15   -0.30    1.00
   0  10  15   -0.60    1.10
  -1 -10 -15   24.30    2.20
   1  10  15   20.80    2.10
  -2 -10 -15   -0.10    1.20
  -3 -10 -15    8.90    1.60
   3  10  15    6.50    1.30
  -4 -10 -15    4.50    1.40
   4  10  15    8.30    1.40
  -5 -10 -15   13.90    2.00
   5  10  15   10.20    1.50
  -6 -10 -15   17.00    2.20
   6  10  15   17.90    2.00
  -7 -10 -15    4.20    1.50
   7  10  15    4.10    1.30
  -8 -10 -15   11.40    2.10
   8  10  15   10.40    1.90
  -9 -10 -15   13.60    2.20
   9  10  15   13.80    2.20
 -10 -10 -15    4.30    1.90
  10  10  15    3.30    1.60
   5 -11 -15   36.50    2.70
  -5  11  15   39.20    2.40
  -5  11  15   35.80    3.10
  -4  11  15   29.40    2.70
  -4  11  15   29.40    2.00
   3 -11 -15   -0.60    1.40
  -3  11  15    2.90    0.80
  -3  11  15    1.70    1.30
   2 -11 -15    0.40    1.20
  -2  11  15    0.10    1.10
  -2  11  15    0.50    0.70
   1 -11 -15    2.70    1.40
  -1  11  15    2.10    1.20
  -1  11  15    1.70    0.70
   0 -11 -15    2.80    1.40
   0  11  15    3.00    1.20
  -1 -11 -15    3.70    1.40
   1  11  15    1.90    1.10
  -2 -11 -15    0.40    1.30
  -3 -11 -15    2.80    1.50
   3  11  15    2.40    1.30
  -4 -11 -15   -0.50    1.30
   4  11  15   -0.60    1.00
  -5 -11 -15   -0.60    1.30
   5  11  15    0.60    1.10
  -6 -11 -15   -1.70    1.30
   6  11  15    0.70    1.10
  -7 -11 -15    0.50    1.50
   7  11  15    2.80    1.30
  -8 -11 -15    2.70    1.60
   8  11  15    2.50    1.30
  -9 -11 -15    2.50    1.70
   9  11  15    0.00    1.40
   4 -12 -15    1.40    1.30
  -4  12  15    1.30    1.00
  -4  12  15    2.20    1.50
   3 -12 -15   -0.70    1.20
  -3  12  15   -0.80    0.90
  -3  12  15    0.40    1.40
   2 -12 -15    3.60    1.30
  -2  12  15    4.80    1.30
  -2  12  15    4.00    1.00
   1 -12 -15    6.10    1.60
  -1  12  15    5.60    1.00
  -1  12  15    5.70    1.40
   0 -12 -15   13.20    1.90
   0  12  15   15.50    1.50
   0  12  15   19.00    2.10
  -1 -12 -15   16.50    2.20
   1  12  15   14.50    1.40
   1  12  15   14.60    1.70
  -2 -12 -15   28.90    2.70
   2  12  15   30.90    2.40
  -3 -12 -15    4.20    1.50
   3  12  15    5.70    1.80
  -4 -12 -15   19.50    2.40
   4  12  15   13.30    1.50
  -5 -12 -15    5.90    1.80
   5  12  15    2.00    1.10
  -6 -12 -15    4.30    1.70
   6  12  15    4.70    1.30
  -7 -12 -15    1.20    1.50
   7  12  15    2.60    1.30
  -8 -12 -15   -0.40    1.50
   8  12  15   -0.40    1.30
   3 -13 -15   -0.60    1.30
  -3  13  15   -1.80    1.20
  -3  13  15   -0.30    1.10
   2 -13 -15    0.90    1.30
  -2  13  15    1.40    1.30
  -2  13  15    1.10    1.10
   1 -13 -15    4.20    1.40
  -1  13  15    3.80    1.10
  -1  13  15    4.30    1.50
   0 -13 -15    1.30    1.40
   0  13  15    2.50    1.20
   0  13  15   -0.70    1.20
  -1 -13 -15    4.90    1.60
   1  13  15    7.30    1.30
   1  13  15   10.40    1.50
  -2 -13 -15    0.20    1.40
   2  13  15   -0.80    1.20
   2  13  15   -1.90    1.30
  -3 -13 -15    1.10    1.40
   3  13  15    0.90    2.20
  -4 -13 -15   -0.60    1.50
   4  13  15   -0.30    1.20
  -5 -13 -15    2.80    1.60
   5  13  15    5.00    1.30
  -6 -13 -15    2.30    1.60
   6  13  15    3.50    1.20
  -7 -13 -15    6.70    2.30
   7  13  15    6.40    1.40
   1 -14 -15    0.40    1.40
  -1  14  15   -1.70    1.40
  -1  14  15   -0.20    1.30
   0 -14 -15   57.39    3.90
   0  14  15   62.19    3.70
   0  14  15   60.29    3.90
  -1 -14 -15    7.60    1.80
   1  14  15   10.90    1.70
  -2 -14 -15    5.80    1.80
   2  14  15    8.30    1.50
  -3 -14 -15   -0.10    1.50
   3  14  15   -0.20    1.40
  -4 -14 -15   -0.60    1.50
   4  14  15    0.40    1.30
  -5 -14 -15    0.80    1.60
   5  14  15   -2.90    1.20
   1   1 -16    1.10    1.60
  -1  -1  16    1.10    1.50
   0   1 -16   -0.10    1.50
   0  -1  16    0.40    1.50
  -1   1 -16    6.70    1.80
   1  -1  16    6.10    1.70
  -2   1 -16    9.00    1.90
   2  -1  16    7.80    1.70
  -3   1 -16    0.00    1.40
   3  -1  16   -0.20    1.50
  -4   1 -16   12.10    2.10
   4  -1  16   12.10    2.00
  -5   1 -16    0.60    1.80
   5  -1  16    0.90    1.70
   3   0 -16    3.30    1.60
  -3   0  16    4.70    1.70
   2   0 -16    1.50    1.50
  -2   0  16    0.50    1.40
   1   0 -16    0.30    1.40
  -1   0  16    1.40    1.60
   0   0 -16    0.60    1.40
   0   0  16    2.50    1.40
  -1   0 -16    0.30    1.40
   1   0  16    0.80    1.40
  -2   0 -16   -2.10    1.40
   2   0  16    0.70    1.40
  -3   0 -16   -0.50    1.30
   3   0  16    2.10    1.40
  -4   0 -16    2.30    1.60
   4   0  16    2.20    1.50
  -5   0 -16    3.10    1.60
   5   0  16    3.10    1.60
  -6   0 -16    5.70    1.80
   6   0  16    4.30    1.70
  -7   0 -16    3.60    1.80
   7   0  16    1.80    2.20
   4  -1 -16   24.10    2.70
  -4   1  16   17.40    2.20
   3  -1 -16    9.60    1.90
  -3   1  16    9.80    1.90
   2  -1 -16    2.20    1.50
  -2   1  16    3.40    1.50
   1  -1 -16    2.30    1.40
  -1   1  16   -0.60    1.30
   0  -1 -16    0.50    1.40
   0   1  16    3.20    1.40
  -1  -1 -16    6.10    1.60
   1   1  16    3.00    1.40
  -2  -1 -16    4.00    1.60
   2   1  16    5.80    1.60
  -3  -1 -16   -1.50    1.20
   3   1  16    0.00    1.30
  -4  -1 -16    7.30    1.70
   4   1  16    7.20    1.70
  -5  -1 -16    8.10    1.70
   5   1  16    6.50    1.70
  -6  -1 -16    0.00    1.60
   6   1  16   -0.10    1.40
  -7  -1 -16    2.10    1.60
   7   1  16   -0.70    1.50
  -8  -1 -16    1.60    1.70
   8   1  16   -1.20    1.60
   5  -2 -16    1.80    1.50
  -5   2  16    1.00    1.50
   4  -2 -16   -0.50    1.40
  -4   2  16    1.40    1.40
   3  -2 -16    0.00    1.20
  -3   2  16   -1.30    1.20
  -2   2  16    1.00    1.30
   1  -2 -16    1.40    1.30
  -1   2  16    1.50    1.30
   0  -2 -16    2.00    1.30
   0   2  16    1.90    1.30
  -1  -2 -16    1.40    1.20
   1   2  16   -1.10    1.10
  -2  -2 -16    6.70    1.50
   2   2  16    5.50    1.50
  -3  -2 -16   12.80    1.90
   3   2  16    9.50    1.70
  -4  -2 -16    6.00    1.50
   4   2  16    5.10    1.60
  -5  -2 -16   -0.40    1.20
   5   2  16    3.10    1.30
  -6  -2 -16    1.10    1.50
   6   2  16    1.00    1.30
  -7  -2 -16    3.60    1.70
   7   2  16    2.40    1.60
  -8  -2 -16   -1.00    1.60
   8   2  16   -2.70    1.60
  -9  -2 -16    0.20    1.70
   9   2  16   -0.40    1.80
   5  -3 -16    0.40    1.30
  -5   3  16    0.20    1.40
   4  -3 -16    2.00    1.40
  -4   3  16    1.20    1.30
   3  -3 -16    2.10    1.40
  -3   3  16    5.10    1.50
   2  -3 -16    0.50    1.10
  -2   3  16    0.40    1.10
   1  -3 -16    0.80    1.30
  -1   3  16   -1.10    1.20
   0  -3 -16    2.10    1.30
   0   3  16    1.20    1.30
  -1  -3 -16    1.00    1.30
   1   3  16    1.90    1.30
  -2  -3 -16    7.70    1.70
   2   3  16    7.60    1.60
  -3  -3 -16   17.80    2.20
   3   3  16   15.60    1.90
  -4  -3 -16   13.80    1.90
   4   3  16   12.00    1.80
  -5  -3 -16    1.40    1.30
   5   3  16    1.10    1.20
  -6  -3 -16    8.50    1.80
   6   3  16    9.60    1.80
  -7  -3 -16    4.20    1.60
   7   3  16    6.90    1.60
  -8  -3 -16    1.90    1.60
   8   3  16    3.10    1.60
  -9  -3 -16    1.90    1.70
   9   3  16    2.60    1.80
   6  -4 -16   -1.80    1.20
  -6   4  16   -2.20    1.40
   5  -4 -16    1.70    1.40
  -5   4  16    0.70    1.30
   4  -4 -16   -0.60    1.10
  -4   4  16    1.60    1.30
   3  -4 -16   22.20    2.30
  -3   4  16   21.70    2.40
   2  -4 -16    0.40    1.10
  -2   4  16    1.60    1.20
   1  -4 -16    1.70    1.20
  -1   4  16    3.60    1.40
   0  -4 -16   -0.60    1.10
   0   4  16   -0.60    1.10
  -1  -4 -16    3.30    1.30
   1   4  16    6.50    1.30
  -2  -4 -16    4.10    1.50
   2   4  16    2.90    1.30
  -3  -4 -16    3.10    1.30
   3   4  16    3.20    1.30
  -4  -4 -16    0.30    1.20
   4   4  16    0.40    1.30
  -5  -4 -16    5.70    1.60
   5   4  16    4.90    1.50
  -6  -4 -16   21.60    2.30
   6   4  16   23.30    2.30
  -7  -4 -16   -0.60    1.40
   7   4  16    0.20    1.30
  -8  -4 -16    2.20    1.50
   8   4  16    0.80    1.60
  -9  -4 -16    3.40    1.80
   9   4  16    2.10    1.60
 -10  -4 -16    1.90    1.80
  10   4  16    3.70    1.80
   6  -5 -16    0.20    1.30
  -6   5  16    1.00    1.40
   5  -5 -16    4.50    1.50
  -5   5  16    3.70    1.60
   4  -5 -16    0.60    1.10
  -4   5  16   -1.50    1.10
   3  -5 -16   11.30    1.80
  -3   5  16    9.80    1.70
   2  -5 -16    9.90    1.60
  -2   5  16   12.30    1.80
   1  -5 -16    5.60    1.50
  -1   5  16    7.10    1.50
   0  -5 -16   -0.30    1.10
   0   5  16   -0.10    1.00
  -1  -5 -16    1.10    1.30
   1   5  16    0.80    1.10
  -2  -5 -16    1.30    1.20
   2   5  16    2.10    1.20
  -3  -5 -16    2.50    1.30
   3   5  16    3.80    1.30
  -4  -5 -16    3.70    1.40
   4   5  16    4.30    1.30
  -5  -5 -16   17.20    2.20
   5   5  16   17.90    1.90
  -6  -5 -16    1.50    1.20
   6   5  16    4.00    1.40
  -7  -5 -16   -1.00    1.40
   7   5  16   -1.30    1.30
  -8  -5 -16    0.00    1.40
   8   5  16   -0.50    1.40
  -9  -5 -16   -1.00    1.50
   9   5  16    2.80    1.60
 -10  -5 -16    0.40    1.70
  10   5  16    0.70    1.70
   6  -6 -16    1.90    2.40
  -6   6  16    5.20    1.80
   5  -6 -16    5.30    1.40
  -5   6  16    4.30    1.40
   4  -6 -16    3.20    1.30
  -4   6  16    2.00    1.30
   3  -6 -16   14.70    2.00
  -3   6  16   11.00    1.70
   2  -6 -16    3.60    1.30
  -2   6  16    2.30    1.10
   1  -6 -16    4.90    1.40
  -1   6  16    6.70    1.40
   0  -6 -16    2.10    1.20
   0   6  16    3.40    1.30
  -1  -6 -16    3.70    1.30
   1   6  16    5.10    1.30
  -2  -6 -16    9.60    1.70
   2   6  16    9.30    1.40
  -3  -6 -16    0.80    1.30
   3   6  16    0.80    1.10
  -4  -6 -16    7.70    1.70
   4   6  16    6.60    1.40
  -5  -6 -16   -0.70    1.30
   5   6  16   -1.80    1.20
  -6  -6 -16   12.10    1.80
   6   6  16    9.80    1.60
  -7  -6 -16    3.30    1.50
   7   6  16    0.50    1.30
  -8  -6 -16   -1.70    1.50
   8   6  16    1.00    1.40
  -9  -6 -16    0.80    1.60
   9   6  16    1.00    1.50
 -10  -6 -16   -3.30    1.60
  10   6  16   -0.50    1.60
   6  -7 -16    0.00    1.50
  -6   7  16    5.40    2.00
  -5   7  16    2.20    1.40
   4  -7 -16    2.30    1.30
  -4   7  16    3.30    1.30
   3  -7 -16    1.70    1.30
  -3   7  16    3.50    1.30
   2  -7 -16    0.10    1.10
  -2   7  16    1.90    1.20
   1  -7 -16    2.80    1.20
  -1   7  16    2.40    1.20
   0  -7 -16    1.10    1.10
   0   7  16    2.10    1.20
  -1  -7 -16    1.80    1.20
   1   7  16    3.90    1.30
  -2  -7 -16    1.30    1.10
   2   7  16    3.20    1.30
  -3  -7 -16    4.20    1.40
   3   7  16    1.10    1.20
  -4  -7 -16   15.70    2.10
   4   7  16   13.10    1.70
  -5  -7 -16   57.69    3.70
   5   7  16   50.79    3.30
  -6  -7 -16    9.70    1.70
   6   7  16   12.00    1.70
  -7  -7 -16   16.50    2.20
   7   7  16   22.00    2.30
  -8  -7 -16    1.70    1.60
   8   7  16    4.10    1.40
  -9  -7 -16    4.90    1.90
   9   7  16    3.50    1.60
 -10  -7 -16    2.50    1.90
  10   7  16   -1.20    1.60
   6  -8 -16    9.40    1.70
  -6   8  16   10.90    3.40
  -5   8  16    2.60    1.40
   4  -8 -16    4.70    1.60
  -4   8  16    4.30    1.50
   3  -8 -16    8.70    1.50
  -3   8  16    7.40    1.60
   2  -8 -16    5.60    1.40
  -2   8  16    5.70    1.40
   1  -8 -16    8.60    1.50
  -1   8  16   10.50    1.60
   0  -8 -16    6.60    1.60
   0   8  16    9.10    1.50
  -1  -8 -16    9.90    1.70
   1   8  16    8.20    1.50
  -2  -8 -16    1.00    1.30
   2   8  16    6.90    1.40
  -3  -8 -16    0.70    1.40
   3   8  16   -0.70    1.00
  -4  -8 -16    1.40    1.30
   4   8  16    1.80    1.20
  -5  -8 -16    5.40    1.50
   5   8  16    3.20    1.40
  -6  -8 -16    0.70    1.40
   6   8  16    0.20    1.30
  -7  -8 -16    1.00    1.30
   7   8  16    1.80    1.30
  -8  -8 -16   -0.10    1.50
   8   8  16    1.30    1.40
  -9  -8 -16    5.00    1.80
   9   8  16   -0.50    1.40
 -10  -8 -16   -1.30    1.60
  10   8  16   -3.20    1.60
   5  -9 -16    9.30    2.90
  -5   9  16    5.80    1.60
   4  -9 -16    2.80    1.20
  -4   9  16    2.20    1.40
   3  -9 -16    0.20    1.20
  -3   9  16    0.20    1.20
   2  -9 -16   -0.10    1.20
  -2   9  16    0.40    1.20
   1  -9 -16    0.60    1.10
  -1   9  16    1.20    1.20
   0  -9 -16   15.70    2.00
   0   9  16   14.40    1.70
  -1  -9 -16    1.30    1.20
   1   9  16    1.80    1.00
  -2  -9 -16    8.00    1.60
   2   9  16   10.50    1.60
  -3  -9 -16   10.70    1.70
   3   9  16    7.80    1.50
  -4  -9 -16    5.90    1.60
   4   9  16    7.60    1.30
  -5  -9 -16    3.80    1.50
   5   9  16    1.50    1.20
  -6  -9 -16   10.20    1.90
   6   9  16    7.60    1.50
  -7  -9 -16    6.40    1.50
   7   9  16    5.50    1.40
  -8  -9 -16   -0.90    1.40
   8   9  16    1.90    1.30
  -9  -9 -16   -0.70    1.60
   9   9  16   -0.20    1.50
   5 -10 -16    1.90    1.50
  -5  10  16    5.00    2.00
   4 -10 -16    2.00    1.40
  -4  10  16    2.20    1.50
   3 -10 -16    4.10    1.50
  -3  10  16    2.30    1.30
   2 -10 -16   11.00    1.70
  -2  10  16   11.10    1.70
   1 -10 -16   -1.80    1.10
  -1  10  16   -0.10    1.10
   0 -10 -16   13.60    1.90
   0  10  16   14.60    1.80
  -1 -10 -16    3.10    1.30
   1  10  16    0.70    1.10
  -2 -10 -16    2.10    1.40
   2  10  16    2.50    1.20
  -3 -10 -16    1.70    1.30
   3  10  16   -0.40    1.10
  -4 -10 -16    0.80    1.30
   4  10  16    0.40    1.20
  -5 -10 -16    1.50    1.40
   5  10  16    0.90    1.30
  -6 -10 -16   -2.30    1.30
   6  10  16   -1.00    1.20
  -7 -10 -16    0.20    1.40
   7  10  16    2.70    1.30
  -8 -10 -16    1.70    1.60
   8  10  16    0.80    1.40
  -9 -10 -16    3.40    2.10
   9  10  16    1.80    1.50
   4 -11 -16   10.00    1.70
  -4  11  16    8.60    1.90
   3 -11 -16   18.40    2.30
  -3  11  16   22.60    2.50
   2 -11 -16    8.50    1.70
  -2  11  16   10.40    1.80
   1 -11 -16    5.90    1.50
  -1  11  16    2.80    1.40
   0 -11 -16    9.50    1.70
   0  11  16   10.20    1.60
  -1 -11 -16   14.00    2.00
   1  11  16   18.10    2.00
  -2 -11 -16    3.30    1.50
   2  11  16    3.10    1.30
  -3 -11 -16   11.60    1.80
   3  11  16   11.30    1.70
  -4 -11 -16    1.10    1.50
   4  11  16    2.10    1.20
  -5 -11 -16    2.00    1.50
   5  11  16    3.30    1.20
  -6 -11 -16   10.10    1.90
   6  11  16   10.20    1.60
  -7 -11 -16    4.00    1.90
   7  11  16    7.50    1.50
  -8 -11 -16   -1.10    1.90
   8  11  16   -1.30    1.40
   3 -12 -16    4.20    1.60
  -3  12  16    6.20    1.70
   2 -12 -16    9.10    1.80
  -2  12  16   15.90    2.00
   1 -12 -16   -0.60    1.30
  -1  12  16    1.20    1.30
   0 -12 -16    2.70    1.60
   0  12  16    2.80    1.30
  -1 -12 -16    2.60    1.50
   1  12  16    2.30    1.30
  -2 -12 -16    5.90    1.70
   2  12  16    5.60    1.40
  -3 -12 -16    2.10    1.60
   3  12  16    3.30    1.30
  -4 -12 -16    5.10    1.80
   4  12  16    5.80    1.30
  -5 -12 -16    4.50    1.70
   5  12  16    3.40    1.30
  -6 -12 -16    7.60    1.90
   6  12  16    2.40    1.40
   7  12  16    4.10    1.50
   1 -13 -16    3.50    1.60
  -1  13  16    6.40    1.60
   0 -13 -16    0.80    1.50
   0  13  16   -1.00    1.40
  -1 -13 -16    8.40    1.90
   1  13  16   10.10    1.60
  -2 -13 -16    5.90    1.70
   2  13  16    4.80    1.60
  -3 -13 -16    4.00    1.80
   3  13  16    2.90    1.40
  -4 -13 -16    0.60    1.60
   4  13  16   -0.20    1.30
  -5 -13 -16    1.00    1.70
   5  13  16   -1.60    1.30
   1  -1 -17    5.50    1.80
  -1   1  17    5.40    1.60
   0  -1 -17    1.00    1.60
   0   1  17    1.90    1.60
  -1  -1 -17    1.30    1.70
   1   1  17    4.10    1.70
  -2  -1 -17   -1.10    1.40
   2   1  17    2.60    1.60
  -3  -1 -17   -0.90    1.50
   3   1  17   -1.30    1.50
  -4  -1 -17    0.30    1.60
   4   1  17    0.50    1.40
   2  -2 -17    0.50    1.50
  -2   2  17    1.10    1.50
   1  -2 -17    3.00    1.60
  -1   2  17    4.80    1.70
   0  -2 -17    1.60    1.40
   0   2  17   -0.50    1.40
  -1  -2 -17    3.40    1.60
   1   2  17    2.50    1.60
  -2  -2 -17   -0.20    1.40
   2   2  17    0.20    1.40
  -3  -2 -17    0.40    1.60
   3   2  17   -0.70    1.50
  -4  -2 -17   -0.90    1.50
   4   2  17   -0.20    1.40
  -5  -2 -17   -1.70    1.50
   5   2  17    3.40    1.50
  -6  -2 -17    6.60    1.90
   6   2  17    5.50    1.90
   3  -3 -17    1.00    1.50
  -3   3  17    1.70    1.50
   2  -3 -17    9.50    1.90
  -2   3  17   11.00    1.80
   1  -3 -17   -0.50    1.40
  -1   3  17    1.60    1.50
   0  -3 -17   -0.70    1.30
   0   3  17    0.90    1.40
  -1  -3 -17    0.00    1.30
   1   3  17    0.30    1.30
  -2  -3 -17   11.10    2.00
   2   3  17   10.40    1.90
  -3  -3 -17   -1.50    1.30
   3   3  17   -0.20    1.40
  -4  -3 -17    1.70    1.50
   4   3  17    0.80    1.40
  -5  -3 -17    5.90    1.70
   5   3  17    5.50    1.60
  -6  -3 -17    4.00    1.70
   6   3  17    3.40    1.50
  -7  -3 -17   16.90    2.40
   7   3  17   16.80    2.30
   4  -4 -17    3.90    1.50
  -4   4  17    7.10    2.10
   3  -4 -17    0.60    1.30
  -3   4  17    1.60    1.50
   2  -4 -17    0.20    1.40
  -2   4  17    1.40    1.30
   1  -4 -17    9.50    1.70
  -1   4  17    6.70    1.60
   0  -4 -17    0.40    1.30
   0   4  17   -0.80    1.30
  -1  -4 -17    0.90    1.40
   1   4  17    0.40    1.40
  -2  -4 -17    3.60    1.50
   2   4  17   -0.20    1.10
  -3  -4 -17    3.00    1.50
   3   4  17    4.70    1.40
  -4  -4 -17    1.00    1.40
   4   4  17   -0.30    1.40
  -5  -4 -17    0.40    1.40
   5   4  17    0.90    1.40
  -6  -4 -17    3.70    1.50
   6   4  17    6.50    1.60
  -7  -4 -17    0.60    1.60
   7   4  17    0.60    1.60
  -8  -4 -17    1.40    2.00
   8   4  17   -0.60    1.70
   4  -5 -17   -1.00    1.40
  -4   5  17   -2.60    1.40
   3  -5 -17    6.50    1.60
  -3   5  17    7.40    1.50
   2  -5 -17    9.20    1.70
  -2   5  17    6.60    1.60
   1  -5 -17    2.50    1.40
  -1   5  17    5.70    1.50
   0  -5 -17    4.20    1.40
   0   5  17    5.50    1.40
  -1  -5 -17    0.50    1.20
   1   5  17   -0.10    1.20
  -2  -5 -17    0.30    1.30
   2   5  17   -2.00    1.20
  -3  -5 -17    4.20    1.50
   3   5  17    0.90    1.30
  -4  -5 -17   -1.80    1.30
   4   5  17   -0.30    1.40
  -5  -5 -17    1.40    1.40
   5   5  17    0.30    1.40
  -6  -5 -17    2.00    1.50
   6   5  17    2.00    1.40
  -7  -5 -17    4.30    1.80
   7   5  17    3.20    1.60
  -8  -5 -17    0.00    1.60
   8   5  17    0.30    1.60
   4  -6 -17    2.50    1.30
  -4   6  17   -2.90    1.30
   3  -6 -17   -0.30    1.40
  -3   6  17    0.80    1.40
   2  -6 -17   20.50    2.60
  -2   6  17   22.60    2.40
   1  -6 -17   -0.50    1.20
  -1   6  17    0.60    1.30
   0  -6 -17    1.30    1.30
   0   6  17    0.20    1.20
  -1  -6 -17    0.90    1.30
   1   6  17    1.10    1.40
  -2  -6 -17    5.50    1.60
   2   6  17    4.40    1.50
  -3  -6 -17    0.90    1.50
   3   6  17    1.20    1.30
  -4  -6 -17    7.80    1.80
   4   6  17   10.60    1.70
  -5  -6 -17    9.00    1.80
   5   6  17    4.80    1.50
  -6  -6 -17   12.60    2.10
   6   6  17    9.10    1.70
  -7  -6 -17    3.90    1.80
   7   6  17    3.50    1.60
  -8  -6 -17   -0.40    1.70
   8   6  17   -1.00    1.50
   4  -7 -17   -0.50    1.20
  -4   7  17    0.80    1.50
   3  -7 -17    5.50    1.40
  -3   7  17    6.20    1.60
   2  -7 -17   29.00    2.70
  -2   7  17   36.50    2.90
   1  -7 -17   17.60    2.20
  -1   7  17   20.60    2.30
   0  -7 -17   10.00    1.90
   0   7  17    9.50    1.60
  -1  -7 -17    4.70    1.60
   1   7  17    3.90    1.30
  -2  -7 -17   -0.10    1.20
   2   7  17    2.00    1.30
  -3  -7 -17   -0.20    1.30
   3   7  17    0.80    1.20
  -4  -7 -17    2.10    1.70
   4   7  17    2.30    1.30
  -5  -7 -17   -0.10    1.50
   5   7  17   -1.50    1.30
  -6  -7 -17    1.00    1.50
   6   7  17    1.80    1.30
  -7  -7 -17    2.30    1.50
   7   7  17    1.90    1.60
  -8  -7 -17    4.40    1.90
   8   7  17    4.80    1.60
   4  -8 -17    5.80    1.60
  -4   8  17    3.00    1.70
   3  -8 -17    2.40    1.40
  -3   8  17    5.80    1.60
   2  -8 -17   12.60    2.00
  -2   8  17   13.90    2.00
   1  -8 -17   15.90    2.20
  -1   8  17   24.60    2.30
   0  -8 -17    5.60    1.50
   0   8  17    9.20    1.60
  -1  -8 -17   10.60    1.90
   1   8  17   14.20    1.80
  -2  -8 -17    3.40    1.40
   2   8  17    1.30    1.30
  -3  -8 -17    2.80    1.50
   3   8  17    1.80    1.20
  -4  -8 -17    2.50    1.50
   4   8  17    3.20    1.30
  -5  -8 -17    5.90    1.70
   5   8  17    5.90    1.60
  -6  -8 -17    0.50    1.50
   6   8  17   -2.70    1.20
  -7  -8 -17   10.00    2.00
   7   8  17    5.70    1.60
  -8  -8 -17    4.30    1.90
   8   8  17    5.30    1.70
   3  -9 -17    1.50    1.30
  -3   9  17   -0.50    1.30
   2  -9 -17    1.80    1.30
  -2   9  17   -0.50    1.30
   1  -9 -17   -0.90    1.20
  -1   9  17    0.90    1.30
   0  -9 -17    2.30    1.30
   0   9  17    5.10    1.40
  -1  -9 -17   -0.30    1.20
   1   9  17   -1.40    1.20
  -2  -9 -17   -1.40    1.40
   2   9  17   -1.10    1.20
  -3  -9 -17    0.40    1.30
   3   9  17   -0.20    1.20
  -4  -9 -17    1.40    1.40
   4   9  17    0.00    1.20
  -5  -9 -17    1.40    1.60
   5   9  17    1.00    1.30
  -6  -9 -17    3.20    1.60
   6   9  17    3.50    1.40
  -7  -9 -17    3.40    1.60
   7   9  17    0.50    1.50
   8   9  17    6.50    1.70
   3 -10 -17    8.70    1.80
  -3  10  17    8.60    1.80
   2 -10 -17    3.70    1.50
  -2  10  17    3.10    1.50
   1 -10 -17    7.90    1.90
  -1  10  17    9.90    1.80
   0 -10 -17    4.00    1.50
   0  10  17   -0.80    1.30
  -1 -10 -17    8.40    1.80
   1  10  17    9.00    1.70
  -2 -10 -17    8.90    1.80
   2  10  17    7.10    1.60
  -3 -10 -17    2.70    1.40
   3  10  17    0.80    1.20
  -4 -10 -17    2.10    1.60
   4  10  17    2.80    1.30
  -5 -10 -17   -0.50    1.50
   5  10  17   -2.10    1.30
  -6 -10 -17    4.40    1.70
   6  10  17    3.00    1.40
  -7 -10 -17   -1.90    1.80
   7  10  17    0.40    1.40
   2 -11 -17    7.60    1.90
  -2  11  17   10.10    1.80
   1 -11 -17    2.10    1.40
  -1  11  17    2.40    1.40
   0 -11 -17    5.80    1.60
   0  11  17    4.00    1.50
  -1 -11 -17   10.40    2.00
   1  11  17   15.10    1.80
  -2 -11 -17    2.20    1.60
   2  11  17    5.10    1.50
  -3 -11 -17    4.80    1.60
   3  11  17    2.30    1.30
  -4 -11 -17    0.30    1.60
   4  11  17    5.30    1.50
  -5 -11 -17    2.40    1.60
   5  11  17   -1.50    1.30
  -6 -11 -17    3.10    2.00
   6  11  17    4.60    1.60
   0 -12 -17   -1.10    1.50
   0  12  17    0.10    1.30
  -1 -12 -17   -0.30    1.50
   1  12  17    1.30    1.40
  -2 -12 -17   -1.50    1.50
   2  12  17   -1.20    1.50
  -3 -12 -17    4.30    1.80
   3  12  17    3.80    1.40
  -4 -12 -17    0.10    1.70
   4  12  17    0.40    1.40
   0  -4 -18    8.10    1.90
   0   4  18    9.90    2.40
  -1  -4 -18   -2.30    1.30
   1   4  18   -0.90    1.50
  -2  -4 -18    2.20    1.60
   2   4  18    6.10    1.60
  -3  -4 -18   -3.20    1.40
   3   4  18   -1.00    1.50
  -4  -4 -18   -2.00    1.60
   4   4  18   -2.00    1.60
   1  -5 -18    6.50    1.70
  -1   5  18    5.50    2.20
   0  -5 -18    0.40    1.50
   0   5  18   -1.60    1.30
  -1  -5 -18    2.10    1.40
   1   5  18   -0.90    1.50
  -2  -5 -18    0.30    1.50
   2   5  18    0.20    1.30
  -3  -5 -18   11.00    1.90
   3   5  18   11.60    1.90
  -4  -5 -18   -1.50    1.50
   4   5  18   -0.80    1.50
  -5  -5 -18    3.60    1.70
   5   5  18    4.00    1.70
   1  -6 -18   -0.60    1.50
  -1   6  18   -0.70    1.40
   0  -6 -18    1.80    1.50
   0   6  18    3.40    1.50
  -1  -6 -18   -1.40    1.30
   1   6  18    1.80    1.40
  -2  -6 -18    0.90    1.50
   2   6  18    0.00    1.50
  -3  -6 -18    0.60    1.60
   3   6  18    2.50    1.50
  -4  -6 -18    3.10    1.70
   4   6  18    1.10    1.60
  -5  -6 -18    2.80    1.50
   5   6  18    1.70    1.60
   6   6  18    1.70    1.60
   1  -7 -18    2.20    1.50
  -1   7  18    3.20    1.70
   0  -7 -18    5.00    1.60
   0   7  18    5.00    1.70
  -1  -7 -18    5.20    1.70
   1   7  18    5.30    1.60
  -2  -7 -18    5.20    1.70
   2   7  18    4.90    1.70
  -3  -7 -18    5.20    1.80
   3   7  18    3.90    1.60
  -4  -7 -18   12.50    2.40
   4   7  18   15.90    2.00
  -5  -7 -18   -2.30    1.50
   5   7  18   -3.10    1.40
   6   7  18    5.70    1.70
   1  -8 -18    1.60    1.50
  -1   8  18    6.70    1.60
   0  -8 -18   -0.70    1.40
   0   8  18   -4.50    1.30
  -1  -8 -18    0.30    1.50
   1   8  18    0.40    1.40
  -2  -8 -18    3.40    1.60
   2   8  18    2.90    1.40
  -3  -8 -18    1.50    1.50
   3   8  18   -1.40    1.40
  -4  -8 -18    0.20    1.60
   4   8  18    1.20    1.50
  -5  -8 -18    8.30    2.20
   5   8  18    9.20    1.90
   6   8  18   -0.50    1.40
   0  -9 -18    1.70    1.40
   0   9  18    0.10    1.50
  -1  -9 -18    0.20    1.40
   1   9  18   -0.90    1.30
  -2  -9 -18    2.50    1.50
   2   9  18   -0.80    1.40
  -3  -9 -18    2.90    1.60
   3   9  18   -0.10    1.40
  -4  -9 -18   -2.00    1.50
   4   9  18    3.00    1.50
  -5  -9 -18    8.00    2.40
   5   9  18    4.50    1.60
  -1 -10 -18    3.90    1.50
   1  10  18    0.80    1.50
  -2 -10 -18    6.10    1.70
   2  10  18    3.10    1.60
  -3 -10 -18    2.80    1.60
   3  10  18    0.40    1.40
  -4 -10 -18    2.50    2.00
   4  10  18    2.20    1.50
   0   0   0    0.00    0.00

_computing_structure_solution     'SHELXT 2018/2 (Sheldrick, 2018)'
;
_shelx_hkl_checksum    1862

