 
data_vv-3_a
 
_audit_creation_method            'SHELXL-2018/3'
_shelx_SHELXL_version_number      '2018/3'
_chemical_name_systematic         ?
_chemical_name_common             ?
_chemical_melting_point           ?
_chemical_formula_moiety          ?
_chemical_formula_sum
 'C H N O Zn' 
_chemical_formula_weight          108.40

loop_
 _atom_type_symbol
 _atom_type_description
 _atom_type_scat_dispersion_real
 _atom_type_scat_dispersion_imag
 _atom_type_scat_source
 'C'  'C'   0.0033   0.0016
 'International Tables Vol C Tables 4.2.6.8 and 6.1.1.4'
 'H'  'H'   0.0000   0.0000
 'International Tables Vol C Tables 4.2.6.8 and 6.1.1.4'
 'N'  'N'   0.0061   0.0033
 'International Tables Vol C Tables 4.2.6.8 and 6.1.1.4'
 'O'  'O'   0.0106   0.0060
 'International Tables Vol C Tables 4.2.6.8 and 6.1.1.4'
 'Zn'  'Zn'   0.2839   1.4301
 'International Tables Vol C Tables 4.2.6.8 and 6.1.1.4'
 
_space_group_crystal_system       monoclinic
_space_group_IT_number            14
_space_group_name_H-M_alt         'P 21/n'
_space_group_name_Hall            '-P 2yn'
 
_shelx_space_group_comment
;
The symmetry employed for this shelxl refinement is uniquely defined
by the following loop, which should always be used as a source of
symmetry information in preference to the above space-group names.
They are only intended as comments.
;
 
loop_
 _space_group_symop_operation_xyz
 'x, y, z'
 '-x+1/2, y+1/2, -z+1/2'
 '-x, -y, -z'
 'x-1/2, -y-1/2, z-1/2'
 
_cell_length_a                    10.2290(7)
_cell_length_b                    15.1128(10)
_cell_length_c                    12.8151(8)
_cell_angle_alpha                 90
_cell_angle_beta                  107.850(2)
_cell_angle_gamma                 90
_cell_volume                      1885.7(2)
_cell_formula_units_Z             24
_cell_measurement_temperature     150(2)
_cell_measurement_reflns_used     ?
_cell_measurement_theta_min       ?
_cell_measurement_theta_max       ?
 
_exptl_crystal_description        ?
_exptl_crystal_colour             ?
_exptl_crystal_density_meas       ?
_exptl_crystal_density_method     ?
_exptl_crystal_density_diffrn     2.291          
_exptl_crystal_F_000              1248
_exptl_transmission_factor_min    ?
_exptl_transmission_factor_max    ?
_exptl_crystal_size_max           ?
_exptl_crystal_size_mid           ?
_exptl_crystal_size_min           ?
_exptl_absorpt_coefficient_mu     7.540
_shelx_estimated_absorpt_T_min    ?
_shelx_estimated_absorpt_T_max    ?
_exptl_absorpt_correction_type    ?
_exptl_absorpt_correction_T_min   ?
_exptl_absorpt_correction_T_max   ?
_exptl_absorpt_process_details    ?
_exptl_absorpt_special_details    ?
_diffrn_ambient_temperature       150(2)
_diffrn_radiation_wavelength      0.71073
_diffrn_radiation_type            MoK\a
_diffrn_source                    ?
_diffrn_measurement_device_type   ?
_diffrn_measurement_method        ?
_diffrn_detector_area_resol_mean  ?
_diffrn_reflns_number             19038
_diffrn_reflns_av_unetI/netI      0.0514
_diffrn_reflns_av_R_equivalents   0.0569
_diffrn_reflns_limit_h_min        -13
_diffrn_reflns_limit_h_max        12
_diffrn_reflns_limit_k_min        -19
_diffrn_reflns_limit_k_max        18
_diffrn_reflns_limit_l_min        -15
_diffrn_reflns_limit_l_max        16
_diffrn_reflns_theta_min          2.488
_diffrn_reflns_theta_max          27.138
_diffrn_reflns_theta_full         25.242
_diffrn_measured_fraction_theta_max   0.998
_diffrn_measured_fraction_theta_full  0.999
_diffrn_reflns_Laue_measured_fraction_max    0.998
_diffrn_reflns_Laue_measured_fraction_full   0.999
_diffrn_reflns_point_group_measured_fraction_max   0.998
_diffrn_reflns_point_group_measured_fraction_full  0.999
_reflns_number_total              4166
_reflns_number_gt                 3124
_reflns_threshold_expression      'I > 2\s(I)'
_reflns_Friedel_coverage          0.000
_reflns_Friedel_fraction_max      .
_reflns_Friedel_fraction_full     .
 
_reflns_special_details
;
 Reflections were merged by SHELXL according to the crystal
 class for the calculation of statistics and refinement.
 
 _reflns_Friedel_fraction is defined as the number of unique
 Friedel pairs measured divided by the number that would be
 possible theoretically, ignoring centric projections and
 systematic absences.
;
 
_computing_data_collection        ?
_computing_cell_refinement        ?
_computing_data_reduction         ?
_computing_structure_solution     'SHELXT 2018/2 (Sheldrick, 2018)'
_computing_structure_refinement 'SHELXL-2018/3 (Sheldrick, 2018)'
_computing_molecular_graphics     ?
_computing_publication_material   ?
_refine_special_details           ?
_refine_ls_structure_factor_coef  Fsqd
_refine_ls_matrix_type            full
_refine_ls_weighting_scheme       calc
_refine_ls_weighting_details
'w=1/[\s^2^(Fo^2^)+(0.1000P)^2^] where P=(Fo^2^+2Fc^2^)/3'
_atom_sites_solution_primary      ?
_atom_sites_solution_secondary    ?
_atom_sites_solution_hydrogens    geom
_refine_ls_hydrogen_treatment     constr
_refine_ls_extinction_method      none
_refine_ls_extinction_coef        .
_refine_ls_number_reflns          4166
_refine_ls_number_parameters      289
_refine_ls_number_restraints      0
_refine_ls_R_factor_all           0.1130
_refine_ls_R_factor_gt            0.0865
_refine_ls_wR_factor_ref          0.2856
_refine_ls_wR_factor_gt           0.2735
_refine_ls_goodness_of_fit_ref    1.916
_refine_ls_restrained_S_all       1.916
_refine_ls_shift/su_max           0.000
_refine_ls_shift/su_mean          0.000
 
loop_
 _atom_site_label
 _atom_site_type_symbol
 _atom_site_fract_x
 _atom_site_fract_y
 _atom_site_fract_z
 _atom_site_U_iso_or_equiv
 _atom_site_adp_type
 _atom_site_occupancy
 _atom_site_site_symmetry_order  
 _atom_site_calc_flag
 _atom_site_refinement_flags_posn
 _atom_site_refinement_flags_adp
 _atom_site_refinement_flags_occupancy
 _atom_site_disorder_assembly
 _atom_site_disorder_group
Zn Zn 0.23147(8) 0.43877(5) 0.26177(6) 0.0253(3) Uani 1 1 d . . . . .
O1 O -0.2175(5) 0.1386(3) 0.6630(4) 0.0391(13) Uani 1 1 d . . . . .
O2 O -0.1562(5) 0.0304(3) 0.5705(4) 0.0326(11) Uani 1 1 d . . . . .
O3 O 0.1716(5) 0.3477(3) 0.3432(4) 0.0383(13) Uani 1 1 d . . . . .
O4 O 0.8311(7) 0.9006(5) 0.2032(7) 0.082(2) Uani 1 1 d . . . . .
O5 O 0.1377(5) 0.4504(3) 0.4579(4) 0.0354(12) Uani 1 1 d . . . . .
N1 N 0.8785(8) 0.8156(5) 0.1837(7) 0.056(2) Uani 1 1 d . . . . .
N3 N 0.9162(6) 0.6218(4) 0.1886(5) 0.0289(13) Uani 1 1 d . . . . .
N4 N 1.0758(6) 0.5240(4) 0.1931(5) 0.0315(13) Uani 1 1 d . . . . .
N5 N 0.3814(5) 0.5259(4) 0.3370(4) 0.0257(12) Uani 1 1 d . . . . .
N6 N 0.5442(5) 0.6224(3) 0.3483(4) 0.0267(12) Uani 1 1 d . . . . .
N7 N 0.7362(7) 0.8946(5) 0.2647(7) 0.055(2) Uani 1 1 d . . . . .
C1 C 0.9619(7) 0.6405(5) 0.0998(6) 0.0362(17) Uani 1 1 d . . . . .
H1 H 0.931073 0.686544 0.047523 0.043 Uiso 1 1 calc R U . . .
C2 C 1.0611(8) 0.5785(5) 0.1034(6) 0.0353(17) Uani 1 1 d . . . . .
H2 H 1.111581 0.573802 0.052604 0.042 Uiso 1 1 calc R U . . .
C3 C 0.9888(7) 0.5507(4) 0.2412(6) 0.0283(15) Uani 1 1 d . . . . .
H3 H 0.977092 0.524202 0.304897 0.034 Uiso 1 1 calc R U . . .
C4 C 0.8179(7) 0.6691(4) 0.2255(5) 0.0270(14) Uani 1 1 d . . . . .
C5 C 0.7325(6) 0.6262(4) 0.2707(5) 0.0266(15) Uani 1 1 d . . . . .
H5 H 0.734653 0.563444 0.273872 0.032 Uiso 1 1 calc R U . . .
C6 C 0.6401(7) 0.6724(4) 0.3133(5) 0.0276(15) Uani 1 1 d . . . . .
C7 C 0.6363(8) 0.7660(5) 0.3175(5) 0.0319(16) Uani 1 1 d . . . . .
H7 H 0.577776 0.797097 0.349878 0.038 Uiso 1 1 calc R U . . .
C8 C 0.7238(8) 0.8085(5) 0.2712(6) 0.0340(17) Uani 1 1 d . . . . .
C9 C 0.8151(8) 0.7630(5) 0.2228(6) 0.0301(16) Uani 1 1 d . . . . .
C10 C 0.4684(8) 0.5563(4) 0.2892(6) 0.0313(16) Uani 1 1 d . . . . .
H10 H 0.476875 0.534732 0.221991 0.038 Uiso 1 1 calc R U . . .
C11 C 0.5005(7) 0.6348(4) 0.4394(6) 0.0302(15) Uani 1 1 d . . . . .
H11 H 0.533814 0.677225 0.496060 0.036 Uiso 1 1 calc R U . . .
C12 C 0.3991(7) 0.5734(4) 0.4309(6) 0.0318(16) Uani 1 1 d . . . . .
H12 H 0.349502 0.565207 0.481881 0.038 Uiso 1 1 calc R U . . .
C13 C 0.1259(6) 0.3748(4) 0.4196(5) 0.0260(14) Uani 1 1 d . . . . .
C14 C 0.0498(7) 0.3053(4) 0.4636(5) 0.0252(14) Uani 1 1 d . . . . .
C15 C -0.0419(7) 0.3312(4) 0.5164(5) 0.0245(14) Uani 1 1 d . . . . .
H15 H -0.057463 0.392388 0.525110 0.029 Uiso 1 1 calc R U . . .
C16 C -0.1124(7) 0.2678(4) 0.5573(5) 0.0253(14) Uani 1 1 d . . . . .
H16 H -0.175565 0.286027 0.594115 0.030 Uiso 1 1 calc R U . . .
C17 C -0.0911(6) 0.1779(4) 0.5445(5) 0.0226(13) Uani 1 1 d . . . . .
C18 C 0.0060(6) 0.1522(4) 0.4918(5) 0.0253(14) Uani 1 1 d . . . . .
H18 H 0.024715 0.091231 0.485008 0.030 Uiso 1 1 calc R U . . .
C19 C 0.0735(6) 0.2156(4) 0.4504(5) 0.0254(14) Uani 1 1 d . . . . .
H19 H 0.136222 0.198276 0.412823 0.030 Uiso 1 1 calc R U . . .
C20 C -0.1593(7) 0.1100(4) 0.5945(5) 0.0255(14) Uani 1 1 d . . . . .
 
loop_
 _atom_site_aniso_label
 _atom_site_aniso_U_11
 _atom_site_aniso_U_22
 _atom_site_aniso_U_33
 _atom_site_aniso_U_23
 _atom_site_aniso_U_13
 _atom_site_aniso_U_12
Zn1 0.0276(5) 0.0188(5) 0.0340(5) -0.0002(3) 0.0161(4) -0.0013(3)
O1 0.055(3) 0.026(3) 0.049(3) 0.004(2) 0.034(3) -0.001(2)
O2 0.037(3) 0.027(3) 0.038(3) -0.001(2) 0.017(2) -0.004(2)
O3 0.048(3) 0.034(3) 0.047(3) -0.001(2) 0.035(3) -0.007(2)
O4 0.065(5) 0.049(4) 0.125(7) 0.020(4) 0.019(5) 0.001(4)
O5 0.040(3) 0.022(3) 0.050(3) -0.004(2) 0.022(3) -0.004(2)
N1 0.052(5) 0.037(4) 0.081(5) -0.006(4) 0.021(4) -0.003(4)
N3 0.025(3) 0.023(3) 0.035(3) 0.000(2) 0.004(2) -0.003(2)
N4 0.031(3) 0.024(3) 0.039(3) -0.003(3) 0.010(3) 0.000(3)
N5 0.027(3) 0.025(3) 0.030(3) 0.000(2) 0.015(2) 0.003(2)
N6 0.027(3) 0.019(3) 0.033(3) -0.002(2) 0.008(2) -0.002(2)
N7 0.040(4) 0.020(4) 0.111(7) 0.007(4) 0.034(4) -0.002(3)
C1 0.037(4) 0.032(4) 0.036(4) 0.012(3) 0.006(3) 0.001(3)
C2 0.032(4) 0.041(4) 0.036(4) 0.000(3) 0.016(3) -0.006(3)
C3 0.027(4) 0.024(3) 0.037(4) -0.004(3) 0.013(3) -0.002(3)
C4 0.025(3) 0.020(3) 0.032(4) -0.003(3) 0.004(3) 0.002(3)
C5 0.023(3) 0.014(3) 0.038(4) 0.002(3) 0.004(3) -0.004(3)
C6 0.027(3) 0.021(3) 0.029(3) -0.002(3) 0.000(3) -0.005(3)
C7 0.041(4) 0.028(4) 0.028(4) 0.001(3) 0.013(3) 0.001(3)
C8 0.045(4) 0.021(4) 0.036(4) 0.000(3) 0.013(4) 0.002(3)
C9 0.036(4) 0.022(4) 0.029(4) 0.010(3) 0.005(3) -0.010(3)
C10 0.034(4) 0.024(4) 0.035(4) -0.006(3) 0.008(3) -0.002(3)
C11 0.030(4) 0.024(3) 0.039(4) -0.004(3) 0.014(3) 0.004(3)
C12 0.033(4) 0.025(4) 0.038(4) 0.000(3) 0.013(3) 0.005(3)
C13 0.021(3) 0.030(4) 0.031(4) 0.004(3) 0.014(3) -0.001(3)
C14 0.023(3) 0.033(4) 0.021(3) 0.000(3) 0.008(3) -0.006(3)
C15 0.027(3) 0.025(3) 0.022(3) 0.000(3) 0.007(3) 0.006(3)
C16 0.030(4) 0.026(4) 0.021(3) -0.002(3) 0.011(3) 0.006(3)
C17 0.027(3) 0.019(3) 0.020(3) 0.000(2) 0.005(3) -0.001(3)
C18 0.025(3) 0.023(3) 0.032(3) -0.004(3) 0.015(3) 0.002(3)
C19 0.025(3) 0.022(3) 0.035(4) 0.000(3) 0.018(3) -0.003(3)
C20 0.028(3) 0.022(3) 0.027(3) -0.001(3) 0.009(3) 0.004(3)
 
_geom_special_details
;
 All esds (except the esd in the dihedral angle between two l.s. planes)
 are estimated using the full covariance matrix.  The cell esds are taken
 into account individually in the estimation of esds in distances, angles
 and torsion angles; correlations between esds in cell parameters are only
 used when they are defined by crystal symmetry.  An approximate (isotropic)
 treatment of cell esds is used for estimating esds involving l.s. planes.
;
 
loop_
 _geom_bond_atom_site_label_1
 _geom_bond_atom_site_label_2
 _geom_bond_distance
 _geom_bond_site_symmetry_2
 _geom_bond_publ_flag
Zn1 O1 1.910(5) 4_665 ?
Zn1 O3 1.937(5) . ?
Zn1 N5 2.027(6) . ?
Zn1 N4 2.028(6) 1_455 ?
O1 C20 1.278(8) . ?
O2 C20 1.244(8) . ?
O3 C13 1.274(8) . ?
O4 N1 1.422(9) . ?
O4 N7 1.428(11) . ?
O5 C13 1.234(8) . ?
N1 C9 1.226(9) . ?
N3 C3 1.361(8) . ?
N3 C1 1.385(9) . ?
N3 C4 1.428(8) . ?
N4 C3 1.292(9) . ?
N4 C2 1.384(9) . ?
N5 C10 1.309(9) . ?
N5 C12 1.364(8) . ?
N6 C10 1.346(8) . ?
N6 C11 1.385(9) . ?
N6 C6 1.415(8) . ?
N7 C8 1.313(9) . ?
C1 C2 1.371(10) . ?
C4 C5 1.352(9) . ?
C4 C9 1.421(9) . ?
C5 C6 1.412(9) . ?
C6 C7 1.418(9) . ?
C7 C8 1.376(10) . ?
C8 C9 1.444(10) . ?
C11 C12 1.372(9) . ?
C13 C14 1.516(8) . ?
C14 C15 1.371(9) . ?
C14 C19 1.396(9) . ?
C15 C16 1.395(9) . ?
C16 C17 1.394(8) . ?
C17 C18 1.416(8) . ?
C17 C20 1.492(9) . ?
C18 C19 1.379(8) . ?
 
loop_
 _geom_angle_atom_site_label_1
 _geom_angle_atom_site_label_2
 _geom_angle_atom_site_label_3
 _geom_angle
 _geom_angle_site_symmetry_1
 _geom_angle_site_symmetry_3
 _geom_angle_publ_flag
O1 Zn1 O3 96.8(2) 4_665 . ?
O1 Zn1 N5 113.1(2) 4_665 . ?
O3 Zn1 N5 121.5(2) . . ?
O1 Zn1 N4 116.1(2) 4_665 1_455 ?
O3 Zn1 N4 110.5(2) . 1_455 ?
N5 Zn1 N4 99.9(2) . 1_455 ?
C20 O1 Zn1 121.8(4) . 4_566 ?
C13 O3 Zn1 115.9(5) . . ?
N1 O4 N7 111.5(6) . . ?
C9 N1 O4 105.2(7) . . ?
C3 N3 C1 107.3(6) . . ?
C3 N3 C4 124.3(6) . . ?
C1 N3 C4 128.3(6) . . ?
C3 N4 C2 107.1(6) . . ?
C3 N4 Zn1 123.7(5) . 1_655 ?
C2 N4 Zn1 127.6(5) . 1_655 ?
C10 N5 C12 107.6(6) . . ?
C10 N5 Zn1 122.0(5) . . ?
C12 N5 Zn1 129.6(5) . . ?
C10 N6 C11 107.2(6) . . ?
C10 N6 C6 123.6(6) . . ?
C11 N6 C6 129.0(6) . . ?
C8 N7 O4 101.1(7) . . ?
C2 C1 N3 105.4(6) . . ?
C1 C2 N4 109.0(6) . . ?
N4 C3 N3 111.2(6) . . ?
C5 C4 C9 118.6(6) . . ?
C5 C4 N3 121.1(6) . . ?
C9 C4 N3 120.1(6) . . ?
C4 C5 C6 121.8(6) . . ?
C5 C6 N6 118.0(6) . . ?
C5 C6 C7 122.5(6) . . ?
N6 C6 C7 119.4(6) . . ?
C8 C7 C6 114.9(7) . . ?
N7 C8 C7 125.3(7) . . ?
N7 C8 C9 110.9(7) . . ?
C7 C8 C9 123.8(7) . . ?
N1 C9 C4 130.5(8) . . ?
N1 C9 C8 111.1(7) . . ?
C4 C9 C8 118.4(6) . . ?
N5 C10 N6 110.8(6) . . ?
C12 C11 N6 105.9(6) . . ?
N5 C12 C11 108.6(6) . . ?
O5 C13 O3 126.1(6) . . ?
O5 C13 C14 119.4(6) . . ?
O3 C13 C14 114.5(6) . . ?
C15 C14 C19 120.5(6) . . ?
C15 C14 C13 119.5(6) . . ?
C19 C14 C13 120.0(6) . . ?
C14 C15 C16 120.0(6) . . ?
C17 C16 C15 120.6(6) . . ?
C16 C17 C18 118.8(6) . . ?
C16 C17 C20 120.6(6) . . ?
C18 C17 C20 120.3(6) . . ?
C19 C18 C17 120.0(6) . . ?
C18 C19 C14 120.2(6) . . ?
O2 C20 O1 123.4(6) . . ?
O2 C20 C17 120.5(6) . . ?
O1 C20 C17 116.1(6) . . ?
 
_refine_diff_density_max    2.480
_refine_diff_density_min   -1.147
_refine_diff_density_rms    0.139

_shelx_res_file
;
TITL vv-3_a.res in P2(1)/n
    vv-3_a.res
    created by SHELXL-2018/3 at 11:06:10 on 26-Dec-2022
REM Old TITL vv-3 in P2(1)/n
REM SHELXT solution in P2(1)/n: R1 0.153, Rweak 0.014, Alpha 0.052
REM <I/s>   0.620 for  157 systematic absences,  Orientation as input
REM Formula found by SHELXT:  C23 N6 O2 Zn
CELL  0.71073  10.2290  15.1128  12.8151   90.000  107.850   90.000
ZERR   24.000   0.0007   0.0010   0.0008    0.000    0.002    0.000
LATT  1
SYMM 1/2-X, 1/2+Y, 1/2-Z
SFAC C H N O ZN
UNIT 24 24 24 24 24
ACTA
TEMP -123.150
L.S. 10
BOND
LIST 6
FMAP 2
PLAN 20
WGHT    0.100000
FVAR       0.25951
ZN1   5    0.231465    0.438765    0.261767    11.00000    0.02762    0.01883 =
         0.03405   -0.00017    0.01612   -0.00134
O1    4   -0.217500    0.138636    0.663022    11.00000    0.05478    0.02607 =
         0.04902    0.00360    0.03435   -0.00086
O2    4   -0.156205    0.030421    0.570466    11.00000    0.03668    0.02683 =
         0.03791   -0.00056    0.01676   -0.00374
O3    4    0.171637    0.347707    0.343239    11.00000    0.04829    0.03382 =
         0.04658   -0.00083    0.03505   -0.00664
O4    4    0.831052    0.900607    0.203207    11.00000    0.06489    0.04898 =
         0.12451    0.01979    0.01875    0.00147
O5    4    0.137699    0.450360    0.457926    11.00000    0.03973    0.02250 =
         0.04975   -0.00428    0.02232   -0.00444
N1    3    0.878518    0.815638    0.183666    11.00000    0.05156    0.03742 =
         0.08081   -0.00554    0.02083   -0.00263
N3    3    0.916231    0.621836    0.188580    11.00000    0.02501    0.02277 =
         0.03537   -0.00017    0.00413   -0.00295
N4    3    1.075783    0.524010    0.193073    11.00000    0.03104    0.02372 =
         0.03908   -0.00285    0.00954   -0.00014
N5    3    0.381364    0.525910    0.337040    11.00000    0.02670    0.02506 =
         0.02973   -0.00040    0.01500    0.00293
N6    3    0.544242    0.622405    0.348292    11.00000    0.02736    0.01899 =
         0.03286   -0.00164    0.00785   -0.00208
N7    3    0.736156    0.894637    0.264660    11.00000    0.04004    0.01961 =
         0.11109    0.00735    0.03371   -0.00183
C1    1    0.961909    0.640535    0.099818    11.00000    0.03659    0.03212 =
         0.03605    0.01163    0.00563    0.00057
AFIX  43
H1    2    0.931073    0.686544    0.047523    11.00000   -1.20000
AFIX   0
C2    1    1.061087    0.578549    0.103435    11.00000    0.03192    0.04102 =
         0.03644   -0.00026    0.01572   -0.00590
AFIX  43
H2    2    1.111581    0.573802    0.052604    11.00000   -1.20000
AFIX   0
C3    1    0.988831    0.550727    0.241155    11.00000    0.02650    0.02353 =
         0.03710   -0.00403    0.01312   -0.00232
AFIX  43
H3    2    0.977092    0.524202    0.304897    11.00000   -1.20000
AFIX   0
C4    1    0.817874    0.669071    0.225533    11.00000    0.02530    0.01971 =
         0.03232   -0.00266    0.00351    0.00206
C5    1    0.732452    0.626249    0.270700    11.00000    0.02341    0.01406 =
         0.03835    0.00248    0.00356   -0.00369
AFIX  43
H5    2    0.734653    0.563444    0.273872    11.00000   -1.20000
AFIX   0
C6    1    0.640050    0.672377    0.313283    11.00000    0.02689    0.02125 =
         0.02870   -0.00152   -0.00009   -0.00500
C7    1    0.636269    0.766041    0.317509    11.00000    0.04130    0.02792 =
         0.02811    0.00135    0.01323    0.00091
AFIX  43
H7    2    0.577776    0.797097    0.349878    11.00000   -1.20000
AFIX   0
C8    1    0.723772    0.808524    0.271157    11.00000    0.04496    0.02092 =
         0.03625    0.00004    0.01280    0.00233
C9    1    0.815141    0.763040    0.222769    11.00000    0.03615    0.02175 =
         0.02931    0.00961    0.00542   -0.00982
C10   1    0.468400    0.556342    0.289232    11.00000    0.03357    0.02402 =
         0.03490   -0.00587    0.00834   -0.00150
AFIX  43
H10   2    0.476875    0.534732    0.221991    11.00000   -1.20000
AFIX   0
C11   1    0.500470    0.634837    0.439375    11.00000    0.03044    0.02373 =
         0.03852   -0.00406    0.01380    0.00414
AFIX  43
H11   2    0.533814    0.677225    0.496060    11.00000   -1.20000
AFIX   0
C12   1    0.399089    0.573366    0.430898    11.00000    0.03301    0.02543 =
         0.03825   -0.00004    0.01292    0.00528
AFIX  43
H12   2    0.349502    0.565207    0.481881    11.00000   -1.20000
AFIX   0
C13   1    0.125929    0.374800    0.419567    11.00000    0.02062    0.02969 =
         0.03134    0.00438    0.01354   -0.00112
C14   1    0.049805    0.305303    0.463620    11.00000    0.02331    0.03259 =
         0.02085    0.00024    0.00850   -0.00574
C15   1   -0.041943    0.331241    0.516397    11.00000    0.02660    0.02456 =
         0.02209    0.00000    0.00693    0.00606
AFIX  43
H15   2   -0.057463    0.392388    0.525110    11.00000   -1.20000
AFIX   0
C16   1   -0.112448    0.267802    0.557271    11.00000    0.03041    0.02643 =
         0.02133   -0.00230    0.01136    0.00624
AFIX  43
H16   2   -0.175565    0.286027    0.594115    11.00000   -1.20000
AFIX   0
C17   1   -0.091082    0.177881    0.544515    11.00000    0.02674    0.01901 =
         0.02026    0.00040    0.00455   -0.00145
C18   1    0.006031    0.152167    0.491830    11.00000    0.02511    0.02264 =
         0.03206   -0.00429    0.01463    0.00232
AFIX  43
H18   2    0.024715    0.091231    0.485008    11.00000   -1.20000
AFIX   0
C19   1    0.073479    0.215628    0.450426    11.00000    0.02483    0.02246 =
         0.03471   -0.00021    0.01782   -0.00260
AFIX  43
H19   2    0.136222    0.198276    0.412823    11.00000   -1.20000
AFIX   0
C20   1   -0.159348    0.109963    0.594450    11.00000    0.02791    0.02223 =
         0.02677   -0.00086    0.00878    0.00420
HKLF 4




REM  vv-3_a.res in P2(1)/n
REM wR2 = 0.2856, GooF = S = 1.916, Restrained GooF = 1.916 for all data
REM R1 = 0.0865 for 3124 Fo > 4sig(Fo) and 0.1130 for all 4166 data
REM 289 parameters refined using 0 restraints

END

WGHT      0.0522     22.9876

REM Highest difference peak  2.480,  deepest hole -1.147,  1-sigma level  0.139
Q1    1   0.6591  0.9018  0.3537  11.00000  0.05    2.48
Q2    1   0.6074  0.8209  0.3730  11.00000  0.05    1.86
Q3    1   0.2535  0.4267  0.2259  11.00000  0.05    1.02
Q4    1   0.7606  0.8064  0.2436  11.00000  0.05    0.72
Q5    1  -0.1634  0.0657  0.6827  11.00000  0.05    0.61
Q6    1  -0.1654  0.1549  0.6828  11.00000  0.05    0.56
Q7    1   0.6646  0.7584  0.2765  11.00000  0.05    0.55
Q8    1   0.7492  0.8792  0.2339  11.00000  0.05    0.55
Q9    1   0.1556  0.4385  0.3228  11.00000  0.05    0.53
Q10   1   0.3010  0.4411  0.3211  11.00000  0.05    0.53
Q11   1   0.6659  0.6552  0.2607  11.00000  0.05    0.52
Q12   1   0.8550  0.6582  0.2094  11.00000  0.05    0.52
Q13   1   0.0737  0.3212  0.4434  11.00000  0.05    0.51
Q14   1   0.0386  0.1954  0.4779  11.00000  0.05    0.49
Q15   1   0.8360  0.7599  0.1885  11.00000  0.05    0.49
Q16   1  -0.1614  0.0412  0.5246  11.00000  0.05    0.48
Q17   1  -0.0991  0.0436  0.5801  11.00000  0.05    0.47
Q18   1  -0.0566  0.2011  0.5546  11.00000  0.05    0.46
Q19   1   0.2373  0.3908  0.3625  11.00000  0.05    0.45
Q20   1   0.9943  0.6361  0.0659  11.00000  0.05    0.45
;
_shelx_res_checksum   28167

_shelx_hkl_file
;
  -1   0   0   -0.50    0.30
  -2   0   0  146.29    7.30
   2   0   0  165.98    7.70
  -2   0   0  145.69    7.20
   2   0   0  151.18    7.20
  -3   0   0    2.00    1.20
   3   0   0    0.70    1.00
  -3   0   0    1.60    1.20
   3   0   0    0.00    0.80
  -4   0   0   32.40    3.00
   4   0   0   39.60    3.20
  -4   0   0   32.60    3.20
   4   0   0   39.10    3.00
  -5   0   0    0.50    1.50
   5   0   0    1.40    1.30
   5   0   0    1.60    1.30
  -5   0   0    1.00    1.40
   6   0   0  108.89    7.00
  -6   0   0  103.89    6.70
   6   0   0  100.69    6.50
  -6   0   0  110.09    7.10
  -7   0   0    2.40    2.70
   7   0   0    1.60    2.10
  -7   0   0   -0.90    4.10
  -8   0   0  100.59    7.70
   8   0   0  110.89    7.60
   9   0   0    1.10    2.80
  -9   0   0   -0.90    2.90
  -9   0   0   -4.20    2.30
 -10   0   0   38.90    6.60
 -10   0   0   42.10    6.40
  10   0   0   40.90    5.20
 -11   0   0    3.20    3.70
  11   0   0   -4.20    4.70
 -12   0   0    9.80    4.90
  12   0   0    7.10   11.70
  -1  -1   0    7.60    1.00
  -1   1   0    7.10    1.10
   1   1   0    6.50    0.90
   1   1   0    6.70    1.00
  -2  -1   0   35.50    2.50
  -2  -1   0   35.50    2.60
  -2   1   0   36.10    2.50
  -2   1   0   38.70    2.40
   2   1   0   35.80    2.50
  -3  -1   0    2.30    1.20
  -3  -1   0    2.10    1.20
   3  -1   0    2.50    1.20
   3   1   0    3.30    1.30
  -3   1   0    2.10    1.10
  -3   1   0    1.90    1.10
   3   1   0    0.70    1.10
  -4  -1   0   11.20    2.00
   4  -1   0   10.80    1.90
  -4  -1   0   11.50    2.30
  -4   1   0    9.40    1.90
  -4   1   0    8.90    1.90
   4   1   0   11.00    1.90
   4   1   0    7.20    1.80
  -5  -1   0   22.00    2.80
   5  -1   0   20.40    3.20
  -5  -1   0   24.00    3.00
   5  -1   0   20.40    2.80
   5   1   0   20.80    2.80
  -5   1   0   22.60    3.20
  -5   1   0   22.60    3.00
   5   1   0   16.70    2.60
   6  -1   0   16.50    2.70
   6  -1   0   18.10    3.00
  -6  -1   0   13.90    2.50
  -6  -1   0   20.00    3.10
  -6   1   0   21.10    3.10
   6   1   0   16.40    3.00
   6   1   0   18.00    2.80
  -6   1   0   13.40    2.90
  -7  -1   0  225.38   12.60
   7  -1   0  231.48   12.50
  -7  -1   0  248.58   13.20
  -7   1   0  235.98   12.60
   7   1   0  220.08   12.40
  -7   1   0  236.98   13.00
  -8  -1   0    3.60    3.30
   8  -1   0   -1.10    2.90
  -8  -1   0   -0.80    2.00
  -8   1   0    2.50    2.70
  -8   1   0   -4.00    2.90
   8   1   0    2.70    2.50
  -9  -1   0   33.70    5.60
  -9  -1   0   42.60    5.30
  -9   1   0   27.80    4.70
  -9   1   0   35.60    5.20
   9   1   0   37.30    5.00
 -10  -1   0   -1.50    2.70
 -10  -1   0   -1.80    3.90
  10   1   0    1.00    4.00
 -10   1   0   12.70    4.50
 -10   1   0   -4.10    2.40
 -11  -1   0   34.20    6.20
 -11  -1   0   53.19    8.40
  11   1   0   28.60    6.20
 -11   1   0   32.80    6.10
 -11   1   0   40.70    6.40
 -12  -1   0    5.90    4.10
  12  -1   0   14.90    7.50
 -12   1   0    5.50    4.20
  12   1   0   -2.90    7.20
   0  -2   0  204.98    9.40
   0  -2   0  199.08    8.90
   0   2   0  199.38    9.00
   0   2   0  200.58    9.30
  -1  -2   0 1507.05   66.09
   1  -2   0 1482.05   65.69
  -1  -2   0 1604.44   65.89
   1   2   0 1563.14   65.89
   1   2   0 1494.15   65.99
  -1   2   0 1539.35   66.29
  -1   2   0 1520.15   65.69
   2  -2   0  162.88    7.60
  -2  -2   0  170.48    8.20
  -2  -2   0  161.28    8.00
  -2   2   0  167.58    7.70
  -2   2   0  168.08    8.40
   2   2   0  156.38    7.90
   2   2   0  160.58    8.10
  -3  -2   0  239.08   11.60
  -3  -2   0  239.58   11.40
   3   2   0  249.08   11.60
   3   2   0  227.48   11.40
  -3   2   0  228.68   11.40
  -3   2   0  239.48   11.20
  -4  -2   0  181.08   11.20
  -4  -2   0  173.38    9.40
   4   2   0  169.28    9.20
   4   2   0  187.68    9.20
  -4   2   0  175.48    8.90
  -4   2   0  168.58    9.10
  -5  -2   0   47.90    4.10
  -5  -2   0   49.30    4.30
   5   2   0   53.49    4.20
  -5   2   0   51.69    4.20
   5   2   0   44.30    4.00
  -5   2   0   51.29    3.90
  -6  -2   0   51.29    4.60
  -6  -2   0   57.09    4.80
   6   2   0   50.49    4.40
  -6   2   0   48.30    4.20
  -6   2   0   55.19    4.70
   6   2   0   45.30    4.30
  -7  -2   0    3.70    2.60
  -7  -2   0    4.20    2.70
  -7   2   0    6.60    2.50
  -7   2   0   11.30    2.90
   7   2   0    6.70    2.60
  -8  -2   0   70.09    6.30
  -8  -2   0   74.39    6.70
  -8   2   0   71.39    6.40
   8   2   0   73.89    6.50
  -8   2   0   64.79    5.90
  -9  -2   0   26.80    4.90
   9  -2   0   15.20    3.50
  -9  -2   0   26.70    4.60
   9   2   0   23.50    5.30
  -9   2   0   26.80    4.50
  -9   2   0   20.40    3.90
  10  -2   0   12.10    4.00
 -10  -2   0    8.60    4.20
 -10  -2   0    7.60    4.40
  10   2   0    6.70    5.00
 -10   2   0    9.50    3.90
 -10   2   0    8.50    4.70
 -11  -2   0    9.20    8.50
  11  -2   0    7.00    5.60
 -11  -2   0    5.20    4.20
 -11   2   0    0.20    4.00
 -11   2   0   -3.60    5.00
  11   2   0   -4.40    5.60
 -12  -2   0   12.50    5.30
  12   2   0   -8.50    6.90
 -12   2   0    5.20    4.40
   0  -3   0   -0.20    0.90
   0  -3   0    0.20    0.30
   0  -3   0    0.00    0.70
   0   3   0    1.10    0.70
   0   3   0   -0.40    0.80
   1  -3   0   14.90    2.20
   1  -3   0   10.30    1.20
  -1  -3   0   13.10    1.80
  -1  -3   0   16.30    2.30
  -1   3   0   11.30    1.30
  -1   3   0   14.20    2.10
   1   3   0   11.50    1.60
   2  -3   0  260.97   11.60
  -2  -3   0  241.98   12.20
  -2  -3   0  253.37   12.10
   2  -3   0  263.77   12.70
   2   3   0  261.87   12.30
  -2   3   0  259.47   12.60
   2   3   0  252.77   12.00
  -2   3   0  257.67   11.70
   3  -3   0   46.90    2.90
  -3  -3   0   44.20    3.50
  -3  -3   0   44.10    3.40
  -3   3   0   46.30    3.10
   3   3   0   42.10    3.30
   3   3   0   44.50    3.40
  -3   3   0   46.90    3.90
  -4  -3   0   35.90    3.30
   4  -3   0   37.30    2.90
  -4  -3   0   41.20    3.70
  -4   3   0   38.20    3.80
  -4   3   0   35.00    3.20
   4   3   0   36.10    3.30
  -4   3   0   33.70    2.90
  -5  -3   0   24.20    3.40
   5  -3   0   23.30    2.60
  -5  -3   0   22.80    3.00
   5   3   0   18.70    3.00
  -5   3   0   27.50    3.10
  -5   3   0   26.70    3.30
   5   3   0   27.50    3.20
  -6  -3   0    8.70    2.70
   6  -3   0    9.60    2.10
  -6  -3   0    5.20    2.40
  -6   3   0    7.80    2.40
  -6   3   0   12.10    2.80
   6   3   0   10.00    2.30
   6   3   0    5.90    2.20
  -6   3   0    4.20    2.40
  -7  -3   0   10.00    3.10
  -7  -3   0    7.10    3.00
   7  -3   0   16.40    2.90
   7   3   0   10.10    2.80
  -7   3   0   12.20    3.20
  -8  -3   0   65.59    6.60
  -8  -3   0   56.89    6.00
   8  -3   0   66.29    5.80
  -8   3   0   62.79    5.80
  -8   3   0   65.09    6.10
   8   3   0   69.19    6.30
   9  -3   0   69.59    6.40
  -9  -3   0   64.99    6.90
  -9  -3   0   59.69    7.10
  -9   3   0   65.49    6.60
  -9   3   0   69.59    6.80
   9   3   0   66.69    6.90
 -10  -3   0  116.09   10.10
  10  -3   0  131.89    9.50
 -10  -3   0  144.29   14.60
 -10   3   0  133.09   10.00
 -10   3   0  124.49    9.90
  10   3   0  144.39   10.20
  11  -3   0   -5.50    6.50
 -11  -3   0  -11.20    5.20
 -11  -3   0   -1.30    4.00
 -11   3   0    0.80    3.00
 -11   3   0   -9.20    4.80
  11   3   0   -2.20    5.60
 -12  -3   0   -3.10    4.10
 -12   3   0   -6.40    3.70
  12   3   0  -11.20    5.60
   0  -4   0 1177.88   50.39
   0  -4   0 1159.38   50.39
   0  -4   0 1160.58   51.19
   0   4   0 1160.08   50.39
   0   4   0 1162.58   51.19
   1  -4   0  409.76   18.40
   1  -4   0  430.66   18.50
  -1  -4   0  428.56   18.80
   1  -4   0  418.66   19.50
  -1  -4   0  413.16   19.30
   1   4   0  416.66   19.20
  -1   4   0  413.56   18.50
   1   4   0  425.76   18.80
  -1   4   0  398.16   19.40
  -2  -4   0    6.50    1.50
   2  -4   0    8.20    1.30
   2  -4   0    9.50    2.00
  -2  -4   0    7.90    1.90
  -2   4   0   10.60    2.20
   2   4   0   10.40    1.90
  -2   4   0    8.50    1.40
   2   4   0    5.10    1.40
   3  -4   0  825.02   34.60
   3  -4   0  776.02   36.00
  -3  -4   0  796.32   35.20
  -3  -4   0  779.42   35.50
  -3   4   0  785.92   34.70
   3   4   0  774.92   35.40
   3   4   0  799.72   35.20
  -3   4   0  770.12   36.00
   4  -4   0  266.77   12.50
  -4  -4   0  260.27   13.50
  -4  -4   0  257.37   13.10
   4   4   0  261.57   13.20
  -4   4   0  268.97   12.70
  -4   4   0  258.67   14.00
   4   4   0  275.97   13.20
  -5  -4   0   92.39    6.30
  -5  -4   0   94.69    6.70
   5  -4   0   97.89    5.60
  -5   4   0   92.89    7.00
  -5   4   0   99.29    6.40
  -5   4   0  102.19    5.90
   5   4   0   96.79    6.40
   6  -4   0    3.90    1.60
  -6  -4   0    7.60    2.40
  -6  -4   0    6.50    2.40
   6   4   0    6.30    2.30
   6   4   0    3.40    2.00
  -6   4   0    6.20    2.10
  -6   4   0    8.50    2.00
  -7  -4   0  137.99   10.90
  -7  -4   0  161.08   10.00
   7  -4   0  173.28    9.20
  -7   4   0  161.28    9.90
  -7   4   0  159.98    9.50
   7   4   0  169.88    9.90
   8  -4   0    4.30    2.70
  -8  -4   0   -0.20    2.60
  -8  -4   0   -2.80    2.70
  -8   4   0    0.20    2.80
   8   4   0    1.30    2.60
  -8   4   0    0.70    2.00
  -9  -4   0   44.70    6.60
  -9  -4   0   70.79   10.50
   9  -4   0   64.59    7.50
  -9   4   0   66.79    6.60
  -9   4   0   58.89    6.50
   9   4   0   78.69    7.60
 -10  -4   0    5.30    5.20
 -10  -4   0    3.90    3.90
  10  -4   0    7.20    4.80
 -10   4   0    8.00    3.80
 -10   4   0    8.50    4.30
  10   4   0    0.30    4.10
 -11  -4   0   -7.50    3.50
  11  -4   0   -7.70    5.20
  11   4   0    4.00    5.20
 -11   4   0   -2.30    4.60
 -11   4   0    1.80    3.30
 -12  -4   0    9.50    4.90
  12   4   0   -4.50    6.50
 -12   4   0   -0.30    3.50
   0  -5   0   -0.10    0.70
   0  -5   0    2.10    1.30
   0  -5   0    1.40    0.90
   0   5   0    2.70    1.40
   0   5   0    1.10    1.00
   1  -5   0    2.00    1.50
  -1  -5   0    1.90    1.20
  -1  -5   0    0.90    1.30
   1  -5   0    0.60    0.70
   1  -5   0    0.80    0.80
  -1   5   0    1.90    1.30
   1   5   0    3.40    1.40
  -1   5   0    2.90    1.10
   1   5   0    2.60    1.50
  -2  -5   0   29.20    3.90
  -2  -5   0   20.30    2.30
   2  -5   0   20.80    1.90
   2  -5   0   18.70    2.90
   2   5   0   21.10    2.60
   2   5   0   23.20    2.70
  -2   5   0   27.40    3.60
  -2   5   0   21.50    2.00
   3  -5   0   40.40    2.70
   3  -5   0   35.70    3.90
  -3  -5   0   32.70    3.10
  -3  -5   0   43.00    3.90
   3   5   0   38.90    3.50
   3   5   0   37.20    3.40
  -3   5   0   38.40    3.80
  -3   5   0   38.70    2.90
  -4  -5   0   37.10    3.50
  -4  -5   0   38.50    3.90
   4  -5   0   38.30    2.90
   4   5   0   38.00    3.70
  -4   5   0   32.90    3.10
  -4   5   0   34.20    3.80
   4   5   0   45.00    3.80
   5  -5   0   48.00    3.70
  -5  -5   0   50.19    4.70
  -5  -5   0   46.40    4.30
   5   5   0   48.20    4.50
  -5   5   0   48.60    4.90
   5   5   0   54.09    4.60
  -5   5   0   49.90    4.00
  -5   5   0   57.29    4.70
  -6  -5   0  205.88   12.10
  -6  -5   0  192.38   11.40
   6  -5   0  224.08   12.50
   6   5   0  203.78   11.50
  -6   5   0  205.48   11.70
  -6   5   0  211.48   11.00
   7  -5   0   -3.80    3.40
  -7  -5   0    2.50    2.60
  -7  -5   0   -0.80    2.00
  -7   5   0   -0.40    1.90
  -7   5   0    1.30    2.10
   7   5   0    1.90    2.30
  -8  -5   0   79.49    8.50
   8  -5   0   94.09    6.70
  -8  -5   0   83.29    7.80
  -8   5   0   92.09    7.40
  -8   5   0   96.39    7.00
   8   5   0   78.89    7.50
  -9  -5   0   24.20    4.80
  -9  -5   0   23.10    5.30
   9  -5   0   26.70    4.30
  -9   5   0   17.60    3.80
   9   5   0   29.30    5.20
  -9   5   0   20.50    4.40
 -10  -5   0  122.29   10.10
  10  -5   0  135.59    9.50
  10   5   0  120.59    9.90
 -10   5   0  105.49    9.50
 -10   5   0  126.29    9.80
  11  -5   0   -0.40    5.90
 -11  -5   0    4.40    4.20
 -11   5   0   -3.00    4.40
 -11   5   0    2.10    4.30
  11   5   0   -4.00    4.20
 -12  -5   0   31.20    6.40
 -12   5   0   21.50    5.90
  12   5   0   13.40    7.20
   0  -6   0   24.80    2.30
   0  -6   0   28.40    2.30
   0  -6   0   31.20    3.30
   0   6   0   24.70    2.40
   0   6   0   32.60    3.20
   1  -6   0    6.40    1.30
  -1  -6   0    8.20    1.60
   1  -6   0    5.30    1.20
  -1  -6   0    8.60    2.30
   1  -6   0    6.70    2.20
   1   6   0    5.80    2.10
   1   6   0    5.40    1.70
  -1   6   0    5.60    1.80
  -1   6   0   10.10    1.50
   2  -6   0  370.56   16.80
  -2  -6   0  373.76   17.40
  -2  -6   0  389.86   18.30
   2  -6   0  379.26   18.60
   2  -6   0  369.46   16.80
   2   6   0  368.86   18.00
   2   6   0  382.06   17.50
  -2   6   0  347.27   18.30
  -2   6   0  373.66   17.00
  -3  -6   0  691.83   32.00
   3  -6   0  683.63   32.40
  -3  -6   0  684.73   31.30
  -3   6   0  656.03   32.20
   3   6   0  721.73   31.40
  -3   6   0  692.33   30.80
   3   6   0  700.93   31.70
   4  -6   0   97.89    5.30
   4  -6   0   87.69    6.90
  -4  -6   0   86.19    6.50
  -4  -6   0   90.29    5.90
   4   6   0   93.09    6.10
  -4   6   0   93.99    5.50
  -4   6   0   85.39    6.60
   4   6   0   97.29    7.00
   5  -6   0    5.40    1.60
  -5  -6   0    3.30    2.20
  -5  -6   0    4.80    2.10
  -5   6   0    7.60    2.30
   5   6   0    8.10    2.40
   5   6   0    3.70    1.90
  -5   6   0    6.70    2.70
  -6  -6   0   83.69    6.40
  -6  -6   0   79.59    6.80
   6  -6   0   84.99    5.30
   6   6   0   87.19    6.50
  -6   6   0   78.59    5.70
  -7  -6   0   10.70    4.10
   7  -6   0   10.70    2.70
  -7  -6   0   15.10    3.40
  -7   6   0   11.10    3.20
  -7   6   0   10.50    3.00
   7   6   0   15.40    3.20
   8  -6   0   21.30    3.40
  -8  -6   0   16.60    3.90
  -8  -6   0   24.80    4.70
   8   6   0   23.80    4.60
  -8   6   0   16.50    4.30
  -8   6   0   22.30    4.20
  -9  -6   0   22.10    5.30
   9  -6   0   25.00    4.30
   9   6   0   23.80    5.50
  -9   6   0   19.20    4.40
  -9   6   0   23.30    4.30
  10  -6   0    6.30    4.30
 -10  -6   0    8.90    4.10
  10   6   0    8.60    4.60
 -10   6   0   10.50    3.80
 -10   6   0    9.80    4.20
  11  -6   0    3.70    7.30
  11   6   0   -9.80    5.20
 -11   6   0   -0.30    4.60
 -11   6   0   12.70    4.30
   0  -7   0    1.50    1.00
   0  -7   0    1.50    1.20
   0  -7   0    1.30    1.50
   0   7   0   -0.20    0.90
   0   7   0    0.20    1.20
   1  -7   0   41.20    4.90
   1  -7   0   24.30    2.20
   1  -7   0   21.70    2.10
  -1  -7   0   30.30    4.00
  -1  -7   0   24.10    2.40
  -1   7   0   28.00    3.40
  -1   7   0   21.60    2.30
   1   7   0   22.90    2.70
   1   7   0   32.20    4.00
   2  -7   0   40.50    5.60
  -2  -7   0   21.70    2.80
  -2  -7   0   28.70    4.10
   2  -7   0   21.10    2.00
   2   7   0   28.30    3.70
  -2   7   0   35.80    4.70
  -2   7   0   19.00    2.20
   2   7   0   25.30    2.80
  -3  -7   0   13.90    2.20
  -3  -7   0   12.10    2.80
   3  -7   0   13.90    2.00
   3  -7   0   10.90    3.10
   3   7   0   11.90    2.40
  -3   7   0   11.50    2.80
   3   7   0    9.10    2.10
  -3   7   0   16.30    2.30
   4  -7   0   34.90    2.90
  -4  -7   0   28.00    3.40
  -4  -7   0   36.10    4.90
   4  -7   0   49.50    6.40
   4   7   0   31.00    3.70
   4   7   0   36.10    3.70
  -4   7   0   37.10    4.20
  -4   7   0   31.50    3.20
  -5  -7   0  167.58   11.60
  -5  -7   0  190.38   11.50
   5  -7   0  188.88    9.50
   5   7   0  185.28   10.80
   5   7   0  203.38   12.00
  -5   7   0  196.18   10.10
  -6  -7   0   16.30    4.40
   6  -7   0   20.70    2.70
  -6  -7   0   13.80    3.00
   6   7   0   17.90    3.70
  -6   7   0   19.40    3.30
  -6   7   0   22.40    4.20
   7  -7   0   24.80    3.40
  -7  -7   0   30.10    6.10
  -7  -7   0   18.30    3.90
  -7   7   0   25.90    3.90
   7   7   0   19.70    4.10
  -7   7   0   24.90    4.20
   8  -7   0    2.90    2.60
  -8  -7   0    1.60    3.30
   8   7   0   -0.70    3.70
  -8   7   0    6.00    3.30
  -8   7   0    6.30    2.70
   9  -7   0  123.89    8.50
  -9  -7   0  136.89   10.50
  -9   7   0  119.19    9.20
  -9   7   0  137.79    9.70
   9   7   0  127.69   10.20
 -10  -7   0   52.59    7.70
  10  -7   0   67.09    7.80
  10   7   0   50.29    7.50
 -10   7   0   55.89    7.10
 -10   7   0   64.39    7.40
 -11  -7   0   55.29    8.00
 -11   7   0   52.69    7.50
  11   7   0   45.20    8.00
 -11   7   0   45.80    6.40
   0  -8   0  310.37   16.30
   0  -8   0  301.57   14.60
   0  -8   0  317.37   14.70
   0   8   0  306.07   16.00
   0   8   0  316.37   14.90
  -1  -8   0  619.24   30.00
   1  -8   0  643.74   28.30
   1  -8   0  613.94   30.10
  -1  -8   0  654.53   28.60
  -1  -8   0  622.74   28.60
   1   8   0  617.44   29.70
  -1   8   0  639.84   28.50
   1   8   0  632.74   28.70
   2  -8   0  138.19    7.00
   2  -8   0  141.29    7.10
   2  -8   0  134.39    9.00
  -2  -8   0  140.89    8.80
  -2   8   0  125.89    8.70
  -2   8   0  134.59    7.30
   2   8   0  146.29    8.00
   3  -8   0   16.80    3.80
  -3  -8   0   13.00    3.50
   3  -8   0   14.60    2.00
  -3  -8   0   13.60    2.40
   3  -8   0   11.20    1.70
  -3   8   0   12.30    2.40
   3   8   0   19.30    3.10
  -3   8   0   12.40    2.70
   3   8   0   17.20    2.80
  -4  -8   0  159.28   10.00
   4  -8   0  154.98    7.90
  -4  -8   0  145.99    8.70
   4  -8   0  155.28   10.20
   4   8   0  155.78    9.00
  -4   8   0  152.78    8.30
   4   8   0  151.98    9.40
  -5  -8   0   39.40    5.50
   5  -8   0   37.00    3.10
  -5  -8   0   34.10    4.00
   5   8   0   38.30    4.60
  -5   8   0   32.40    3.60
   6  -8   0  124.99    7.00
  -6  -8   0  132.59   11.60
  -6  -8   0  114.59    9.10
   6   8   0  138.09    8.80
  -6   8   0  116.39    7.60
   7  -8   0    6.10    2.50
  -7  -8   0    7.10    3.40
  -7   8   0    5.60    2.40
  -7   8   0    7.20    2.60
   7   8   0    6.30    3.20
  -8  -8   0   20.90    5.10
   8  -8   0   27.50    3.70
  -8   8   0   17.80    4.40
   8   8   0   23.90    5.30
  -8   8   0   28.10    4.50
   9  -8   0    2.50    5.00
  -9  -8   0    6.20    3.80
  -9   8   0    0.30    2.90
   9   8   0   -0.90    3.90
  -9   8   0   -3.50    2.60
  10  -8   0    5.70    4.80
 -10  -8   0   15.60    5.40
 -10   8   0    1.50    3.60
  10   8   0   15.50    5.30
 -11  -8   0    3.50    5.00
  11   8   0    4.10    6.30
 -11   8   0   -3.90    3.70
 -11   8   0   11.90    6.90
   0  -9   0    2.40    1.30
   0  -9   0    1.20    2.10
   0  -9   0    0.40    1.00
   0   9   0    3.30    1.40
   0   9   0    1.50    1.80
   1  -9   0   17.30    2.30
   1  -9   0   19.20    4.20
   1  -9   0   14.70    2.10
  -1  -9   0   15.90    2.50
  -1  -9   0   12.00    2.20
  -1  -9   0   14.10    3.60
   1   9   0   20.50    3.90
   1   9   0   12.20    2.40
  -1   9   0   11.50    2.70
   2  -9   0    7.40    1.50
  -2  -9   0    7.50    2.00
   2  -9   0    6.50    1.60
  -2  -9   0    8.80    2.40
   2  -9   0   12.40    3.50
   2   9   0    5.60    1.80
  -2   9   0    8.80    2.10
   2   9   0   11.30    2.40
  -2   9   0    9.70    3.40
  -3  -9   0   52.39    4.30
   3  -9   0   54.79    5.70
  -3  -9   0   66.89    5.90
   3  -9   0   53.89    3.70
   3   9   0   58.99    5.30
   3   9   0   56.29    4.90
  -3   9   0   58.59    4.20
  -4  -9   0    4.70    2.40
   4  -9   0    6.20    1.70
  -4  -9   0    7.20    3.20
  -4   9   0    9.60    2.20
   4   9   0    3.80    2.10
   5  -9   0  247.48   15.00
   5  -9   0  234.78   11.70
  -5  -9   0  233.48   15.10
   5   9   0  241.08   13.30
  -5   9   0  248.28   12.60
   6  -9   0   13.20    2.50
  -6  -9   0   14.60    4.60
  -6   9   0   17.70    3.00
   6   9   0    9.40    3.40
  -7  -9   0   67.79    7.50
   7  -9   0   71.99    5.30
   7   9   0   62.89    6.80
  -7   9   0   81.79    7.30
  -7   9   0   61.29    5.70
  -8  -9   0   13.50    4.30
   8  -9   0   12.60    4.90
   8   9   0    9.80    3.80
  -8   9   0    4.40    3.10
  -8   9   0    6.20    3.10
   9  -9   0    0.60    4.10
  -9  -9   0    0.00    3.60
   9   9   0   10.80    4.90
  -9   9   0   -2.40    3.00
  -9   9   0   -1.70    2.80
 -10  -9   0    2.80    5.30
 -10   9   0    4.90    3.70
  10   9   0    7.50    7.00
 -10   9   0    3.70    3.90
 -11  -9   0   15.50    6.30
  11   9   0   30.00    8.10
 -11   9   0   22.80    4.90
   0 -10   0  462.25   21.10
   0 -10   0  478.25   23.50
   0  10   0  393.16   26.00
   0  10   0  457.05   21.30
  -1 -10   0   72.29    4.90
   1 -10   0   70.79    6.50
  -1 -10   0   73.29    6.60
   1 -10   0   69.79    4.50
   1  10   0   72.79    5.30
   2 -10   0   61.09    3.90
  -2 -10   0   62.89    6.10
   2 -10   0   56.89    5.90
   2  10   0   58.79    5.00
  -2  10   0   63.99    4.50
  -3 -10   0  116.99    8.40
   3 -10   0  100.29    5.80
  -3  10   0  105.29    6.40
   3  10   0  104.29    7.20
   4 -10   0  131.89    9.80
   4 -10   0  125.09    6.80
  -4 -10   0  128.09   10.50
  -4  10   0  124.29    7.60
   4  10   0  131.59    8.50
   5 -10   0    4.90    1.80
   5 -10   0    7.10    3.30
  -5 -10   0    7.70    3.50
   5  10   0   12.80    3.80
  -5  10   0   10.50    2.80
  -6 -10   0    4.30    3.90
   6 -10   0    2.70    3.20
   6  10   0    8.00    3.50
  -6  10   0    5.30    3.70
   7 -10   0   37.50    4.20
  -7 -10   0   27.60    6.10
  -7  10   0   36.90    6.20
   7  10   0   38.90    7.70
  -7  10   0   44.50    7.80
   8 -10   0   61.69    7.80
  -8 -10   0   42.70    7.10
  -8  10   0   66.09    7.20
   8  10   0   50.89    7.00
  -8  10   0   56.89    7.50
  -9 -10   0   -2.30    3.90
  -9  10   0    3.10    3.50
  -9  10   0    3.40    3.60
   9  10   0    1.90    4.30
 -10 -10   0    1.30    4.50
 -10  10   0    3.70    4.10
 -10  10   0    1.80    4.20
  10  10   0    2.50    5.50
   0 -11   0    7.80    3.20
   0 -11   0    2.70    1.40
   0  11   0    3.50    2.10
  -1 -11   0    9.40    3.50
  -1 -11   0   10.70    2.10
   1 -11   0    7.90    1.80
   1  11   0    7.80    2.20
   2 -11   0   23.20    2.80
  -2 -11   0   26.50    3.70
   2 -11   0   29.80    5.50
  -2  11   0   30.60    3.90
   2  11   0   24.30    3.80
   3 -11   0   73.79    4.60
   3 -11   0   73.49    7.40
  -3 -11   0   73.99    7.20
  -3  11   0   77.29    5.40
   3  11   0   67.79    6.50
   4 -11   0  144.89    7.80
  -4 -11   0  155.88   10.90
   4 -11   0  155.38   11.00
   5 -11   0   45.40    7.10
  -5 -11   0   39.50    6.40
  -5  11   0   41.50    4.00
   5  11   0   31.70    5.10
   6 -11   0  105.39    6.30
  -6 -11   0  123.69   10.20
   6  11   0   99.09    8.50
  -6  11   0  116.49    7.40
  -7 -11   0   10.70    4.10
   7  11   0    8.20    3.70
  -7  11   0   10.80    3.20
  -8 -11   0   11.20    4.30
  -8  11   0   15.60    3.50
  -8  11   0   14.30    4.10
   8  11   0   16.50    4.70
  -9 -11   0   23.00    6.10
  -9  11   0   20.30    4.30
  -9  11   0   23.80    4.70
   9  11   0    6.90    4.90
 -10 -11   0   14.20    6.30
 -10  11   0   19.40    4.50
  10  11   0    9.40    6.10
 -10  11   0   14.50    5.30
   0 -12   0   70.39    4.80
   0 -12   0   63.49    6.90
   1 -12   0  341.37   17.00
  -1 -12   0  355.16   19.90
  -1 -12   0  371.26   17.90
   1 -12   0  368.76   20.20
   1  12   0  363.16   18.00
  -2 -12   0    3.60    3.10
   2 -12   0   -0.70    2.50
   2 -12   0    1.90    1.60
  -2 -12   0    4.30    1.80
   2  12   0    4.90    2.20
   3 -12   0  332.17   19.60
   3 -12   0  319.17   15.80
  -3 -12   0  341.07   19.20
   3  12   0  341.67   17.70
  -3  12   0  362.56   17.90
  -4 -12   0   33.10    5.80
   4 -12   0   20.80    4.70
   4 -12   0   19.20    4.10
   4  12   0   24.60    4.20
  -4  12   0   28.30    3.80
   5 -12   0  122.49    6.90
   5 -12   0  108.99    9.90
  -5 -12   0  127.79   10.30
  -5  12   0  116.09    7.70
   5  12   0  128.39    9.20
  -6 -12   0    5.40    3.80
  -6  12   0    6.00    2.70
   6  12   0   12.60    3.90
  -7 -12   0   62.39    8.60
  -7  12   0   66.29    5.90
   7  12   0   56.49    7.10
  -8 -12   0    5.70    4.80
   8  12   0    4.50    4.30
  -8  12   0    8.80    3.40
  -9 -12   0   10.30    5.30
  -9  12   0   21.80    5.30
  -9  12   0   27.20    4.60
   9  12   0   10.90    6.00
   0 -13   0    3.30    1.70
   0 -13   0    5.70    3.50
  -1 -13   0   -1.60    1.40
  -1 -13   0   -1.50    2.10
   1 -13   0    1.40    2.60
   1 -13   0   -0.70    1.30
   1  13   0   -0.80    2.20
   2 -13   0   88.19    5.50
   2 -13   0  106.99    8.80
  -2 -13   0   85.19    8.30
  -2 -13   0   89.09    6.50
   2  13   0   92.39    6.90
  -3 -13   0   37.70    6.90
   3 -13   0   29.90    5.90
  -3 -13   0   29.00    4.60
  -3  13   0   37.70    5.10
   3  13   0   33.30    4.80
  -4 -13   0    2.40    3.30
   4 -13   0    9.20    2.50
   4 -13   0    5.40    2.90
  -4  13   0    9.00    2.60
   4  13   0    6.10    3.10
  -5 -13   0    2.80    3.30
   5 -13   0    2.50    2.50
  -5  13   0    2.20    2.10
   5  13   0    1.00    2.90
  -6 -13   0   17.90    4.80
  -6  13   0   22.50    3.90
   6  13   0   19.80    4.70
  -7 -13   0    4.20    3.90
   7  13   0    1.00    3.90
  -7  13   0   -1.20    2.40
  -8 -13   0   13.90    5.80
  -8  13   0    8.70    3.80
  -8  13   0   24.10    5.90
   8  13   0    7.70    4.90
  -9 -13   0   -5.30    4.40
   9  13   0   -6.30    4.10
  -9  13   0    3.70    4.50
  -9  13   0   -1.50    2.90
   0 -14   0    5.10    3.60
   0 -14   0    0.20    1.50
   1 -14   0  256.87   16.00
   1 -14   0  231.48   12.20
  -1 -14   0  223.58   12.60
  -1 -14   0  260.67   15.90
   1  14   0  248.98   13.60
   2 -14   0   11.40    4.20
  -2 -14   0   12.20    3.60
   2  14   0   10.00    3.20
  -3 -14   0    0.50    2.30
   3 -14   0    1.50    1.90
  -3 -14   0    2.30    3.30
   3 -14   0    2.10    2.90
   3  14   0    3.90    2.80
   4 -14   0  129.59   11.20
  -4 -14   0  137.99   11.40
  -4  14   0  130.49    8.50
   4  14   0  144.89   10.00
  -5 -14   0   71.89   10.50
   5 -14   0   63.29    9.10
   5  14   0   62.09    7.00
  -5  14   0   68.19    5.50
  -6 -14   0   20.90    6.00
   6 -14   0   24.90    6.00
  -6  14   0   24.10    3.90
   6  14   0   26.30    5.40
  -7 -14   0   21.50    5.90
   7  14   0   21.00    4.30
  -7  14   0   20.80    4.50
  -8 -14   0    7.80    5.20
   8  14   0   -2.40    3.90
  -8  14   0    7.40    5.00
  -8  14   0    4.90    3.10
   0 -15   0    4.90    2.00
   0 -15   0    5.60    3.10
   1 -15   0    1.50    1.50
   1 -15   0    2.40    2.60
  -1 -15   0    3.20    3.40
  -1 -15   0   -0.70    1.90
   1  15   0   -3.50    2.30
  -2 -15   0    1.20    2.80
   2 -15   0   -3.80    2.40
   2 -15   0    3.50    1.90
  -2 -15   0    3.30    2.60
   2  15   0    3.90    2.90
   3 -15   0   47.60    7.90
  -3 -15   0   32.50    4.60
  -3 -15   0   40.20    6.80
   3  15   0   34.10    5.40
  -4 -15   0    4.70    2.90
   4 -15   0    3.40    3.00
  -4 -15   0   -2.00    3.50
  -4  15   0    0.60    1.90
   4  15   0    1.00    3.20
  -5 -15   0   25.20    6.20
   5 -15   0    5.60    4.30
  -5  15   0   10.20    2.80
   5  15   0    9.40    3.40
   6 -15   0    2.50    3.90
  -6 -15   0    0.50    4.30
  -6  15   0   -0.50    2.80
   6  15   0   -3.70    3.60
  -7 -15   0   11.60    6.10
  -7  15   0    8.80    3.30
   7  15   0    3.00    4.40
   0 -16   0  103.19    7.00
   1 -16   0   -3.70    2.20
  -1 -16   0   -1.00    3.00
   1 -16   0   -0.50    1.90
  -1 -16   0   -0.90    2.10
  -2 -16   0   58.19    8.30
  -2 -16   0   50.89    5.40
   2 -16   0   52.49    8.00
   2  16   0   55.79    6.10
  -3 -16   0    7.30    4.20
  -3 -16   0    7.90    3.10
   3 -16   0    7.90    4.30
   3  16   0    3.50    2.60
  -4 -16   0   77.59    9.30
  -4 -16   0   63.79    7.70
   4 -16   0   95.79   15.80
   4  16   0   79.39    7.70
   5 -16   0   -1.10    2.80
  -5 -16   0    2.90    5.10
  -5 -16   0   -3.20    3.70
  -5  16   0    4.10    2.60
   5  16   0    4.40    3.40
  -6 -16   0   86.99   10.30
   6 -16   0   71.09   10.60
   6  16   0   63.89    8.30
  -6  16   0   68.99    6.60
  -7 -16   0    5.40    5.50
  -7  16   0    3.60    3.30
   7  16   0   12.80    6.30
   0 -17   0   -1.10    2.40
   0 -17   0   -3.30    2.60
  -1 -17   0    4.60    2.90
  -1 -17   0   19.70    5.20
   1 -17   0    4.60    3.30
  -2 -17   0   -1.00    3.30
  -2 -17   0    2.10    3.00
   2  17   0    2.40    3.10
   3 -17   0   17.00    4.60
  -3 -17   0    5.40    4.20
  -3 -17   0    3.30    4.70
   3  17   0   21.20    4.40
  -4 -17   0    3.60    4.30
   4 -17   0    0.20    3.40
   4  17   0    0.20    3.90
   5 -17   0    9.40    4.20
  -5 -17   0   -5.20    5.30
  -5 -17   0    7.90    5.50
   0 -18   0   46.10    7.70
  -1 -18   0   16.40    5.20
   1 -18   0   18.60    5.50
  -1 -18   0   17.20    5.50
   2 -18   0   38.90    8.20
  -2 -18   0   33.60    7.70
   3 -18   0   35.80    8.40
  -3 -18   0   17.20    6.20
   3  18   0   15.80    4.70
  -4 -18   0    7.70    4.80
   4 -18   0   15.60    5.90
   4  18   0   12.90    4.40
   0 -19   0    0.30    3.20
   1 -19   0   -2.20    3.00
  -1 -19   0    6.30    4.20
  -2 -19   0    4.00    4.40
   2 -19   0   -2.70    3.40
  12   0  -1  -11.20    6.70
 -12   0   1    9.10    4.70
 -11   0   1    1.20    3.10
 -11   0   1    0.10    4.70
 -10   0   1    1.80    3.90
 -10   0   1    0.40    3.30
  -9   0   1   19.10    4.10
  -9   0   1    8.70    3.10
   8   0  -1    3.20    2.70
  -8   0   1    2.60    2.30
  -8   0   1    3.30    2.60
  -7   0   1  202.68   11.60
  -7   0   1  198.68   11.00
   7   0  -1  196.98   11.40
  -6   0   1   -0.50    1.60
  -6   0   1   -0.30    1.70
   6   0  -1    1.20    1.70
   6   0  -1   -0.30    1.60
  -5   0   1  135.39    7.80
  -5   0   1  130.89    7.30
   5   0  -1  126.19    7.50
  -4   0   1   -0.30    1.20
   4   0  -1   -0.30    0.90
  -4   0   1    0.40    1.10
  -3   0   1   47.10    3.10
   3   0  -1   44.40    3.20
  -3   0   1   48.30    3.40
  -2   0   1   -0.60    0.70
  -2   0   1    1.40    0.70
   2   0  -1    0.90    0.80
   0   0   1    0.10    0.30
   1   0   1  525.25   22.80
  -1   0  -1  516.45   22.60
   1   0   1  526.05   22.60
  -1   0  -1  514.25   22.80
  -2   0  -1    0.60    1.00
   2   0   1    0.50    1.00
  -2   0  -1   -0.60    1.20
   2   0   1    0.80    1.00
  -3   0  -1  460.55   21.20
  -3   0  -1  467.25   21.30
   3   0   1  458.75   21.20
   3   0   1  485.25   21.20
  -4   0  -1    0.60    1.10
   4   0   1    2.70    1.40
  -4   0  -1    2.10    1.50
   4   0   1   -0.50    1.20
   5   0   1  223.88   11.60
   5   0   1  228.38   11.50
  -5   0  -1  217.68   11.60
  -5   0  -1  219.28   12.70
   6   0   1    0.10    1.80
  -6   0  -1    0.40    1.80
  -6   0  -1    1.00    1.80
   6   0   1   -1.10    1.40
   7   0   1   82.89    6.10
  -7   0  -1   73.99    6.10
  -7   0  -1   69.39    6.10
  -8   0  -1    0.00    2.80
   8   0   1   -3.40    2.30
  -8   0  -1    2.60    2.20
   9   0   1    6.20    3.40
  -9   0  -1    0.00    3.10
  -9   0  -1    4.60    3.30
  10   0   1    5.70    3.80
 -10   0  -1   -2.40    2.50
 -11   0  -1   10.20    5.90
  11   0   1    1.30    5.40
 -11   0  -1    7.80    4.00
 -12   0  -1   -4.90    4.30
  12   0   1   -4.00    7.70
 -12  -1   1   14.20    4.80
  12  -1  -1   11.80    7.00
  12   1  -1   13.20    9.10
 -12   1   1   21.00    5.40
 -11  -1   1   61.39    8.20
 -11  -1   1   75.39    8.50
  11  -1  -1  105.39    9.00
 -11   1   1   71.79    7.80
  11   1  -1   85.29    8.70
 -11   1   1   61.29    8.00
 -10  -1   1   27.90    5.20
 -10  -1   1   23.00    5.60
  10  -1  -1   22.30    4.60
  10   1  -1   16.10    4.40
 -10   1   1   27.50    5.00
 -10   1   1   28.60    6.20
  -9  -1   1   57.49    6.20
  -9  -1   1   60.79    6.10
  -9   1   1   55.89    6.10
  -9   1   1   57.09    6.30
   9   1  -1   49.99    5.90
  -8  -1   1  174.88   11.00
  -8  -1   1  185.98   11.60
  -8   1   1  189.98   11.00
  -8   1   1  192.38   11.60
   8   1  -1  207.98   11.10
   7  -1  -1    0.30    1.40
  -7  -1   1    0.90    2.30
  -7  -1   1    0.80    3.40
  -7   1   1    5.80    2.70
   7   1  -1    1.90    2.00
  -7   1   1    1.50    2.00
  -6  -1   1   90.79    6.20
  -6  -1   1   89.59    5.90
   6  -1  -1   81.09    5.90
   6   1  -1   87.29    6.00
  -6   1   1   88.29    5.80
  -6   1   1   83.19    6.10
   6   1  -1   83.69    5.60
  -5  -1   1   31.60    3.30
  -5  -1   1   26.20    3.10
   5  -1  -1   25.50    3.00
  -5   1   1   28.00    2.90
  -5   1   1   27.70    3.10
   5   1  -1   22.60    3.00
   5   1  -1   26.50    3.00
  -4  -1   1   19.80    2.50
   4  -1  -1   24.20    2.50
   4  -1  -1   14.80    1.80
  -4  -1   1   26.50    3.40
   4   1  -1   20.60    2.50
  -4   1   1   20.80    2.20
  -4   1   1   21.30    2.40
   4   1  -1   20.60    2.30
  -3  -1   1    1.60    1.10
  -3  -1   1    2.60    1.20
   3  -1  -1    1.70    1.10
   3  -1  -1    3.20    0.90
  -3   1   1    2.50    1.10
   3   1  -1    1.00    1.00
  -3   1   1    2.20    1.20
   3   1  -1    2.70    1.30
   2  -1  -1    8.70    1.00
  -2  -1   1    9.60    1.30
  -2  -1   1    8.50    1.40
  -2   1   1    9.70    1.40
   2   1  -1    6.90    1.20
  -2   1   1    9.60    1.10
  -1  -1   1    0.50    0.50
   1   1  -1    0.80    0.50
   1   1  -1    0.30    0.50
  -1  -1  -1   10.60    1.20
  -1  -1  -1    8.80    1.20
   1  -1   1    8.60    1.30
   1  -1   1    9.20    1.20
  -1   1  -1    8.70    1.20
   1   1   1   10.30    1.10
  -1   1  -1    7.20    1.10
   1   1   1    8.80    1.20
  -2  -1  -1   17.50    2.00
  -2  -1  -1   20.40    2.10
   2  -1   1   17.80    2.00
  -2   1  -1   17.20    2.00
  -2   1  -1   18.40    1.80
   2   1   1   16.60    2.00
   2   1   1   22.00    2.50
  -3  -1  -1    1.60    1.00
   3  -1   1    1.70    1.10
  -3  -1  -1    1.50    1.30
  -3   1  -1    0.70    1.10
   3   1   1    1.00    1.10
  -3   1  -1    2.10    1.30
   3   1   1    0.70    1.00
  -4  -1  -1  145.19    8.30
  -4  -1  -1  151.28    7.90
   4  -1   1  146.99    7.70
   4   1   1  133.99    7.70
  -4   1  -1  141.09    7.80
  -4   1  -1  144.89    7.70
   4   1   1  140.49    7.70
  -5  -1  -1    5.20    2.00
   5  -1   1    6.30    1.90
  -5  -1  -1    2.70    1.50
   5   1   1    6.90    1.80
   5   1   1    5.50    1.80
  -5   1  -1    9.60    2.30
  -5   1  -1    7.40    2.00
  -6  -1  -1   70.29    5.40
  -6  -1  -1   71.09    5.40
   6  -1   1   66.19    4.90
  -6   1  -1   66.29    5.30
   6   1   1   64.49    5.20
  -6   1  -1   64.59    5.30
   6   1   1   63.99    4.90
  -7  -1  -1   10.80    3.10
   7  -1   1   17.80    2.90
  -7  -1  -1   16.20    3.50
  -7   1  -1    9.30    3.00
   7   1   1   12.00    2.90
  -7   1  -1    9.90    2.80
   8  -1   1   15.80    3.50
  -8  -1  -1   11.20    3.60
  -8  -1  -1   11.50    3.30
  -8   1  -1   18.60    4.40
  -8   1  -1   11.50    3.40
   8   1   1   13.40    4.30
  -9  -1  -1   12.40    3.30
   9  -1   1   17.10    3.70
  -9  -1  -1   13.90    4.00
   9   1   1   15.70    5.50
  -9   1  -1    6.00    3.60
  -9   1  -1   16.90    4.70
 -10  -1  -1   20.70    5.10
  10  -1   1   20.90    4.90
 -10  -1  -1   20.30    4.50
  10   1   1   31.30    6.60
 -10   1  -1   17.40    5.10
 -10   1  -1   16.40    5.10
 -11  -1  -1   17.50    5.30
  11  -1   1    7.00    5.60
 -11  -1  -1   11.90    6.00
 -11   1  -1   15.50    6.10
  11   1   1   38.60    7.60
 -11   1  -1   20.30    4.80
 -12  -1  -1   91.39    9.30
  12   1   1   72.09   10.40
 -12   1  -1   87.49    9.40
 -12  -2   1    7.30    4.60
  12  -2  -1   -1.10    8.80
 -12   2   1    6.60    3.80
  12   2  -1  -13.10    5.80
 -11  -2   1    3.10    4.00
 -11  -2   1   -6.00    4.90
  11  -2  -1    8.80    6.70
 -11   2   1    4.10    3.50
  11   2  -1    1.90    4.80
 -10  -2   1   17.50    4.80
 -10  -2   1   17.90    4.90
  10  -2  -1   12.80    3.90
 -10   2   1   10.60    4.30
 -10   2   1   12.70    4.10
  10   2  -1   10.80    3.70
  -9  -2   1   29.30    5.40
  -9  -2   1   23.90    4.30
   9  -2  -1   35.00    4.20
  -9   2   1   27.30    5.20
  -9   2   1   25.00    4.50
   9   2  -1   36.20    4.90
   8  -2  -1   32.00    3.90
  -8  -2   1   27.10    5.00
  -8  -2   1   32.30    4.60
  -8   2   1   27.80    4.30
  -8   2   1   35.60    4.50
   8   2  -1   37.00    4.70
   7  -2  -1  265.77   13.00
  -7  -2   1  240.78   13.50
  -7   2   1  255.27   13.30
  -7   2   1  251.67   13.90
   7   2  -1  268.07   13.50
  -6  -2   1  187.88   10.20
   6  -2  -1  186.78    9.50
  -6  -2   1  174.18   10.40
   6   2  -1  182.98    9.90
  -6   2   1  186.88   10.20
   6   2  -1  169.18   10.10
  -6   2   1  183.58    9.70
   5  -2  -1    1.90    1.40
  -5  -2   1    0.70    1.40
  -5  -2   1    1.50    1.70
   5   2  -1    3.00    1.60
   5   2  -1    2.40    1.60
  -5   2   1    3.30    1.40
  -5   2   1    1.60    1.40
  -4  -2   1   22.20    2.50
   4  -2  -1   20.20    2.00
  -4  -2   1   29.40    3.80
  -4   2   1   22.30    2.10
   4   2  -1   20.30    2.50
   4   2  -1   22.20    2.70
  -4   2   1   19.60    2.40
  -3  -2   1   53.89    3.60
   3  -2  -1   54.99    3.10
  -3  -2   1   54.49    3.90
  -3   2   1   53.29    3.20
   3   2  -1   57.29    3.70
  -3   2   1   54.99    3.70
   3   2  -1   58.29    3.80
   2  -2  -1  970.20   40.30
  -2  -2   1  936.71   40.90
   2   2  -1  925.51   41.10
  -2   2   1  939.51   40.40
  -2   2   1  909.21   41.30
   2   2  -1  941.71   40.90
   1  -2  -1 3578.44  153.28
  -1  -2   1 3560.24  152.98
  -1   2   1 3529.45  153.28
   1   2  -1 3608.64  152.98
   0  -2  -1  273.27   12.00
   0  -2   1  278.47   12.30
   0  -2   1  272.87   12.60
   0  -2  -1  267.27   12.40
   0   2  -1  287.07   12.40
   0   2   1  268.17   12.40
   0   2   1  277.77   12.10
   1  -2   1  728.43   31.40
  -1  -2  -1  679.43   30.90
  -1  -2  -1  710.53   30.90
   1  -2   1  745.13   31.30
   1   2   1  708.23   30.90
   1   2   1  693.63   30.90
  -1   2  -1  703.73   30.90
  -1   2  -1  694.03   31.20
  -2  -2  -1 5252.27  224.38
   2  -2   1 5276.37  224.88
   2   2   1 5047.79  224.28
  -2   2  -1 5075.99  224.78
  -2   2  -1 5151.38  224.18
   2   2   1 5587.34  224.68
  -3  -2  -1  242.88   11.70
   3  -2   1  242.78   11.60
  -3  -2  -1  226.48   11.50
  -3   2  -1  247.88   11.70
  -3   2  -1  240.38   11.50
   3   2   1  237.28   11.60
   3   2   1  240.98   11.60
  -3   2  -1  237.98   12.10
   4  -2   1  346.37   16.20
  -4  -2  -1  350.96   16.50
  -4  -2  -1  336.77   16.30
   4   2   1  305.47   17.20
  -4   2  -1  350.66   16.30
  -4   2  -1  343.07   16.30
   4   2   1  360.46   16.40
   5  -2   1  153.88    8.20
  -5  -2  -1  147.59    8.60
  -5  -2  -1  151.58    8.50
  -5   2  -1  145.49    8.30
   5   2   1  144.79    8.60
  -5   2  -1  147.59    8.30
   5   2   1  147.89    8.30
  -6  -2  -1    5.60    2.10
   6  -2   1    7.40    1.90
  -6  -2  -1    8.00    2.40
   6   2   1    3.60    1.90
  -6   2  -1    9.40    2.40
  -6   2  -1    6.40    2.40
   6   2   1    5.50    2.30
   7  -2   1   -0.10    2.00
  -7  -2  -1   -0.90    2.40
  -7  -2  -1    2.00    2.10
   7   2   1    3.70    2.10
  -7   2  -1    2.80    2.20
  -7   2  -1    2.90    2.40
  -8  -2  -1   66.29    6.40
  -8  -2  -1   64.59    6.20
   8  -2   1   63.89    6.00
  -8   2  -1   56.49    5.90
  -8   2  -1   63.29    6.40
   9  -2   1   20.50    5.20
  -9  -2  -1   12.50    4.30
  -9  -2  -1   16.50    4.30
   9   2   1   18.60    4.40
  -9   2  -1   21.50    4.80
  -9   2  -1   21.00    4.80
 -10  -2  -1    9.50    5.30
 -10  -2  -1   13.00    4.40
  10   2   1   -0.40    4.00
 -10   2  -1    2.20    4.30
 -10   2  -1    3.20    2.80
 -11  -2  -1    4.50    4.10
 -11  -2  -1  -16.30    5.50
  11   2   1    9.20    5.40
 -11   2  -1    0.90    5.40
 -11   2  -1    2.20    3.70
 -12  -2  -1   -3.40    4.00
 -12   2  -1   -0.20    4.70
  12   2   1   -7.80    7.50
 -12  -3   1   11.20    5.30
  12   3  -1    6.90    7.10
 -12   3   1   14.60    4.90
 -11  -3   1   31.20    6.00
  11  -3  -1   47.00    6.60
 -11  -3   1   34.30   10.70
 -11   3   1   41.70    6.60
  11   3  -1   24.90    8.20
 -11   3   1   40.90    5.70
 -10  -3   1   16.90    5.30
  10  -3  -1   14.70    4.50
 -10  -3   1   17.10    4.80
 -10   3   1   16.30    4.40
  10   3  -1   24.90    6.80
 -10   3   1   15.00    4.70
  -9  -3   1  161.38   11.30
  -9  -3   1  142.69   10.40
   9  -3  -1  171.28   11.70
  -9   3   1  152.38   10.00
   9   3  -1  196.78   14.00
  -9   3   1  161.68   10.80
   8  -3  -1  168.38    9.50
  -8  -3   1  166.88   10.20
  -8  -3   1  164.88   10.90
   8   3  -1  162.98   11.30
  -8   3   1  158.68   10.30
  -8   3   1  158.28    9.80
   7  -3  -1  152.48    8.50
  -7  -3   1  150.88    9.80
  -7  -3   1  163.18    9.50
   7   3  -1  143.79    9.10
  -7   3   1  150.48    8.70
  -7   3   1  155.38   10.50
   6  -3  -1  227.38   11.50
  -6  -3   1  240.48   12.90
  -6  -3   1  226.98   12.30
   6   3  -1  241.08   12.30
  -6   3   1  227.88   12.40
  -6   3   1  238.88   11.80
   6   3  -1  222.48   12.40
  -5  -3   1  125.09    7.40
  -5  -3   1  132.19    7.90
   5  -3  -1  127.19    6.60
  -5   3   1  131.89    7.00
   5   3  -1  120.59    7.50
  -5   3   1  124.99    7.50
   5   3  -1  121.49    7.40
   4  -3  -1    5.50    1.20
  -4  -3   1    4.50    1.70
  -4  -3   1    7.90    1.60
  -4   3   1    3.10    1.60
  -4   3   1    4.90    1.40
   4   3  -1    4.80    1.60
  -4   3   1    6.40    1.20
   4   3  -1    3.10    1.50
  -3  -3   1   87.09    5.80
  -3  -3   1  105.19    5.90
   3  -3  -1   95.59    4.70
   3   3  -1   95.19    5.70
  -3   3   1   91.79    6.00
   3   3  -1   94.69    5.40
  -3   3   1   96.39    4.90
  -2  -3   1    2.00    1.20
  -2  -3   1    2.70    1.20
   2  -3  -1    2.10    0.60
   2  -3  -1    2.40    1.50
   2   3  -1    1.80    1.10
  -2   3   1    1.40    0.70
  -2   3   1    2.10    1.40
   2   3  -1    2.20    1.40
   1  -3  -1    1.50    1.20
  -1  -3   1    2.50    1.20
  -1  -3   1    0.80    1.00
  -1   3   1    1.70    0.60
   1   3  -1    1.30    1.10
   1   3  -1    2.00    1.20
  -1   3   1    1.20    0.60
   0  -3   1    3.30    1.30
   0  -3   1    2.00    0.90
   0  -3  -1    1.70    1.10
   0  -3  -1    2.90    0.80
   0  -3   1    1.40    0.90
   0   3   1    2.90    0.80
   0   3  -1    3.00    1.30
   0   3  -1    2.80    1.00
   0   3   1    2.40    1.20
  -1  -3  -1    1.40    0.90
  -1  -3  -1    0.20    1.10
   1   3   1   -1.20    0.90
   1   3   1    2.10    1.30
  -1   3  -1    0.40    1.00
  -1   3  -1    0.30    0.80
  -2  -3  -1   34.40    2.80
  -2  -3  -1   32.30    2.60
   2  -3   1   34.80    3.20
   2   3   1   31.60    2.70
   2   3   1   30.50    2.70
  -2   3  -1   32.00    3.00
  -2   3  -1   31.10    2.60
  -3  -3  -1   46.50    3.50
  -3  -3  -1   41.10    3.30
   3   3   1   48.20    3.50
  -3   3  -1   47.10    3.90
   3   3   1   42.50    3.50
  -3   3  -1   44.60    3.30
  -4  -3  -1    2.00    1.40
  -4  -3  -1    3.10    1.70
  -4   3  -1    1.30    1.20
   4   3   1    3.60    1.70
  -4   3  -1    1.90    1.50
   4   3   1    1.40    1.50
  -4   3  -1    2.80    1.70
  -5  -3  -1  111.49    7.10
  -5  -3  -1   98.59    6.80
  -5   3  -1  111.19    6.70
   5   3   1  110.39    6.90
   5   3   1  106.99    6.70
  -5   3  -1  115.59    6.90
  -6  -3  -1   30.00    4.10
  -6  -3  -1   31.30    4.50
   6   3   1   32.60    3.60
  -6   3  -1   37.10    4.40
  -6   3  -1   30.10    3.80
  -6   3  -1   31.70    4.90
   6   3   1   25.80    3.80
  -7  -3  -1   36.50    4.80
  -7  -3  -1   36.60    4.90
   7   3   1   32.50    4.50
  -7   3  -1   36.40    4.50
  -8  -3  -1   59.79    6.00
  -8  -3  -1   57.39    6.50
  -8   3  -1   53.09    5.80
  -8   3  -1   66.19    6.10
   8   3   1   61.39    6.10
  -9  -3  -1   81.09    7.40
  -9  -3  -1   63.69   10.10
  -9   3  -1   73.19    8.20
   9   3   1   76.19    7.50
  -9   3  -1   72.49    7.20
 -10  -3  -1    6.60    3.60
 -10  -3  -1    0.00    5.10
  10  -3   1    1.80    4.30
  10   3   1    3.80    4.50
 -10   3  -1    3.80    4.60
 -10   3  -1    2.80    3.10
 -11  -3  -1   73.19    8.30
 -11   3  -1   47.70    7.80
  11   3   1   54.79    7.70
 -11   3  -1   68.79    7.80
 -12  -3  -1   -1.30    4.80
 -12   3  -1    1.00    4.90
  12   3   1  -10.00    6.80
 -12  -4   1   -1.50    4.20
  12   4  -1    4.20    5.70
 -12   4   1   -3.40    3.90
  11  -4  -1    4.10    5.00
 -11  -4   1   -6.20    5.50
 -11  -4   1   -4.40    3.90
 -11   4   1   -5.20    4.30
  11   4  -1   -4.60    4.80
 -11   4   1    3.70    3.30
 -10  -4   1   15.00    4.30
  10  -4  -1   19.60    4.20
 -10  -4   1    7.90    7.50
 -10   4   1   17.20    3.70
 -10   4   1   26.50    5.30
  10   4  -1   27.30    5.10
  -9  -4   1    8.20    3.60
  -9  -4   1    6.10    3.80
   9  -4  -1    8.10    3.10
  -9   4   1    7.50    3.50
  -9   4   1    5.50    3.40
   9   4  -1    8.80    3.90
  -8  -4   1   86.69    6.90
   8  -4  -1   96.29    6.20
  -8  -4   1   70.29    7.30
   8   4  -1   86.09    7.20
  -8   4   1   85.79    6.30
  -8   4   1   86.49    7.00
  -7  -4   1    7.10    2.70
  -7  -4   1    4.40    4.20
   7  -4  -1    3.30    2.10
   7   4  -1    5.20    2.50
  -7   4   1    5.10    2.40
  -7   4   1    0.90    1.90
  -6  -4   1   95.39    6.90
  -6  -4   1   84.89    6.30
   6  -4  -1   83.39    5.90
   6   4  -1   92.69    6.40
  -6   4   1   84.09    6.20
   6   4  -1   91.69    6.50
  -6   4   1   94.09    5.80
   5  -4  -1  157.28    8.40
  -5  -4   1  152.18    8.70
  -5  -4   1  151.28    9.20
  -5   4   1  141.29    9.40
  -5   4   1  161.08    8.10
   5   4  -1  153.78    8.70
  -5   4   1  151.58    8.80
  -4  -4   1  228.38   11.80
  -4  -4   1  219.78   11.20
   4  -4  -1  226.18   10.90
  -4   4   1  222.08   10.60
  -4   4   1  222.88   12.20
   4   4  -1  233.88   11.40
  -4   4   1  215.38   11.40
   4   4  -1  213.18   11.50
   3  -4  -1   21.80    1.90
  -3  -4   1   20.60    2.40
  -3  -4   1   20.00    2.60
  -3   4   1   21.80    2.00
   3   4  -1   22.70    3.10
   3   4  -1   19.90    2.50
  -3   4   1   26.50    3.00
   2  -4  -1  305.07   13.10
   2  -4  -1  297.37   14.70
  -2  -4   1  304.27   14.00
  -2  -4   1  287.97   14.50
   2  -4  -1  332.97   13.30
  -2   4   1  298.47   13.40
   2   4  -1  288.47   14.30
  -2   4   1  276.07   14.50
   1  -4  -1    7.20    0.90
  -1  -4   1    7.40    2.00
   1  -4  -1    7.90    0.90
   1  -4  -1    6.10    1.80
  -1  -4   1    8.30    1.60
   1   4  -1    8.00    1.80
  -1   4   1    8.60    1.20
  -1   4   1    8.10    1.90
  -1   4   1    8.80    1.10
   0  -4  -1   65.79    3.40
   0  -4   1   66.09    3.80
   0  -4   1   66.09    4.50
   0   4  -1   65.69    4.40
   0   4  -1   63.79    3.90
   0   4   1   65.29    4.30
   0   4   1   65.29    3.60
  -1  -4  -1  328.27   15.50
  -1  -4  -1  322.27   14.90
   1  -4   1  329.77   15.90
  -1   4  -1  331.87   15.00
   1   4   1  338.17   15.00
  -1   4  -1  327.17   15.80
   1   4   1  326.07   15.40
  -2  -4  -1 2755.42  121.29
   2  -4   1 2885.01  121.99
  -2  -4  -1 2786.82  120.99
   2   4   1 2876.01  121.09
  -2   4  -1 2728.13  121.79
   2   4   1 2828.52  121.29
  -2   4  -1 2788.52  120.89
  -3  -4  -1  187.98    9.70
  -3  -4  -1  190.18    9.50
   3  -4   1  187.18   10.20
   3  -4   1  167.88    9.00
  -3   4  -1  189.48    9.30
   3   4   1  189.78    9.50
   3   4   1  186.08    9.60
  -3   4  -1  182.08   10.20
  -4  -4  -1  175.08    9.40
   4  -4   1  175.18    9.00
  -4  -4  -1  180.48    9.70
   4   4   1  178.88    9.50
  -4   4  -1  174.38   10.30
   4   4   1  166.68    9.30
  -4   4  -1  177.38    9.20
  -5  -4  -1   43.40    4.30
  -5  -4  -1   42.20    4.10
   5  -4   1   37.90    3.50
   5   4   1   37.60    4.30
  -5   4  -1   44.20    4.00
   5   4   1   45.30    4.20
  -5   4  -1   42.10    4.60
  -5   4  -1   45.00    3.90
  -6  -4  -1   25.70    4.30
   6  -4   1   23.90    3.30
  -6  -4  -1   23.20    3.60
   6   4   1   26.00    3.80
   6   4   1   22.50    3.80
  -6   4  -1   23.10    3.80
  -6   4  -1   24.00    3.60
  -7  -4  -1   13.00    3.80
  -7  -4  -1   18.80    4.00
   7  -4   1   25.10    3.60
   7   4   1   13.60    3.00
  -7   4  -1   16.60    3.40
  -7   4  -1   22.70    3.60
  -8  -4  -1    3.10    2.60
   8  -4   1    8.70    3.10
  -8  -4  -1    9.60    4.70
  -8   4  -1    6.40    3.30
  -8   4  -1    7.70    2.50
   8   4   1    4.10    3.30
   9  -4   1    0.40    3.20
  -9  -4  -1    0.80    3.30
  -9  -4  -1   -0.60    4.10
  -9   4  -1   -1.90    3.30
  -9   4  -1    4.30    3.10
   9   4   1    1.60    3.50
 -10  -4  -1   28.10    5.70
  10  -4   1   33.00    5.60
 -10   4  -1   37.70    6.30
  10   4   1   41.00    6.10
 -10   4  -1   27.90    7.50
 -11  -4  -1    7.60    5.10
  11  -4   1   -3.70    8.70
 -11   4  -1   -5.60    5.30
  11   4   1    0.60    5.20
 -12  -5   1   14.50    5.30
 -12   5   1   19.10    5.50
  12   5  -1    2.40    6.30
 -11  -5   1   72.19    8.60
  11  -5  -1   79.49    8.40
 -11   5   1   57.19    7.40
 -11   5   1   48.30   11.00
  11   5  -1   68.09    7.90
 -10  -5   1    3.30    3.80
  10  -5  -1   -2.80    3.50
 -10  -5   1   -8.80    4.10
 -10   5   1    7.00    3.60
 -10   5   1   -1.30    2.50
  10   5  -1    4.80    4.30
  -9  -5   1   77.09    8.40
  -9  -5   1   75.59    7.60
   9  -5  -1   67.59    5.90
  -9   5   1   73.39    6.20
   9   5  -1   73.29    7.30
  -9   5   1   60.59    6.60
   8  -5  -1    8.40    2.60
  -8  -5   1    8.90    3.60
  -8  -5   1    8.60    3.30
  -8   5   1   10.10    3.30
  -8   5   1    6.90    2.70
   8   5  -1   11.80    3.30
  -7  -5   1  117.79    8.60
   7  -5  -1  112.39    6.60
  -7  -5   1  108.39    7.80
  -7   5   1  109.29    7.90
   7   5  -1  115.09    7.80
  -7   5   1  115.69    7.30
   6  -5  -1   47.00    3.60
  -6  -5   1   48.80    5.20
  -6  -5   1   44.50    4.40
  -6   5   1   44.00    4.50
   6   5  -1   46.40    4.50
  -6   5   1   57.49    4.20
   5  -5  -1  171.88    8.20
  -5  -5   1  162.98    9.30
  -5   5   1  170.08    9.50
   5   5  -1  155.28    9.40
   5   5  -1  161.98    9.30
  -5   5   1  162.28   10.30
  -5   5   1  171.18    8.60
   4  -5  -1   21.60    2.00
  -4  -5   1   20.80    2.80
  -4  -5   1   25.40    3.90
  -4   5   1   21.80    3.50
  -4   5   1   24.20    2.40
   4   5  -1   24.90    3.40
   4   5  -1   21.00    3.00
   3  -5  -1   42.50    2.50
  -3  -5   1   45.50    4.00
   3  -5  -1   43.40    4.00
  -3  -5   1   43.90    3.50
   3   5  -1   38.00    3.50
  -3   5   1   42.70    2.80
  -3   5   1   44.70    4.10
   3   5  -1   46.50    3.70
  -2  -5   1    3.60    1.30
   2  -5  -1    5.80    0.80
   2  -5  -1    8.90    1.00
  -2  -5   1    8.20    2.30
   2  -5  -1    7.90    2.10
   2   5  -1    2.90    1.40
  -2   5   1    8.20    1.20
   2   5  -1    7.80    2.00
  -2   5   1    4.80    1.90
   1  -5  -1    4.70    1.00
  -1  -5   1    4.30    1.60
  -1  -5   1    4.70    1.40
   1  -5  -1    6.30    0.90
   1  -5  -1    7.10    2.10
  -1   5   1    7.30    2.10
  -1   5   1    5.80    1.10
  -1   5   1    5.80    1.20
   1   5  -1    3.70    1.30
   1   5  -1    7.60    1.90
   0  -5   1    6.00    2.00
   0  -5   1    3.00    1.00
   0  -5  -1    4.40    1.00
   0  -5  -1    3.60    0.90
   0  -5  -1    3.70    1.50
   0   5  -1    2.10    1.10
   0   5   1    3.60    1.10
   0   5  -1    4.50    1.60
   0   5   1    6.10    1.60
  -1  -5  -1   -0.20    0.90
   1  -5   1    0.70    1.40
  -1  -5  -1   -0.70    1.20
   1  -5   1    0.10    0.70
   1   5   1    1.80    1.30
  -1   5  -1    0.00    0.90
  -1   5  -1    0.40    0.80
   1   5   1   -0.90    1.00
  -2  -5  -1    3.90    1.70
   2  -5   1    4.60    1.70
   2  -5   1    4.40    1.30
  -2  -5  -1    2.70    1.20
  -2   5  -1    3.00    1.60
   2   5   1    0.60    1.20
  -2   5  -1    5.60    1.50
   2   5   1    3.50    1.50
  -3  -5  -1   77.69    5.20
   3  -5   1   73.69    4.50
  -3  -5  -1   66.79    4.70
   3  -5   1   79.69    5.60
   3   5   1   71.79    4.90
   3   5   1   71.79    4.90
  -3   5  -1   73.89    4.60
  -3   5  -1   67.09    5.30
  -4  -5  -1   52.69    4.20
   4  -5   1   65.79    4.20
  -4  -5  -1   59.99    4.80
  -4   5  -1   55.49    4.20
   4   5   1   60.79    4.60
   4   5   1   55.29    4.40
   5  -5   1   13.70    2.40
  -5  -5  -1   13.60    2.60
  -5  -5  -1   17.40    3.70
  -5   5  -1   14.50    2.70
   5   5   1   14.40    2.50
   5   5   1   11.30    2.60
  -5   5  -1    6.80    2.60
  -5   5  -1   16.20    2.80
  -6  -5  -1   13.50    3.40
  -6  -5  -1   13.00    3.10
   6  -5   1   11.10    2.20
  -6   5  -1   11.90    3.00
  -6   5  -1   15.40    3.10
   6   5   1   13.20    3.40
   6   5   1    9.10    2.50
  -7  -5  -1   92.49    7.50
  -7  -5  -1   82.59    8.40
   7  -5   1  106.79    6.70
  -7   5  -1   96.19    6.90
  -7   5  -1   97.99    7.30
   7   5   1   92.79    7.10
  -8  -5  -1   -3.80    2.40
  -8  -5  -1   -2.40    3.20
   8  -5   1    0.50    2.50
  -8   5  -1    1.20    2.20
  -8   5  -1    0.00    2.90
   8   5   1    3.80    3.20
   9  -5   1   78.39    7.50
  -9  -5  -1   75.09    7.80
  -9   5  -1   77.29    7.30
  -9   5  -1   75.49    7.30
   9   5   1   71.69    7.80
  10  -5   1   17.80    6.30
 -10  -5  -1   25.40    5.30
 -10   5  -1   27.50    5.10
 -10   5  -1   30.30    6.00
  10   5   1   32.20    6.10
  11  -5   1   16.70    7.40
 -11  -5  -1    7.10    4.70
  11   5   1   11.10    5.90
 -11   5  -1   12.80    4.10
 -12  -6   1    2.10    4.80
  12   6  -1   -2.10    6.40
 -12   6   1    3.70    4.40
  11  -6  -1    3.00    7.30
 -11  -6   1   12.40    9.00
 -11   6   1    5.30    3.80
 -11   6   1   -1.20    3.80
  11   6  -1    1.20    4.30
  10  -6  -1    8.70    4.10
 -10  -6   1    5.90    4.10
 -10   6   1    7.40    3.80
  10   6  -1    6.90    3.90
 -10   6   1    7.50    3.50
   9  -6  -1    5.40    2.80
  -9  -6   1    3.20    3.20
  -9  -6   1    8.70    4.00
  -9   6   1   15.00    3.50
   9   6  -1   10.00    3.80
  -9   6   1    3.50    2.90
   8  -6  -1   36.10    3.90
  -8  -6   1   25.90    5.10
  -8  -6   1   32.10    5.00
  -8   6   1   26.90    4.20
   8   6  -1   29.60    5.10
  -8   6   1   38.10    4.40
   7  -6  -1   93.29    5.80
  -7  -6   1   87.09    7.60
  -7  -6   1   95.19    7.20
  -7   6   1   90.19    7.10
  -7   6   1   97.39    6.50
   7   6  -1   97.59    7.20
  -6  -6   1  102.99    7.30
  -6  -6   1  104.39    8.10
   6  -6  -1  117.99    6.20
   6   6  -1  112.19    7.70
  -6   6   1  117.09    6.90
  -6   6   1  121.39    8.50
  -5  -6   1  205.98   11.70
  -5  -6   1  195.58   10.80
   5  -6  -1  202.48    9.50
   5   6  -1  192.58   11.10
  -5   6   1  202.58   10.10
  -5   6   1  176.18   11.60
   5   6  -1  203.78   10.90
  -4  -6   1  424.86   20.40
  -4  -6   1  423.16   21.10
   4  -6  -1  443.36   19.10
  -4   6   1  409.76   21.40
   4   6  -1  427.56   20.50
  -4   6   1  439.86   19.60
   3  -6  -1   46.60    2.60
   3  -6  -1   43.60    4.40
  -3  -6   1   43.50    4.40
   3  -6  -1   45.10    2.60
  -3  -6   1   53.59    3.80
   3   6  -1   47.70    4.00
  -3   6   1   48.10    4.50
   3   6  -1   46.20    4.10
  -3   6   1   47.10    3.10
   2  -6  -1   32.00    3.50
   2  -6  -1   33.90    2.10
   2  -6  -1   39.10    2.10
  -2  -6   1   33.30    3.00
  -2  -6   1   40.40    3.90
   2   6  -1   35.40    3.50
  -2   6   1   30.50    3.50
  -2   6   1   37.90    2.50
   2   6  -1   35.70    3.20
  -1  -6   1  285.57   13.40
   1  -6  -1  283.57   14.40
   1  -6  -1  297.27   13.20
  -1  -6   1  291.37   14.50
  -1  -6   1  283.77   13.50
   1  -6  -1  274.57   12.70
  -1   6   1  286.17   13.00
   1   6  -1  282.27   13.50
   1   6  -1  274.37   14.10
  -1   6   1  265.27   14.10
   0  -6   1  130.69    7.80
   0  -6  -1  117.19    7.40
   0  -6  -1  131.99    6.40
   0  -6  -1  128.19    6.30
   0  -6   1  121.39    6.60
   0   6   1  129.29    6.50
   0   6  -1  127.39    7.50
   0   6   1  123.39    7.30
   1  -6   1    4.10    1.90
   1  -6   1    2.90    1.10
   1  -6   1    1.30    1.10
  -1  -6  -1    2.00    1.40
  -1  -6  -1    1.60    1.00
  -1   6  -1    2.20    1.30
   1   6   1    1.10    1.30
  -1   6  -1    3.70    1.50
   1   6   1    1.80    1.30
   2  -6   1  524.55   24.60
   2  -6   1  502.85   23.00
  -2  -6  -1  514.85   24.10
  -2  -6  -1  511.15   23.30
   2   6   1  508.25   23.80
   2   6   1  523.45   23.40
  -2   6  -1  501.85   24.40
  -2   6  -1  500.65   23.20
   3  -6   1  125.69    6.60
  -3  -6  -1  114.49    7.50
  -3  -6  -1  121.59    6.90
   3  -6   1  127.79    8.20
  -3   6  -1  121.79    6.80
   3   6   1  118.89    7.30
   3   6   1  130.49    7.20
  -3   6  -1  119.09    7.80
  -4  -6  -1   51.99    4.30
   4  -6   1   53.39    5.20
   4  -6   1   50.39    3.80
  -4  -6  -1   53.49    4.80
   4   6   1   56.69    4.60
  -4   6  -1   50.09    4.90
  -4   6  -1   55.59    4.10
   4   6   1   48.00    4.30
  -5  -6  -1   62.79    5.70
  -5  -6  -1   72.49    5.70
   5  -6   1   66.29    4.60
   5   6   1   70.19    5.60
  -5   6  -1   61.59    4.90
   5   6   1   62.29    5.10
  -6  -6  -1  181.88   10.40
  -6  -6  -1  165.18   10.60
   6  -6   1  178.18    9.50
  -6   6  -1  164.18    9.70
  -6   6  -1  173.58   11.30
   6   6   1  163.68   10.20
  -7  -6  -1   17.10    4.00
  -7  -6  -1   13.30    3.70
   7  -6   1   27.30    5.30
  -7   6  -1   20.70    3.90
   7   6   1   22.50    4.20
  -7   6  -1   17.80    3.40
  -8  -6  -1    7.60    3.10
   8  -6   1   -1.90    3.40
   8   6   1    4.10    3.60
  -8   6  -1    1.30    2.90
  -8   6  -1    3.00    2.70
  -9  -6  -1   41.90    6.20
   9  -6   1   46.10    5.40
   9   6   1   49.50    6.90
  -9   6  -1   33.70    5.20
  -9   6  -1   38.90    5.70
 -10  -6  -1    9.70    4.50
  10  -6   1   13.90    5.60
 -10   6  -1   17.90    5.00
  10   6   1   11.30    5.20
 -10   6  -1   19.70    5.10
  11   6   1   -1.60    6.40
 -11   6  -1    4.30    4.10
 -11  -7   1   -0.20    4.30
 -11   7   1    9.50    4.20
  11   7  -1    1.70    6.10
 -11   7   1   12.80    4.50
 -10  -7   1   13.30    5.10
  10  -7  -1    8.90    4.30
 -10   7   1   15.90    4.00
 -10   7   1   21.20    4.60
  10   7  -1   15.30    5.10
   9  -7  -1    4.50    4.40
  -9  -7   1   10.00    4.00
   9   7  -1    7.20    4.00
  -9   7   1    5.60    3.50
  -9   7   1    5.60    3.10
  -8  -7   1  121.59    9.10
  -8  -7   1  137.09   10.30
   8  -7  -1  132.09    7.60
   8   7  -1  126.19    9.30
  -8   7   1  139.29    9.70
  -8   7   1  126.99    8.40
  -7  -7   1    7.20    3.00
  -7  -7   1   14.60    4.30
   7  -7  -1   11.70    2.30
   7   7  -1    7.60    2.90
  -7   7   1   13.80    2.70
  -7   7   1   12.40    2.80
   6  -7  -1   74.29    4.50
  -6  -7   1   77.79    8.20
  -6   7   1   77.09    5.40
  -6   7   1   73.59    6.10
   6   7  -1   82.49    6.40
   5  -7  -1    6.50    1.30
  -5  -7   1    8.10    3.10
  -5  -7   1    7.00    2.10
   5   7  -1    8.10    2.70
  -5   7   1   12.70    2.40
  -4  -7   1   95.09    7.20
   4  -7  -1   94.69    4.90
  -4  -7   1   99.29    6.40
   4  -7  -1  104.69    7.30
  -4   7   1   96.39    7.30
   4   7  -1  101.29    6.50
  -4   7   1   93.39    7.10
   4   7  -1   97.09    6.70
  -3  -7   1  124.89    7.30
   3  -7  -1  124.69    6.10
   3  -7  -1  138.59    8.60
   3  -7  -1  126.19    6.00
  -3  -7   1  127.89    8.20
   3   7  -1  122.19    7.40
  -3   7   1  127.89    6.80
  -2  -7   1   39.00    4.40
   2  -7  -1   44.60    2.70
  -2  -7   1   48.30    3.70
   2  -7  -1   46.50    4.60
   2  -7  -1   45.70    2.60
   2   7  -1   43.10    3.80
  -2   7   1   49.10    4.50
  -2   7   1   45.90    3.00
   2   7  -1   45.00    4.20
   1  -7  -1    6.00    2.20
   1  -7  -1    5.20    1.10
  -1  -7   1    4.20    1.60
   1  -7  -1    4.20    1.00
  -1  -7   1    3.30    1.90
   1   7  -1    5.10    2.00
   1   7  -1    5.90    1.70
  -1   7   1    4.80    2.00
  -1   7   1    3.30    1.20
   0  -7   1   35.10    4.60
   0  -7  -1   28.10    3.90
   0  -7   1   19.80    2.60
   0  -7  -1   24.10    2.20
   0  -7  -1   22.50    2.00
   0  -7   1   23.70    2.40
   0   7   1   22.00    2.30
   0   7  -1   27.30    3.30
   0   7   1   30.40    4.00
  -1  -7  -1    0.80    1.50
   1  -7   1    0.20    0.90
   1  -7   1   -0.70    1.00
   1  -7   1    2.80    1.90
  -1  -7  -1    1.40    1.10
  -1   7  -1    2.90    1.30
   1   7   1   -0.80    1.20
   1   7   1    1.90    1.60
  -1   7  -1    0.40    1.00
   2  -7   1    2.10    1.20
   2  -7   1    2.40    1.20
  -2  -7  -1    0.10    1.20
   2  -7   1    1.70    1.60
  -2  -7  -1    0.50    1.20
   2   7   1    3.80    1.70
   2   7   1   -0.20    1.40
  -2   7  -1    4.00    2.00
  -2   7  -1    2.80    1.20
   3  -7   1   32.80    2.90
  -3  -7  -1   29.80    3.30
  -3  -7  -1   37.30    4.10
   3  -7   1   37.10    4.40
   3   7   1   37.60    3.70
  -3   7  -1   39.60    4.10
  -3   7  -1   31.20    3.00
   3   7   1   34.90    3.60
   4  -7   1   65.39    4.50
  -4  -7  -1   62.29    5.60
   4  -7   1   63.29    6.10
  -4  -7  -1   62.29    4.90
  -4   7  -1   60.59    5.70
   4   7   1   66.49    5.10
  -4   7  -1   59.39    4.50
   4   7   1   66.29    5.00
  -5  -7  -1   26.30    4.50
  -5  -7  -1   21.70    3.30
   5   7   1   21.70    3.70
   5   7   1   20.00    3.60
  -5   7  -1   25.80    3.50
  -6  -7  -1   49.50    5.80
   6  -7   1   50.39    4.60
  -6  -7  -1   48.40    5.10
   6   7   1   48.70    5.30
  -6   7  -1   45.90    5.10
  -6   7  -1   44.80    4.40
   7  -7   1   11.10    2.80
  -7  -7  -1   15.30    4.10
   7   7   1    7.60    3.10
  -7   7  -1   14.00    3.40
  -7   7  -1    9.70    2.80
  -8  -7  -1   47.10    7.20
   8  -7   1   41.20    4.90
  -8   7  -1   40.30    5.20
  -8   7  -1   34.60    5.80
   8   7   1   33.60    5.70
  -9  -7  -1   11.60    4.60
   9  -7   1    5.70    3.60
  -9   7  -1    6.10    4.30
  -9   7  -1    6.70    3.50
   9   7   1    9.10    4.60
  10  -7   1   17.00    5.60
 -10  -7  -1   22.30    5.40
  10   7   1   24.80    6.50
 -10   7  -1   27.10    5.60
 -10   7  -1   17.80    5.00
 -11  -7  -1    8.00    5.20
  11   7   1  -11.80    6.10
 -11   7  -1    6.40    4.30
 -11  -8   1    7.50    4.90
  11   8  -1   -1.30    5.40
 -11   8   1    6.40    3.80
 -11   8   1    2.30    4.00
 -10  -8   1    0.70    3.90
 -10   8   1   -9.00    3.40
 -10   8   1   -0.50    2.90
  10   8  -1   -2.60    4.20
   9  -8  -1   38.70    4.50
  -9  -8   1   38.80    6.50
  -9   8   1   48.20    5.80
  -9   8   1   36.60    6.10
   9   8  -1   43.10    6.40
  -8  -8   1   17.20    4.50
   8  -8  -1   17.20    3.40
  -8   8   1   11.80    3.30
  -8   8   1   18.50    4.60
   8   8  -1   19.00    4.40
   7  -8  -1   18.70    2.80
  -7  -8   1   17.40    4.60
  -7   8   1   19.60    4.90
   7   8  -1   17.90    4.40
  -7   8   1   20.30    3.80
   6  -8  -1   60.59    3.80
  -6  -8   1   63.49    6.60
  -6  -8   1   61.69    5.50
  -6   8   1   55.99    4.90
   6   8  -1   61.99    5.90
  -5  -8   1  342.67   17.90
   5  -8  -1  327.97   14.80
  -5  -8   1  304.27   16.40
  -5   8   1  330.67   15.70
   5   8  -1  325.57   16.70
   4  -8  -1   11.40    1.40
  -4  -8   1   13.50    3.80
   4  -8  -1   12.20    1.50
  -4  -8   1    9.90    2.40
   4  -8  -1   11.00    3.20
  -4   8   1   14.00    2.30
   4   8  -1    8.80    2.60
   4   8  -1    9.90    2.80
   3  -8  -1  417.36   17.90
   3  -8  -1  391.86   17.80
   3  -8  -1  419.76   20.90
  -3  -8   1  407.16   20.50
  -3  -8   1  384.46   20.30
   3   8  -1  408.56   19.50
  -3   8   1  424.26   19.10
   3   8  -1  405.66   20.00
  -3   8   1  358.06   20.20
   2  -8  -1   37.50    2.50
  -2  -8   1   44.70    4.70
  -2  -8   1   39.10    3.60
   2  -8  -1   36.00    4.40
   2   8  -1   40.40    3.80
  -2   8   1   39.00    4.50
   2   8  -1   39.80    4.10
  -2   8   1   43.70    3.00
   1  -8  -1  209.08    9.90
  -1  -8   1  210.58   12.10
   1  -8  -1  216.68   12.10
  -1  -8   1  216.98   10.70
   1  -8  -1  208.28   10.20
  -1   8   1  205.18   11.80
  -1   8   1  206.58   10.30
   1   8  -1  211.88   10.90
   0  -8  -1  120.09    6.40
   0  -8   1  118.99    8.10
   0  -8   1  116.29    6.60
   0  -8  -1  129.29    7.00
   0  -8   1  115.89    6.60
   0  -8  -1  121.79    7.90
   0   8   1  117.49    7.70
   0   8   1  121.09    6.70
   1  -8   1  669.93   32.40
   1  -8   1  740.23   31.40
  -1  -8  -1  676.03   32.00
   1  -8   1  656.53   30.50
  -1  -8  -1  717.73   31.50
   1   8   1  659.63   31.70
  -1   8  -1  639.94   32.70
  -1   8  -1  709.73   31.00
   1   8   1  666.23   30.80
   2  -8   1   63.69    4.30
  -2  -8  -1   70.69    4.70
   2  -8   1   75.09    6.20
  -2  -8  -1   69.59    5.80
   2  -8   1   68.99    4.40
   2   8   1   68.89    5.00
   2   8   1   69.19    5.90
  -2   8  -1   70.69    5.70
  -2   8  -1   73.49    4.70
  -3  -8  -1   39.80    4.70
   3  -8   1   49.10    5.20
  -3  -8  -1   35.40    3.50
   3   8   1   47.30    4.20
  -3   8  -1   43.10    3.60
   3   8   1   43.70    4.10
  -3   8  -1   35.70    4.40
  -4  -8  -1    1.50    1.60
   4  -8   1    5.40    1.60
   4  -8   1    3.80    2.60
  -4  -8  -1    6.30    2.70
   4   8   1    3.80    2.20
  -4   8  -1    4.90    1.80
   4   8   1    3.70    1.90
  -5  -8  -1  467.75   23.50
   5  -8   1  463.55   21.60
  -5   8  -1  464.45   22.20
   5   8   1  459.25   22.70
  -6  -8  -1   -0.40    3.00
   6  -8   1    1.70    2.00
  -6   8  -1    2.20    2.00
   6   8   1    0.20    2.60
  -7  -8  -1   49.30    6.80
   7  -8   1   54.59    4.90
  -7   8  -1   57.99    5.30
   7   8   1   54.19    6.10
  -7   8  -1   51.79    5.80
  -8  -8  -1    8.80    4.40
   8  -8   1    7.90    3.20
   8   8   1    4.80    4.20
  -8   8  -1    3.10    2.80
  -8   8  -1    3.00    3.20
   9  -8   1    5.50    4.20
  -9  -8  -1   -3.40    3.40
  -9   8  -1    1.50    3.50
  -9   8  -1    4.00    3.70
   9   8   1    6.00    4.50
 -10  -8  -1    9.50    5.00
  10  -8   1   -2.50    6.30
 -10   8  -1    4.20    4.30
  10   8   1   -5.00    8.90
 -10   8  -1    2.10    4.10
 -11  -8  -1   18.20    5.90
 -11   8  -1   10.70    5.50
  11   8   1    9.10    7.10
 -11  -9   1   -7.50    4.60
  11   9  -1   -7.90    6.00
 -11   9   1    1.50    7.60
 -11   9   1    1.10    3.90
 -10  -9   1   70.99    9.70
  10   9  -1   64.19    8.30
 -10   9   1   60.19    7.60
 -10   9   1   64.89    7.50
  -9  -9   1    1.00    4.00
  -9   9   1    5.90    3.60
  -9   9   1    8.90    3.60
   9   9  -1    6.80    4.40
  -8  -9   1   63.69    7.30
  -8   9   1   64.79    6.80
   8   9  -1   51.19    6.50
  -8   9   1   50.89    5.70
   7  -9  -1   24.60    2.70
  -7  -9   1   39.50    6.50
  -7   9   1   22.50    4.80
   7   9  -1   22.10    4.20
  -7   9   1   29.40    3.80
   6  -9  -1    5.80    1.80
  -6  -9   1    1.80    3.60
   6   9  -1    1.90    2.60
  -6   9   1    8.70    2.50
  -5  -9   1   49.10    5.80
   5  -9  -1   58.89    7.90
  -5  -9   1   47.30    6.50
   5  -9  -1   49.10    4.10
  -5   9   1   55.49    4.20
   5   9  -1   48.30    5.30
  -4  -9   1   24.90    3.50
  -4  -9   1   40.60    6.00
   4  -9  -1   39.20    5.80
   4  -9  -1   27.90    2.20
  -4   9   1   30.50    3.00
   4   9  -1   25.20    3.70
   3  -9  -1   -1.50    1.60
  -3  -9   1    5.10    2.70
   3  -9  -1    1.50    0.80
  -3  -9   1    1.20    1.50
   3  -9  -1    2.30    0.90
   3   9  -1    0.70    1.90
  -3   9   1    2.40    1.40
   2  -9  -1   70.09    6.10
  -2  -9   1   66.29    4.70
  -2  -9   1   79.79    6.50
   2  -9  -1   65.39    3.80
   2  -9  -1   61.79    3.70
  -2  -9   1   62.29    4.80
  -2   9   1   71.69    5.90
   2   9  -1   67.19    5.10
   2   9  -1   66.89    5.70
  -2   9   1   70.99    4.50
   1  -9  -1   20.20    2.30
   1  -9  -1   19.50    2.30
  -1  -9   1   21.10    3.00
  -1  -9   1   24.50    4.70
   1  -9  -1   22.30    4.10
  -1   9   1   20.10    2.70
   1   9  -1   21.90    3.30
   1   9  -1   18.80    3.60
  -1   9   1   21.60    4.00
   0  -9  -1   37.70    4.30
   0  -9   1   24.90    2.90
   0  -9  -1   32.30    2.80
   0  -9   1   27.00    2.80
   0  -9   1   36.80    4.30
   0  -9  -1   29.80    2.60
   0   9  -1   35.70    4.10
   0   9   1   40.80    5.20
   0   9   1   31.90    3.00
  -1  -9  -1    4.90    1.70
   1  -9   1    6.80    1.80
  -1  -9  -1    5.10    2.30
  -1  -9  -1    5.30    1.50
   1  -9   1   12.50    3.30
   1  -9   1    7.90    1.80
   1   9   1    5.80    2.40
  -1   9  -1    4.20    1.60
   1   9   1    2.80    1.70
  -1   9  -1    4.20    1.70
  -2  -9  -1   15.20    3.50
   2  -9   1   12.20    3.50
  -2  -9  -1    6.70    1.90
   2  -9   1    4.90    1.50
  -2   9  -1    8.50    3.30
  -2   9  -1    9.30    2.20
   2   9   1    3.00    2.10
   2   9   1    9.70    2.40
   3  -9   1    0.60    2.10
  -3  -9  -1    3.50    2.10
   3  -9   1    1.10    1.30
  -3   9  -1    0.70    1.40
   3   9   1    1.60    1.70
   3   9   1   -0.10    1.60
   4  -9   1   71.79    7.60
   4  -9   1   80.29    5.20
  -4  -9  -1   76.59    6.90
  -4   9  -1   88.49    5.70
   4   9   1   92.19    6.30
   5  -9   1    5.10    3.20
   5  -9   1    2.00    1.90
   5   9   1    4.10    2.90
  -5   9  -1    4.40    1.80
   6  -9   1    9.10    2.60
  -6  -9  -1    2.20    2.70
  -6   9  -1    1.40    2.10
   6   9   1    7.70    2.80
  -7  -9  -1   82.09    7.90
   7  -9   1   76.09    5.90
  -7   9  -1   82.59    7.50
  -7   9  -1   76.19    6.40
   7   9   1   72.59    7.70
   8  -9   1   65.09    6.50
  -8  -9  -1   94.49    8.90
  -8   9  -1   88.29    8.00
  -8   9  -1   80.19    7.10
  -9  -9  -1    8.40    4.60
   9  -9   1   -1.10    4.80
   9   9   1    2.60    4.30
  -9   9  -1   -0.50    3.00
  -9   9  -1   -7.70    3.30
 -10  -9  -1    7.00    4.80
 -10   9  -1   -2.90    3.50
  10   9   1   -5.00    5.10
 -10   9  -1   11.90    4.50
 -10 -10   1   -0.90    4.20
 -10  10   1   -4.80    3.10
  10  10  -1   -8.80    4.50
 -10  10   1    0.60    3.80
  -9 -10   1   -1.70    4.00
  -9  10   1    4.20    3.70
  -9  10   1    1.00    2.90
  -8 -10   1   -2.10    3.60
  -8  10   1    0.60    2.60
   8  10  -1   -0.30    3.60
  -8  10   1    0.10    2.20
  -7 -10   1   77.79    8.20
  -7  10   1   81.59    7.30
  -7  10   1   80.99    6.10
   7  10  -1   68.19    7.40
  -6 -10   1  140.59   10.20
   6  10  -1  120.09    8.90
  -6  10   1  124.09    7.70
   5 -10  -1   65.79    3.50
   5 -10  -1   68.39    6.90
  -5 -10   1   57.79    6.80
  -5  10   1   61.09    4.80
   5  10  -1   63.89    6.00
   4 -10  -1  327.77   18.80
  -4 -10   1  324.17   18.40
   4  10  -1  344.47   17.30
  -4  10   1  336.57   16.10
   3 -10  -1   84.39    4.30
   3 -10  -1   83.39    7.90
  -3 -10   1   73.69    7.00
   3  10  -1   80.89    6.00
  -3  10   1   79.69    5.10
   2 -10  -1   16.10    4.10
   2 -10  -1   11.70    1.60
  -2 -10   1    8.00    3.20
   2  10  -1    9.80    2.50
  -1 -10   1  383.76   18.70
  -1 -10   1  415.36   20.80
   1 -10  -1  382.86   17.80
   1 -10  -1  409.66   20.70
  -1  10   1  397.26   18.40
   1  10  -1  379.56   18.90
  -1  10   1  361.06   20.70
   0 -10   1  181.78    9.80
   0 -10   1  184.48   11.70
   0 -10  -1  184.98    9.40
   0 -10  -1  191.08   11.70
   0  10   1  182.48    9.90
   0  10   1  193.78   11.30
   1 -10   1  472.15   22.60
   1 -10   1  494.05   25.10
  -1 -10  -1  482.55   22.70
  -1 -10  -1  497.05   24.70
   1  10   1  501.75   23.00
   1  10   1  489.75   24.20
  -2 -10  -1   24.10    4.60
   2 -10   1   24.90    4.70
   2 -10   1   24.30    2.70
   2  10   1   29.30    3.90
  -2  10  -1   31.70    3.90
  -3 -10  -1  354.96   19.30
   3 -10   1  373.26   20.30
   3 -10   1  356.46   17.20
   3  10   1  371.56   18.30
  -3  10  -1  376.76   17.90
   4 -10   1    8.30    2.00
   4 -10   1    4.50    2.50
   4  10   1    7.70    2.80
  -4  10  -1    6.90    2.20
   5 -10   1  102.69    6.40
   5 -10   1  104.99    8.90
  -5 -10  -1   93.59    8.40
  -5  10  -1  105.89    6.90
   5  10   1  100.19    8.50
   6 -10   1  220.28   11.70
  -6 -10  -1  233.98   14.50
  -6  10  -1  226.08   12.50
   6  10   1  227.58   14.00
  -7 -10  -1   22.30    5.40
   7 -10   1   19.20    3.40
  -7  10  -1   25.70    4.00
  -7  10  -1   23.30    5.30
   7  10   1   16.00    4.30
   8 -10   1   62.09    9.30
  -8 -10  -1   58.89    8.80
  -8  10  -1   59.19    6.30
   8  10   1   66.09    7.60
  -8  10  -1   59.19    6.90
  -9 -10  -1   19.10    5.90
   9 -10   1   32.40    6.40
  -9  10  -1   24.60    4.50
  -9  10  -1   24.40    9.20
   9  10   1   32.60    6.40
 -10 -10  -1    0.10    4.60
 -10  10  -1    1.80    4.30
 -10  10  -1   -1.90    3.30
  10  10   1    6.70    5.00
 -10 -11   1   -5.40    4.80
 -10  11   1   -4.50    3.40
  10  11  -1   -3.20    4.90
 -10  11   1    4.10    4.40
  -9 -11   1   27.30    7.20
  -9  11   1   13.40    3.70
  -9  11   1   19.80    5.00
   9  11  -1   11.80    4.80
  -8 -11   1   76.09    9.10
  -8  11   1   71.29    6.40
   8  11  -1   69.39    8.10
  -8  11   1   67.39    7.40
  -7 -11   1   12.20    5.00
   7  11  -1   14.90    4.80
  -7  11   1   20.80    3.40
  -6 -11   1   13.40    4.80
  -6  11   1   20.00    3.40
  -5 -11   1   12.20    4.40
   5 -11  -1   13.20    4.50
  -5  11   1   12.70    2.40
   5  11  -1   13.50    3.80
   4 -11  -1   19.90    5.20
  -4 -11   1   12.40    4.10
  -4  11   1   17.40    2.90
   4  11  -1   12.60    3.40
  -3 -11   1  108.69    8.80
   3 -11  -1  113.99    9.20
   3  11  -1  104.39    7.50
  -3  11   1  113.19    6.70
  -2 -11   1    3.20    3.20
   2 -11  -1    0.40    0.90
   2 -11  -1   -0.30    2.40
   2  11  -1    1.10    2.00
   1 -11  -1   52.29    6.90
  -1 -11   1   33.20    3.50
   1 -11  -1   29.30    2.70
   1  11  -1   36.60    4.00
   0 -11  -1    8.20    1.80
   0 -11   1    7.00    1.90
   0 -11  -1   12.00    3.90
   1 -11   1    0.30    1.50
  -1 -11  -1    0.00    2.20
   1 -11   1   -0.10    1.80
  -2 -11  -1    4.40    2.70
   2 -11   1    2.90    1.40
   2 -11   1    3.30    2.40
  -2  11  -1    1.90    1.70
   2  11   1   -0.20    2.10
  -3 -11  -1    9.00    3.50
   3 -11   1    6.50    1.90
   3 -11   1    3.80    2.50
  -3  11  -1    5.80    2.20
   3  11   1    5.90    2.70
  -4 -11  -1   78.79    7.40
   4 -11   1   78.99    7.80
   4 -11   1   76.09    5.30
   4  11   1   86.19    6.70
  -4  11  -1   76.49    5.70
   5 -11   1   75.99    8.00
   5 -11   1   68.09    5.10
  -5 -11  -1   64.49    7.40
  -5  11  -1   66.49    5.50
   5  11   1   73.99    6.40
   6 -11   1   22.20    3.50
  -6 -11  -1   24.60    5.30
  -6  11  -1   20.50    3.70
   6  11   1   25.20    4.50
   7 -11   1   11.60    4.50
  -7 -11  -1   15.20    5.10
  -7  11  -1   27.30    4.40
   7  11   1   20.60    5.00
   8 -11   1    6.70    6.30
  -8 -11  -1   10.30    5.10
  -8  11  -1   11.40    3.80
   8  11   1   13.30    4.80
  -8  11  -1   10.30    3.60
  -9 -11  -1    0.00    4.80
   9  11   1    5.20    5.00
  -9  11  -1    3.90    3.90
  -9  11  -1    1.90    3.30
 -10 -11  -1   13.80    5.70
 -10  11  -1   13.00    5.60
 -10 -12   1    6.70    6.20
 -10  12   1    2.90    4.30
 -10  12   1    9.80    4.20
  -9 -12   1    4.90    4.40
   9  12  -1    8.70    4.80
  -9  12   1   12.00    5.20
  -9  12   1    1.80    3.00
  -8 -12   1    4.00    3.90
  -8  12   1   -0.10    3.20
   8  12  -1    5.40    4.10
  -8  12   1    1.60    2.70
  -7 -12   1   -2.90    3.10
   7  12  -1    0.80    3.10
  -7  12   1   -2.00    2.20
  -6 -12   1   54.29    7.70
   6  12  -1   36.30    5.40
  -6  12   1   50.99    4.50
   5 -12  -1   17.80    5.60
  -5 -12   1   17.90    5.80
   5  12  -1   17.80    3.90
  -5  12   1   23.00    3.50
  -4 -12   1   18.40    5.30
   4 -12  -1   15.10    4.00
  -4  12   1   17.80    2.70
   4  12  -1   17.20    3.90
   3 -12  -1   59.29    6.70
   3 -12  -1   60.09    3.50
  -3 -12   1   46.80    5.20
  -3 -12   1   58.19    7.00
   3  12  -1   68.09    5.80
  -3  12   1   56.09    4.50
  -2 -12   1  329.17   19.10
   2 -12  -1  339.67   19.30
   2 -12  -1  340.77   15.70
   2  12  -1  346.07   17.50
   1 -12  -1   17.80    2.30
   1 -12  -1   17.10    4.40
  -1 -12   1   23.90    5.20
  -1 -12   1   12.00    2.50
   1  12  -1   16.00    3.30
   0 -12  -1  133.99    9.70
   0 -12   1  121.09    9.60
   0 -12  -1  106.99    6.70
   0 -12   1  119.39    7.60
   0  12   1  123.09    7.50
  -1 -12  -1   24.70    3.40
   1 -12   1   30.50    3.70
   1 -12   1   38.70    6.70
  -1 -12  -1   29.60    5.40
   1  12   1   35.00    4.40
  -2 -12  -1  122.09    9.40
  -2 -12  -1  102.29    7.10
   2 -12   1  115.39    9.20
   2 -12   1  112.09    6.60
   2  12   1  103.19    7.50
  -2  12  -1  113.49    7.20
   3 -12   1   71.09    4.90
  -3 -12  -1   76.09    7.40
   3 -12   1   82.29    7.70
  -3  12  -1   70.19    5.50
   3  12   1   66.79    6.20
   4 -12   1   88.39    8.30
   4 -12   1   75.79    5.40
  -4 -12  -1   81.09    8.10
   4  12   1   85.99    7.00
  -4  12  -1   85.39    6.10
  -5 -12  -1   99.69    9.00
   5 -12   1   92.79    6.90
   5 -12   1  110.29    9.60
  -5  12  -1  100.69    7.10
   5  12   1   97.09    8.00
   6 -12   1   64.89    5.30
  -6 -12  -1   74.49    9.50
   6  12   1   60.39    7.00
  -6  12  -1   65.99    5.80
  -7 -12  -1    4.80    5.00
  -7  12  -1    7.50    2.90
   7  12   1    9.10    4.20
  -8 -12  -1   14.40    4.60
  -8  12  -1   21.20    5.50
  -8  12  -1    4.80    3.60
   8  12   1    7.90    5.30
  -9 -12  -1    0.50    5.10
  -9  12  -1   -1.40    4.00
  -9  12  -1    6.20    3.60
   9  12   1   -3.30    4.80
  -9 -13   1   10.00    5.40
  -9  13   1    6.70    3.60
   9  13  -1    6.30    4.70
  -9  13   1   13.30    4.50
  -8 -13   1   11.90    8.20
   8  13  -1   -7.00    4.10
  -8  13   1    4.50    3.20
  -8  13   1   -3.50    3.70
  -7 -13   1   64.09    8.90
   7  13  -1   45.60    6.70
  -7  13   1   61.69    5.40
  -6 -13   1   18.20    4.70
  -6  13   1    7.10    2.50
   6  13  -1    6.80    4.00
   5 -13  -1   28.00    5.70
  -5 -13   1   30.90    6.30
  -5  13   1   33.90    3.80
   5  13  -1   32.40    5.50
  -4 -13   1   -0.50    2.90
   4 -13  -1   -2.90    2.30
   4  13  -1    0.20    2.60
  -4  13   1   -0.30    1.50
   3 -13  -1    3.80    2.80
  -3 -13   1    6.70    4.10
   3  13  -1    2.30    2.70
  -2 -13   1   44.50    4.50
   2 -13  -1   42.80    3.40
  -2 -13   1   59.69    8.10
   2 -13  -1   59.29    8.90
   2  13  -1   48.40    5.20
  -1 -13   1   78.69    5.70
   1 -13  -1   80.79    7.60
   1 -13  -1   73.69    4.80
  -1 -13   1   78.49    7.90
   0 -13  -1    1.50    2.90
   0 -13   1    2.20    2.40
   0 -13   1    0.30    1.60
   0 -13  -1   -1.00    1.30
   0  13   1   -0.70    2.00
   1 -13   1    1.10    2.50
  -1 -13  -1    0.40    2.40
  -1 -13  -1    0.70    1.60
   1 -13   1   -1.30    1.40
   1  13   1   -1.80    2.00
  -2 -13  -1    5.10    3.40
   2 -13   1    5.20    1.90
   2 -13   1    8.70    4.00
   2  13   1    3.10    2.20
   3 -13   1   94.49    8.50
   3 -13   1   64.49    5.00
  -3 -13  -1   81.29    7.80
  -3  13  -1   67.39    5.50
   3  13   1   72.29    6.50
  -4 -13  -1   48.60    7.30
   4 -13   1   41.50    4.90
   4 -13   1   46.00    7.80
  -4  13  -1   39.50    4.30
   4  13   1   31.30    5.00
   5 -13   1   48.50    4.70
  -5 -13  -1   66.59    8.70
   5 -13   1   70.19    9.70
   5  13   1   51.99    6.70
  -5  13  -1   50.59    5.10
  -6 -13  -1    0.80    4.30
   6  13   1    9.20    3.60
  -7 -13  -1   46.00    8.20
   7  13   1   35.50    6.80
  -7  13  -1   37.90    6.30
  -8 -13  -1   11.70    5.40
  -8  13  -1    7.10    4.10
  -8  13  -1    5.90    3.50
   8  13   1    0.90    4.50
  -9  13  -1    1.70    4.00
  -8 -14   1   17.70    5.20
   8  14  -1   17.10    5.10
  -8  14   1   20.60    4.50
  -8  14   1   20.70    4.80
  -7 -14   1    5.80    5.00
  -7  14   1   10.90    3.30
   7  14  -1    9.50    4.30
  -6 -14   1   70.09    9.90
   6  14  -1   58.49    7.00
  -6  14   1   71.29    5.80
  -5 -14   1   14.20    4.90
   5 -14  -1   16.70    5.00
   5  14  -1   16.80    3.70
  -5  14   1   16.00    2.90
   4 -14  -1   24.70    5.10
  -4 -14   1   16.50    5.00
  -4 -14   1   11.80    3.40
   4  14  -1   13.80    3.40
  -4  14   1   21.70    3.40
   3 -14  -1   59.09    9.20
  -3 -14   1   53.59    7.70
   3  14  -1   47.10    5.40
   2 -14  -1   85.79    8.50
  -2 -14   1   78.49    6.40
  -2 -14   1   82.49    8.40
   2 -14  -1   83.19    5.50
   2  14  -1   77.39    6.90
   1 -14  -1  270.17   16.70
  -1 -14   1  261.97   16.80
   0 -14   1   34.30    4.20
   0 -14   1   44.20    7.30
   0 -14  -1   52.39    7.70
   0 -14  -1   31.40    3.50
   0  14   1   43.00    5.20
   1 -14   1  140.49    7.90
  -1 -14  -1  124.99   10.50
  -1 -14  -1  123.49    7.80
   1 -14   1  127.79   10.80
   1  14   1  130.59    8.70
  -2 -14  -1  116.69    7.90
   2 -14   1  116.49    7.40
   2 -14   1  129.39   10.40
  -2 -14  -1  141.79   11.00
   2  14   1  123.79    8.50
   3 -14   1   70.99    6.30
  -3 -14  -1   69.39    8.20
   3 -14   1   78.99    8.00
  -3 -14  -1   59.79    5.80
  -3  14  -1   83.59    6.20
   3  14   1   83.49    7.10
   4 -14   1   11.30    4.80
  -4 -14  -1   13.00    4.20
   4 -14   1    9.90    2.70
   4  14   1    8.90    3.80
  -4  14  -1   13.00    3.10
   5 -14   1   23.70    6.10
  -5 -14  -1   30.00    6.30
   5  14   1   23.00    5.00
  -5  14  -1   27.10    5.30
   6 -14   1   39.80    8.50
  -6 -14  -1   37.00    7.10
   6  14   1   37.30    6.10
  -6  14  -1   32.20    4.70
  -7 -14  -1    8.10    5.30
   7  14   1    9.00    4.80
  -7  14  -1   10.40    3.50
  -8 -14  -1   17.60    6.10
  -8  14  -1    2.80    4.80
   8  14   1    3.40    4.60
  -8  14  -1   13.70    4.30
  -8 -15   1   16.80    7.10
  -8  15   1   17.20    4.70
  -8  15   1   31.30    7.50
   8  15  -1   18.90    5.20
  -7 -15   1   42.00    8.30
   7  15  -1   21.00    5.20
  -7  15   1   32.30    4.80
  -6 -15   1   -0.80    4.30
   6 -15  -1    3.90    4.20
   6  15  -1    5.10    3.50
  -6  15   1    4.50    2.80
  -5 -15   1    7.90    3.90
   5 -15  -1    7.80    4.20
  -5 -15   1   14.70    5.80
  -5  15   1    6.10    2.20
   5  15  -1    1.70    3.40
  -4 -15   1   19.70    6.30
   4 -15  -1   19.00    5.10
   4  15  -1   15.10    4.50
   3 -15  -1    2.30    2.70
  -3 -15   1    7.30    4.40
  -3 -15   1    1.00    2.60
   3  15  -1    3.00    2.80
   2 -15  -1    6.00    3.10
  -2 -15   1    0.90    3.30
  -2 -15   1    2.00    2.30
   2  15  -1    3.40    2.90
  -1 -15   1    0.70    2.00
   1 -15  -1    2.10    1.70
  -1 -15   1    3.80    2.60
   1 -15  -1    4.30    3.30
   0 -15  -1   11.90    4.20
   0 -15   1    7.70    4.10
   0 -15   1    8.70    2.40
   0 -15  -1    8.50    2.00
  -1 -15  -1    0.00    1.90
  -1 -15  -1   -0.70    2.50
   1 -15   1    0.90    2.00
   1 -15   1    0.50    2.80
   1  15   1    2.10    2.30
  -2 -15  -1    4.60    2.50
   2 -15   1    3.20    2.10
  -2 -15  -1    2.80    3.10
   2 -15   1    1.40    2.60
   2  15   1    2.70    2.90
   3 -15   1   -1.90    2.40
  -3 -15  -1   -1.70    3.00
   3 -15   1    1.20    3.00
  -3 -15  -1    5.20    3.80
   3  15   1    7.10    3.10
  -4 -15  -1   15.90    4.80
   4 -15   1   17.50    5.50
  -4 -15  -1   21.00    4.40
   4  15   1   16.40    4.20
  -5 -15  -1   17.10    5.10
   5 -15   1   40.10   10.30
  -5  15  -1   20.60    4.10
   5  15   1   16.20    4.70
  -6 -15  -1   11.30    5.20
   6 -15   1    7.10    4.30
  -6  15  -1   19.20    4.20
   6  15   1   21.90    5.20
  -7 -15  -1   15.00    6.20
   7  15   1    6.50    4.80
  -7  15  -1    8.00    3.50
  -7 -16   1    1.70    5.00
  -7  16   1    1.30    3.20
   7  16  -1   -7.10    3.70
  -6 -16   1   12.70    5.60
   6 -16  -1   11.70    5.20
  -6 -16   1   -2.50    4.10
   6  16  -1    3.30    4.20
  -6  16   1   13.10    3.30
  -5 -16   1   19.70    5.90
   5 -16  -1   36.60    7.30
   5  16  -1   22.80    5.30
  -4 -16   1   10.80    4.20
  -4 -16   1   20.50    6.20
   4 -16  -1   10.50    4.00
   4  16  -1   13.10    4.50
  -3 -16   1   63.59    9.10
  -3 -16   1   58.49    6.40
   3 -16  -1   86.59    9.20
   3  16  -1   70.59    6.90
  -2 -16   1    0.60    2.60
  -2 -16   1    1.40    2.60
   2 -16  -1   -0.10    3.00
   1 -16  -1   71.09    8.20
  -1 -16   1   60.79    5.60
  -1 -16   1   74.89    8.40
   0 -16  -1   18.10    5.30
   0 -16  -1    3.10    2.30
   0 -16   1    6.20    2.60
   0 -16   1   20.40    5.50
   1 -16   1   16.10    3.10
   1 -16   1   12.10    4.90
  -1 -16  -1    5.20    3.70
  -1 -16  -1    7.50    2.50
   1  16   1   10.80    3.80
   2 -16   1   -0.30    2.30
   2 -16   1   -4.30    3.20
  -2 -16  -1    5.00    2.80
  -2 -16  -1    2.90    3.30
   2  16   1   -3.20    2.60
  -3 -16  -1   99.69    9.80
   3 -16   1  135.29   11.30
  -3 -16  -1   88.59    8.00
   3  16   1  100.99    8.30
  -4 -16  -1    5.40    4.60
   4 -16   1   -0.80    2.40
   4  16   1   -3.00    3.10
   5 -16   1    5.20    4.30
  -5 -16  -1   12.50    5.40
  -5  16  -1    7.30    3.10
   5  16   1   10.00    4.10
  -6 -16  -1    6.50    5.30
   6 -16   1   -0.40    3.60
   6  16   1    6.30    4.60
  -6  16  -1    0.70    3.00
   6 -17  -1   -7.70    3.80
  -6 -17   1    1.40    4.50
  -5 -17   1    7.60    8.10
  -5 -17   1   17.60    5.70
   5 -17  -1   13.90    5.30
   5  17  -1   18.60    5.10
  -4 -17   1   23.40    5.00
   4 -17  -1   42.00    7.60
  -4 -17   1   45.60    8.20
   4  17  -1   27.10    5.30
   3 -17  -1    4.70    4.30
  -3 -17   1    0.80    4.50
   3  17  -1    5.20    3.10
  -2 -17   1   -1.70    3.20
  -2 -17   1    4.60    4.30
   2 -17  -1    1.10    3.00
  -1 -17   1   -0.80    2.30
  -1 -17   1    7.10    4.10
   1 -17  -1   -0.20    2.90
   0 -17  -1   29.60    6.50
   0 -17   1   19.00    5.10
   0 -17   1   19.30    3.40
   1 -17   1    2.00    2.60
  -1 -17  -1    0.50    2.70
   1 -17   1    2.60    3.40
  -1 -17  -1    5.80    4.10
   1  17   1    0.20    2.60
  -2 -17  -1    3.80    4.20
   2 -17   1    6.10    4.70
  -2 -17  -1    6.10    3.10
   2  17   1    9.30    3.30
  -3 -17  -1    0.20    4.00
   3 -17   1    6.10    4.10
  -3 -17  -1    3.30    3.70
  -4 -17  -1   11.30    5.50
  -4 -17  -1   12.80    7.30
   4  17   1    4.50    4.50
   5 -17   1    1.80    3.60
  -5 -17  -1    4.30    4.80
   5  17   1    8.20    4.50
  -5  17  -1    2.90    2.80
   4 -18  -1   17.30    6.10
  -4 -18   1   24.30    6.90
   4  18  -1   20.60    5.40
   3 -18  -1   57.89   10.30
  -3 -18   1   47.20    9.10
  -2 -18   1    3.60    5.40
   2 -18  -1    7.20    4.20
  -2 -18   1    4.10    5.20
  -1 -18   1    3.70    3.60
   1 -18  -1    0.20    4.10
  -1 -18   1    5.90    4.20
   0 -18   1    4.70    3.30
   0 -18  -1    3.70    3.50
   0 -18   1    0.30    3.90
   1 -18   1   58.59   10.10
  -1 -18  -1   54.99    8.90
  -2 -18  -1   10.90    4.80
   2 -18   1   10.50    4.30
   2  18   1    8.70    3.30
  -3 -18  -1   27.80    6.80
   3 -18   1   21.10    6.40
   3  18   1   28.90    5.20
  -4 -18  -1    1.30    4.70
   4 -18   1    8.40    5.00
   4  18   1   -1.10    3.30
   2 -19  -1    1.70    3.50
  -2 -19   1    9.50    5.00
  -1 -19   1    4.10    3.80
   1 -19  -1    0.20    3.30
   0 -19  -1   -0.10    3.50
   0 -19   1    0.80    3.00
   1 -19   1    2.50    3.50
  -1 -19  -1    3.70    4.20
   2 -19   1   -2.40    3.30
  -2 -19  -1    6.50    4.10
 -12   0   2   12.50    4.70
 -12   0   2   -4.90    6.00
  12   0  -2   -0.70    5.90
  11   0  -2   -1.60    4.50
 -11   0   2    0.80    3.40
 -11   0   2   -3.00    4.70
 -10   0   2    7.50    3.00
  10   0  -2    4.90    3.60
   9   0  -2   -2.90    2.20
  -9   0   2   -3.30    2.20
  -9   0   2   -2.20    2.80
  -8   0   2  197.18   11.20
  -7   0   2    2.00    2.00
   7   0  -2   -1.60    2.00
  -7   0   2    1.10    1.70
  -6   0   2  148.69    8.20
   6   0  -2  138.59    8.50
  -5   0   2    0.90    1.50
  -5   0   2    0.10    1.30
   5   0  -2    0.20    0.80
   5   0  -2    1.20    1.20
  -4   0   2  277.57   12.90
  -4   0   2  267.27   13.30
  -3   0   2    1.00    1.10
   3   0  -2   -0.10    1.00
  -3   0   2    0.60    1.00
   3   0  -2    0.50    0.80
  -2   0   2  195.88    9.10
   2   0  -2  192.08    8.70
  -2   0   2  184.18    8.80
   1   0  -2    1.30    0.70
  -1   0   2    2.10    0.70
   0   0   2 1787.72   74.49
   0   0  -2 1774.82   74.49
   0   0   2 1635.04   74.09
   1   0   2    1.10    1.00
  -1   0  -2    0.90    0.60
  -1   0  -2   -0.20    1.00
  -2   0  -2 9872.51  421.06
   2   0   2 9999.00  421.06
   2   0   2 9641.24  421.06
   3   0   2    0.30    0.90
   3   0   2    1.30    1.30
  -3   0  -2    0.50    1.00
  -4   0  -2 1609.24   69.09
  -4   0  -2 1579.04   69.19
   4   0   2 1567.04   69.09
   4   0   2 1555.94   68.99
   5   0   2    3.30    1.80
   5   0   2   -0.10    1.30
  -5   0  -2    0.90    1.60
  -5   0  -2   -0.90    1.70
  -6   0  -2  179.98   10.10
   6   0   2  160.88    9.70
   6   0   2  165.68   10.00
  -6   0  -2  187.28   10.20
  -7   0  -2    1.70    2.00
  -7   0  -2    2.70    2.30
   7   0   2    3.80    2.90
  -8   0  -2    5.20    3.30
  -8   0  -2    2.50    2.40
  -9   0  -2   -4.10    2.60
   9   0   2   -5.40    6.20
  -9   0  -2    0.10    3.80
 -10   0  -2   19.50    5.30
 -10   0  -2   11.20    6.20
  11   0   2   -0.30    6.70
 -11   0  -2   -2.00    3.40
  12  -1  -2   -5.60    7.70
 -12  -1   2    3.40    3.60
 -12   1   2    3.40    4.10
  12   1  -2   -4.00    6.60
 -12   1   2    2.50    5.60
 -11  -1   2    3.40    5.00
 -11  -1   2    7.60    4.60
  11  -1  -2    4.60    5.30
 -11   1   2    3.20    3.30
 -11   1   2   10.00    4.90
 -10  -1   2   -2.60    3.10
 -10  -1   2    2.10    2.70
  10  -1  -2   -1.20    3.20
 -10   1   2   -0.20    3.00
 -10   1   2    0.40    3.40
  -9  -1   2  155.08   10.50
  -9  -1   2  153.78   10.00
   9  -1  -2  149.99    9.30
  -9   1   2  140.89   10.20
   9   1  -2  154.38   11.30
  -9   1   2  145.49    9.60
   8  -1  -2   10.20    2.60
  -8  -1   2    7.30    2.70
  -8  -1   2   11.60    3.80
   8   1  -2    7.20    2.90
  -8   1   2   12.90    4.00
  -8   1   2    9.90    2.80
   7  -1  -2  298.57   14.80
  -7  -1   2  315.37   15.40
  -7  -1   2  304.17   16.00
  -7   1   2  293.07   15.80
   7   1  -2  285.07   15.10
  -7   1   2  307.47   15.10
  -6  -1   2   10.00    2.50
  -6  -1   2    7.50    2.10
   6  -1  -2    8.40    2.00
   6  -1  -2    5.40    1.90
  -6   1   2    6.30    2.40
   6   1  -2    7.30    2.10
  -6   1   2    7.80    1.80
   6   1  -2    9.10    2.20
  -5  -1   2  144.09    7.80
  -5  -1   2  153.18    8.40
   5  -1  -2  139.29    8.10
   5  -1  -2  143.69    7.40
  -5   1   2  141.29    8.20
   5   1  -2  134.29    7.80
  -5   1   2  146.39    7.60
  -4  -1   2   23.10    2.40
  -4  -1   2   21.50    2.60
   4  -1  -2   21.80    2.00
   4  -1  -2   19.60    2.50
   4   1  -2   23.80    3.10
  -4   1   2   26.20    3.10
  -4   1   2   21.60    2.10
   4   1  -2   20.70    2.50
   3  -1  -2    2.10    1.20
  -3  -1   2    1.60    1.10
   3  -1  -2    1.20    0.80
  -3  -1   2    1.20    1.10
  -3   1   2    0.60    0.80
   3   1  -2    1.70    1.00
  -3   1   2    1.40    1.20
  -2  -1   2   20.50    2.30
  -2  -1   2   12.10    1.50
  -2   1   2   14.50    1.30
   2   1  -2   23.40    2.60
  -2   1   2   16.40    1.70
  -1  -1   2   78.09    4.00
  -1  -1   2   80.69    4.10
   1   1  -2   77.19    4.00
  -1   1   2   76.19    3.80
   0  -1   2   15.60    1.50
   0  -1  -2   15.10    1.30
   0  -1   2   14.30    1.40
   0   1   2   15.60    1.30
   0   1  -2   15.00    1.40
   0   1   2   13.10    0.90
   0   1  -2   15.20    1.50
  -1  -1  -2   24.10    1.70
   1  -1   2   22.70    2.20
   1  -1   2   26.70    2.10
  -1  -1  -2   28.60    2.20
   1   1   2   24.00    1.70
  -1   1  -2   24.30    2.00
   1   1   2   24.50    2.20
  -1   1  -2   22.00    2.10
   2  -1   2   96.29    5.50
  -2  -1  -2  109.89    5.60
  -2  -1  -2  100.39    5.30
   2   1   2  105.79    5.60
  -2   1  -2   93.39    5.20
  -2   1  -2   99.89    5.60
   2   1   2  103.49    5.30
  -2   1  -2   99.49    5.60
  -3  -1  -2   17.40    2.30
   3  -1   2   15.10    2.20
  -3  -1  -2   14.30    2.10
  -3   1  -2   19.00    2.40
  -3   1  -2   18.30    2.30
   3   1   2   16.50    2.10
  -4  -1  -2   40.50    3.40
   4  -1   2   35.80    3.50
  -4  -1  -2   41.60    3.60
  -4   1  -2   36.40    3.30
   4   1   2   29.90    3.20
   4   1   2   36.70    5.00
  -4   1  -2   35.30    3.60
  -5  -1  -2  126.39    7.60
   5  -1   2  129.69    7.60
  -5  -1  -2  123.79    7.70
  -5   1  -2  123.99    7.70
   5   1   2  129.99    7.80
   5   1   2  132.59    7.50
  -5   1  -2  128.39    7.50
   6  -1   2    1.70    1.80
  -6  -1  -2    4.10    2.00
  -6  -1  -2    4.70    2.40
  -6   1  -2    4.70    2.00
   6   1   2    6.90    2.40
   6   1   2    3.30    2.10
  -6   1  -2    2.70    2.30
  -7  -1  -2   25.10    4.20
   7  -1   2   25.10    3.80
  -7  -1  -2   28.80    4.30
   7   1   2   21.00    3.60
  -7   1  -2   16.50    3.80
  -7   1  -2   20.50    3.70
  -8  -1  -2   21.50    4.00
  -8  -1  -2   27.10    4.60
   8  -1   2   27.90    4.30
   8   1   2   30.90    4.80
  -8   1  -2   19.40    4.40
  -8   1  -2   38.30    5.40
  -9  -1  -2   39.60    5.70
  -9  -1  -2   42.00    5.90
   9  -1   2   43.10    5.60
   9   1   2   41.70    6.30
  -9   1  -2   48.50    6.40
  -9   1  -2   42.20    6.10
 -10  -1  -2    1.10    3.60
 -10  -1  -2   20.20    5.50
  10  -1   2    1.60    4.30
 -10   1  -2    5.20    5.00
  10   1   2    4.10    4.10
 -10   1  -2   -1.10    3.60
 -11  -1  -2    6.70    4.20
  11  -1   2   13.80    5.70
 -11   1  -2    8.20    4.90
  11   1   2    7.40    6.10
  12  -2  -2   -8.50    6.70
 -12  -2   2    3.50    3.90
 -12   2   2    2.60    3.60
 -12   2   2    4.30    5.50
  12   2  -2   -8.60    6.50
 -11  -2   2    4.20    4.00
  11  -2  -2    5.60    4.50
 -11  -2   2   -0.30    4.30
  11   2  -2   -2.30    4.20
 -11   2   2   -0.60    3.30
 -11   2   2   -5.00    4.30
 -10  -2   2    4.80    2.90
  10  -2  -2   -4.10    3.70
 -10  -2   2    2.40    4.00
  10   2  -2    2.20    3.40
 -10   2   2    0.90    2.70
 -10   2   2    3.50    3.40
   9  -2  -2    9.00    4.80
  -9  -2   2    7.30    3.20
  -9  -2   2    7.20    3.50
  -9   2   2    7.20    3.40
  -9   2   2    4.10    3.10
   9   2  -2    3.60    3.20
   8  -2  -2   65.49    5.40
  -8  -2   2   67.89    6.00
  -8  -2   2   61.19    6.40
  -8   2   2   72.09    6.30
  -8   2   2   64.19    5.40
   8   2  -2   76.39    5.90
  -7  -2   2   15.00    3.90
  -7  -2   2   13.30    4.60
   7  -2  -2   14.50    2.40
   7   2  -2   10.10    2.60
  -7   2   2   19.00    3.00
  -7   2   2    9.20    2.70
   6  -2  -2  271.97   14.60
  -6  -2   2  290.37   14.30
  -6  -2   2  283.17   14.90
   6  -2  -2  294.77   13.60
  -6   2   2  287.97   13.90
   6   2  -2  284.77   14.20
  -6   2   2  280.57   14.50
   6   2  -2  277.87   14.50
   5  -2  -2  195.18   10.80
   5  -2  -2  215.68   10.00
  -5  -2   2  197.28   10.60
  -5  -2   2  204.98   11.20
  -5   2   2  202.78   10.80
   5   2  -2  208.58   10.50
  -5   2   2  212.58   10.20
   5   2  -2  206.38   10.90
  -4  -2   2  196.98   10.30
  -4  -2   2  195.28    9.80
   4  -2  -2  204.28    9.20
   4   2  -2  193.18   10.10
   4   2  -2  197.58    9.80
  -4   2   2  200.28    9.40
  -4   2   2  181.88    9.90
   3  -2  -2  101.09    4.70
  -3  -2   2  105.09    5.60
  -3  -2   2  105.49    5.90
   3   2  -2   95.89    5.70
  -3   2   2   95.19    5.50
   3   2  -2   95.39    5.40
  -3   2   2   97.69    4.90
  -2  -2   2  198.08    9.80
  -2  -2   2  231.68   10.70
  -2   2   2  205.88   10.00
   2   2  -2  200.58    9.80
   2   2  -2  203.18   10.00
  -2   2   2  207.28    9.10
  -1  -2   2  457.45   20.10
  -1  -2   2  448.86   20.20
  -1  -2   2  464.55   20.00
   1  -2  -2  434.26   20.00
  -1   2   2  445.56   20.10
   1   2  -2  447.86   20.10
   0  -2   2  659.03   28.50
   0  -2   2  659.13   28.60
   0  -2  -2  626.04   28.20
   0   2   2  662.93   28.10
   0   2  -2  670.13   28.50
   0   2  -2  648.04   28.50
   0   2   2  601.64   28.10
   1  -2   2 2621.14  109.89
  -1  -2  -2 2538.95  109.49
   1  -2   2 2567.14  109.69
  -1  -2  -2 2331.07  109.29
  -1   2  -2 2568.54  109.69
   1   2   2 2522.85  109.29
   1   2   2 2551.94  109.89
  -1   2  -2 2674.63  110.19
  -2  -2  -2  891.31   40.60
   2  -2   2  919.71   40.60
  -2  -2  -2  949.60   40.40
   2   2   2  924.61   40.70
  -2   2  -2  920.51   41.00
  -2   2  -2  938.11   40.70
  -3  -2  -2  358.66   17.10
   3  -2   2  372.96   17.10
  -3  -2  -2  373.66   17.00
   3   2   2  346.27   17.00
   3   2   2  361.56   16.80
  -3   2  -2  368.66   17.00
  -3   2  -2  370.06   17.10
  -3   2  -2  362.86   17.50
  -4  -2  -2 1009.10   45.00
  -4  -2  -2 1012.10   45.20
   4  -2   2 1018.20   44.90
   4   2   2  975.90   44.80
  -4   2  -2 1012.90   44.90
  -4   2  -2 1003.90   45.60
   4   2   2  993.60   45.00
  -4   2  -2 1059.19   45.10
   5  -2   2  267.77   13.30
  -5  -2  -2  244.78   13.30
  -5  -2  -2  271.47   13.60
   5   2   2  248.38   13.10
  -5   2  -2  247.28   14.00
  -5   2  -2  269.47   13.50
  -5   2  -2  268.37   13.30
   5   2   2  272.87   13.60
   6  -2   2  263.17   13.00
  -6  -2  -2  248.28   13.20
  -6  -2  -2  241.88   13.10
  -6   2  -2  231.58   13.80
   6   2   2  250.17   13.20
   6   2   2  235.68   12.90
  -6   2  -2  243.58   13.20
  -6   2  -2  242.68   13.00
   7  -2   2   42.20    4.70
  -7  -2  -2   48.80    5.20
  -7  -2  -2   32.80    4.50
   7   2   2   44.80    5.10
  -7   2  -2   45.60    5.10
  -7   2  -2   36.90    6.00
  -8  -2  -2    9.70    3.00
   8  -2   2   -3.10    2.80
  -8  -2  -2    4.20    3.30
  -8   2  -2    1.10    2.30
  -8   2  -2    8.40    3.30
   8   2   2    1.60    3.10
   9  -2   2    1.20    3.40
  -9  -2  -2    1.20    3.10
  -9  -2  -2   -4.10    4.30
  -9   2  -2    0.00    2.80
  -9   2  -2    2.40    3.80
   9   2   2    3.20    3.50
 -10  -2  -2   -4.30    4.60
  10  -2   2   -7.40    4.20
 -10  -2  -2   -2.20    2.80
 -10   2  -2   -2.70    2.70
  10   2   2    2.70    4.40
  11  -2   2    8.10    6.30
 -11  -2  -2    5.10    4.00
 -11   2  -2    2.80    4.50
  11   2   2    3.40    6.00
 -12  -3   2   18.10    5.10
  12   3  -2   15.20    6.30
 -12   3   2   26.70    6.00
 -12   3   2   19.70    5.30
  11  -3  -2   35.20    5.90
 -11  -3   2   24.50    5.90
 -11  -3   2   22.10    5.10
  11   3  -2   35.40    6.50
 -11   3   2   40.40    6.20
 -11   3   2   34.20    6.00
 -10  -3   2   34.90    5.80
 -10  -3   2   18.80    4.20
  10  -3  -2   21.70    4.50
 -10   3   2   28.90    4.90
  10   3  -2   27.10    4.40
 -10   3   2   20.60    4.20
   9  -3  -2   14.70    3.20
  -9  -3   2   13.40    4.00
  -9  -3   2   10.90    3.50
  -9   3   2    6.20    2.80
   9   3  -2    8.20    3.30
  -9   3   2    9.30    3.70
  -8  -3   2   42.80    6.30
  -8  -3   2   43.40    4.90
   8  -3  -2   37.30    4.10
  -8   3   2   39.90    4.20
  -8   3   2   36.80    4.80
   8   3  -2   33.50    4.60
  -7  -3   2  125.89    8.70
   7  -3  -2  124.59    7.00
  -7  -3   2  111.29    7.80
  -7   3   2  118.59    7.20
  -7   3   2  123.19    8.80
   7   3  -2  124.19    7.80
   6  -3  -2  284.67   13.50
  -6  -3   2  283.37   14.40
  -6  -3   2  272.97   15.00
   6   3  -2  280.87   14.30
  -6   3   2  280.67   13.80
   6   3  -2  296.67   14.80
  -6   3   2  290.97   14.70
   5  -3  -2    8.20    1.50
  -5  -3   2    9.60    2.60
  -5  -3   2    6.70    3.20
   5   3  -2    8.50    2.10
   5   3  -2    8.60    2.40
  -5   3   2    8.60    2.40
  -5   3   2    8.00    1.60
  -4  -3   2    2.20    1.50
  -4  -3   2    3.80    1.40
   4  -3  -2    1.60    0.80
   4   3  -2    5.00    1.70
  -4   3   2    2.00    1.00
  -4   3   2    4.60    1.60
   4   3  -2    3.30    1.40
  -3  -3   2   49.40    3.80
  -3  -3   2   45.70    3.40
  -3   3   2   49.80    4.00
   3   3  -2   47.80    3.60
  -3   3   2   47.50    3.50
   3   3  -2   44.40    3.50
  -3   3   2   48.70    2.70
  -2  -3   2   25.60    2.60
  -2  -3   2   19.60    2.20
  -2   3   2   23.40    2.50
   2   3  -2   23.20    2.30
   2   3  -2   22.30    2.40
  -1  -3   2   17.70    2.00
  -1  -3   2   16.20    2.00
   1  -3  -2   16.90    2.00
   1   3  -2   22.90    2.60
  -1   3   2   17.50    2.30
   0  -3  -2    2.10    0.80
   0  -3   2    2.60    1.40
   0  -3   2    2.20    1.10
   0  -3  -2    2.00    1.00
   0   3   2    2.80    1.00
   0   3   2    0.90    1.00
   0   3  -2    2.10    1.30
   0   3  -2    5.30    1.50
  -1  -3  -2    0.80    1.00
   1  -3   2   -0.20    1.00
  -1  -3  -2    1.20    1.00
   1  -3   2    1.00    1.20
   1   3   2    1.50    1.00
  -1   3  -2    1.40    1.20
   1   3   2    0.50    0.80
  -1   3  -2    0.00    1.00
  -2  -3  -2   16.90    2.30
   2  -3   2   17.00    2.60
   2  -3   2   17.80    2.30
  -2   3  -2   20.40    2.40
   2   3   2   17.60    2.20
  -2   3  -2   17.30    2.60
   2   3   2   15.30    2.20
   3  -3   2    0.70    1.20
  -3  -3  -2    0.40    1.50
  -3  -3  -2   -0.40    1.10
   3   3   2    1.40    1.20
  -3   3  -2    0.80    1.30
   3   3   2    1.50    1.50
  -3   3  -2    0.20    1.10
  -4  -3  -2   43.40    3.90
   4  -3   2   46.00    3.70
  -4  -3  -2   44.80    3.80
   4   3   2   43.70    3.50
  -4   3  -2   49.80    4.10
   4   3   2   43.60    3.90
  -4   3  -2   44.50    4.30
  -4   3  -2   48.50    3.80
  -5  -3  -2    5.00    2.20
   5  -3   2    3.60    1.70
  -5  -3  -2    2.40    2.00
  -5   3  -2    4.30    2.00
   5   3   2    4.60    1.70
  -5   3  -2    5.90    2.50
  -5   3  -2    5.40    1.90
   5   3   2    2.10    1.80
  -6  -3  -2   57.49    5.10
  -6  -3  -2   49.10    5.00
   6  -3   2   51.99    4.60
   6   3   2   55.89    5.20
  -6   3  -2   59.49    6.10
  -6   3  -2   51.69    4.70
   6   3   2   54.69    4.70
  -6   3  -2   49.10    4.90
   7  -3   2   -0.80    2.30
  -7  -3  -2   -2.60    2.60
  -7  -3  -2    3.30    2.30
  -7   3  -2    2.60    2.80
  -7   3  -2    0.30    2.20
   7   3   2    0.50    2.00
  -8  -3  -2    5.30    3.10
   8  -3   2    5.70    2.90
  -8  -3  -2    8.10    3.50
  -8   3  -2    9.10    3.40
   8   3   2    7.00    3.50
  -8   3  -2    4.10    3.40
   9  -3   2   -1.70    3.10
  -9  -3  -2    7.10    4.10
  -9  -3  -2   -0.50    2.70
  -9   3  -2    2.90    3.40
   9   3   2    1.90    3.70
  -9   3  -2   -1.40    3.90
 -10  -3  -2   19.00    4.60
 -10   3  -2   14.50    3.80
 -10   3  -2   19.30    5.80
  10   3   2    7.60    4.90
 -11  -3  -2   63.29    7.60
 -11   3  -2   44.70   10.80
  11   3   2   56.99    8.10
 -12  -4   2    3.10    3.90
  12   4  -2   -7.90    7.60
 -12   4   2    0.40    3.40
 -12   4   2   -8.50    5.10
 -11  -4   2   12.30    4.90
  11  -4  -2    7.90    4.60
 -11  -4   2    6.20    7.60
 -11   4   2    4.60    4.10
 -11   4   2   11.10    3.80
  10  -4  -2   -1.30    3.20
 -10  -4   2    1.70    3.20
 -10  -4   2   12.90    4.50
  10   4  -2    5.50    6.10
 -10   4   2   -0.20    3.00
 -10   4   2    3.30    3.60
  -9  -4   2   -5.30    3.00
   9  -4  -2   -1.40    2.50
  -9  -4   2    3.00    3.20
  -9   4   2   -2.10    2.50
   9   4  -2    0.80    4.60
  -9   4   2   -3.20    2.50
  -8  -4   2    1.90    2.90
  -8  -4   2    2.00    2.40
   8  -4  -2    3.10    1.90
  -8   4   2    0.00    1.90
   8   4  -2    2.20    5.00
  -8   4   2   -1.00    1.80
   7  -4  -2  212.18   10.90
  -7  -4   2  205.68   12.20
  -7   4   2  232.08   13.50
   7   4  -2  285.97   16.40
  -7   4   2  209.88   11.40
  -6  -4   2   -1.60    1.90
  -6  -4   2    4.00    1.90
   6  -4  -2    2.70    1.30
   6   4  -2    2.00    2.60
  -6   4   2    4.10    1.60
  -6   4   2    0.30    1.60
  -6   4   2    0.20    1.70
   6   4  -2    2.50    2.00
  -5  -4   2 1123.29   50.09
   5  -4  -2 1163.38   48.80
   5   4  -2 1110.89   49.99
  -5   4   2 1052.89   51.09
  -5   4   2 1112.59   50.19
  -5   4   2 1139.49   49.20
   5   4  -2 1150.08   50.59
  -4  -4   2    3.80    1.60
  -4  -4   2    3.60    1.70
   4  -4  -2    6.00    0.90
  -4   4   2    7.50    1.20
  -4   4   2    5.70    1.70
  -4   4   2    5.30    2.10
   4   4  -2    3.60    1.80
   4   4  -2    3.00    1.50
  -3  -4   2  371.16   17.50
  -3  -4   2  378.46   17.00
  -3   4   2  314.17   16.40
   3   4  -2  369.36   17.30
   3   4  -2  379.96   17.10
   2  -4  -2   20.90    2.80
  -2  -4   2   19.50    2.30
  -2  -4   2   20.40    3.10
   2   4  -2   22.30    2.90
  -2   4   2   22.00    3.00
   2   4  -2   14.10    2.10
  -1  -4   2    1.10    1.10
  -1  -4   2    3.50    1.80
  -1  -4   2    3.00    1.30
   1  -4  -2    2.80    1.30
  -1   4   2    5.10    0.80
   1   4  -2    3.80    1.60
  -1   4   2    4.10    1.40
   0  -4   2   23.40    2.70
   0  -4  -2   19.10    2.30
   0  -4  -2   23.10    1.70
   0  -4   2   21.00    2.20
   0   4   2   24.00    1.90
   0   4   2   18.90    2.20
   0   4  -2   22.30    2.50
   0   4  -2   21.20    2.30
   1  -4   2  794.92   36.10
  -1  -4  -2  775.82   35.10
   1  -4   2  808.22   35.40
  -1   4  -2  816.22   36.10
  -1   4  -2  807.72   35.50
   1   4   2  797.52   35.40
   1   4   2  816.02   35.30
   2  -4   2 1074.99   48.00
   2  -4   2 1059.29   47.10
  -2  -4  -2 1048.90   47.20
  -2  -4  -2 1064.89   47.10
  -2   4  -2 1075.59   47.20
   2   4   2 1111.69   47.20
   2   4   2 1097.89   47.20
  -2   4  -2 1052.29   47.90
  -3  -4  -2  549.25   26.00
  -3  -4  -2  550.24   25.90
   3  -4   2  559.44   26.10
   3  -4   2  567.14   26.70
  -3   4  -2  556.14   26.70
  -3   4  -2  597.64   26.00
   3   4   2  590.74   25.90
   3   4   2  577.54   26.00
  -4  -4  -2    7.60    2.00
  -4  -4  -2   11.30    2.30
   4  -4   2    9.70    2.60
  -4   4  -2   14.50    2.50
   4   4   2   11.70    2.20
  -4   4  -2    5.10    1.90
   4   4   2   13.60    2.60
  -5  -4  -2  197.68   10.60
  -5  -4  -2  189.88   10.60
  -5   4  -2  194.48   10.50
   5   4   2  181.38   10.40
  -5   4  -2  199.68   10.50
   5   4   2  188.28   10.50
  -5   4  -2  164.58   11.10
  -6  -4  -2   78.59    6.20
  -6  -4  -2   72.79    6.10
   6   4   2   82.19    5.70
  -6   4  -2   78.89    5.90
   6   4   2   69.79    6.00
  -6   4  -2   75.39    6.00
  -7  -4  -2  157.58   10.60
  -7  -4  -2  159.88   10.50
  -7   4  -2  164.28   10.20
  -7   4  -2  164.88   10.10
   7   4   2  178.48   10.40
  -8  -4  -2    3.00    3.20
  -8  -4  -2    3.20    3.60
  -8   4  -2   14.20    3.50
   8   4   2    7.80    3.60
  -8   4  -2   11.80    4.50
  -9  -4  -2   20.60    4.80
  -9   4  -2   25.80    5.20
  -9   4  -2   17.00    4.20
   9   4   2   20.80    5.10
  10  -4   2    9.50    5.40
 -10  -4  -2   12.70    4.00
 -10   4  -2    8.10    4.40
  10   4   2   13.20    5.30
 -10   4  -2    6.30    5.00
 -11  -4  -2    0.60    4.20
  11  -4   2   -8.20    7.10
  11   4   2    6.20    6.00
 -11   4  -2    2.70    3.30
 -12  -5   2   42.40    7.00
 -12   5   2   30.20    6.50
 -12   5   2   29.40    6.20
  12   5  -2   40.90    7.00
 -11  -5   2   -2.90    5.50
  11  -5  -2    3.80    6.90
 -11  -5   2   12.40    4.80
 -11   5   2   15.50    4.80
 -11   5   2    0.80    6.70
  11   5  -2   18.40    5.20
  10  -5  -2  171.08   10.00
 -10  -5   2  160.68   12.80
 -10  -5   2  177.28   12.40
 -10   5   2  153.38   10.50
 -10   5   2  167.28   11.60
  10   5  -2  168.28   11.30
  -9  -5   2   12.60    4.10
   9  -5  -2   14.30    3.10
  -9  -5   2    9.80    3.60
  -9   5   2    9.50    3.30
  -9   5   2   13.00    3.30
   9   5  -2   10.10    3.50
  -8  -5   2   45.90    5.50
   8  -5  -2   43.40    4.10
  -8  -5   2   36.50    5.90
  -8   5   2   42.70    5.00
   8   5  -2   35.30    5.00
  -8   5   2   44.80    4.40
  -7  -5   2   40.90    5.20
   7  -5  -2   32.50    3.20
  -7  -5   2   43.60    4.80
  -7   5   2   33.40    4.10
  -7   5   2   33.90    3.70
   7   5  -2   34.90    4.80
   6  -5  -2  409.96   18.40
  -6  -5   2  376.66   19.80
  -6  -5   2  410.66   20.80
   6   5  -2  409.06   19.90
  -6   5   2  411.36   20.20
  -6   5   2  420.86   19.10
   5  -5  -2    2.70    0.90
  -5  -5   2    1.80    1.80
  -5  -5   2    0.20    1.50
  -5   5   2    1.80    1.70
   5   5  -2    0.40    1.60
  -5   5   2    4.90    2.50
   5   5  -2    3.00    1.80
  -5   5   2    2.40    1.90
  -4  -5   2  717.13   32.00
  -4  -5   2  647.34   31.10
  -4   5   2  686.33   32.30
   4   5  -2  681.73   31.50
  -4   5   2  693.13   30.10
   4   5  -2  680.23   31.20
  -3  -5   2   35.30    3.30
   3  -5  -2   38.10    3.80
  -3  -5   2   34.50    3.60
  -3   5   2   37.80    2.40
   3   5  -2   33.20    3.20
   3   5  -2   37.70    3.40
  -3   5   2   41.20    3.90
  -2  -5   2   12.00    2.00
  -2  -5   2    8.20    2.10
   2  -5  -2   10.80    2.30
   2   5  -2    9.70    1.80
  -2   5   2    9.50    1.10
   2   5  -2   16.40    2.70
  -2   5   2   14.20    2.50
  -1  -5   2    1.40    1.20
   1  -5  -2    1.10    1.20
  -1  -5   2    1.40    1.00
  -1  -5   2    1.10    1.60
  -1   5   2    2.10    1.30
  -1   5   2    2.30    0.90
   1   5  -2    3.70    1.50
   0  -5   2    3.60    1.40
   0  -5   2    4.50    1.90
   0  -5   2    5.40    1.50
   0  -5  -2    3.40    0.90
   0  -5  -2    6.60    1.60
   0   5  -2    6.30    1.80
   0   5   2    3.90    1.40
   0   5  -2    4.80    1.40
   0   5   2    4.00    1.10
  -1  -5  -2    3.80    1.50
   1  -5   2    5.20    1.90
   1  -5   2    3.30    1.30
  -1  -5  -2    3.70    1.20
   1   5   2    5.40    1.70
  -1   5  -2    3.30    1.30
   1   5   2    1.20    1.10
  -1   5  -2    3.80    1.70
  -2  -5  -2    2.50    1.40
   2  -5   2    0.40    1.30
  -2  -5  -2    2.90    1.50
  -2   5  -2    5.60    1.60
   2   5   2    5.80    1.60
  -2   5  -2    4.50    1.70
   2   5   2    4.30    1.40
   3  -5   2    4.70    2.00
  -3  -5  -2    1.70    1.60
  -3  -5  -2    2.70    1.50
   3   5   2    5.70    1.60
  -3   5  -2    6.80    1.90
   3   5   2    2.00    1.50
  -3   5  -2    3.00    1.80
  -4  -5  -2    1.00    1.70
  -4  -5  -2    1.60    1.50
   4   5   2    0.30    1.70
   4   5   2    2.60    1.50
  -4   5  -2   -0.10    1.70
  -4   5  -2    1.60    2.10
  -5  -5  -2    2.30    2.10
  -5  -5  -2    3.20    2.20
  -5   5  -2    3.00    1.70
  -5   5  -2    5.60    2.40
  -5   5  -2    1.00    1.70
   5   5   2    1.60    2.00
   5   5   2    1.20    1.80
  -6  -5  -2   49.99    5.20
  -6  -5  -2   55.69    5.40
  -6   5  -2   60.29    5.30
   6   5   2   59.29    5.60
   6   5   2   50.89    5.10
  -6   5  -2   61.29    5.40
   7  -5   2   11.40    3.00
  -7  -5  -2   21.00    6.90
  -7  -5  -2   15.90    4.00
   7   5   2   12.90    3.50
  -7   5  -2   16.30    3.80
  -7   5  -2   18.40    4.10
  -8  -5  -2   51.59    6.20
   8  -5   2   46.60    5.50
  -8   5  -2   51.99    6.00
   8   5   2   46.50    6.10
  -8   5  -2   48.20    5.70
  -9  -5  -2   24.30    5.20
   9  -5   2   15.40    4.40
   9   5   2   28.60    5.40
  -9   5  -2   25.90    6.30
  -9   5  -2   21.70    4.70
 -10  -5  -2   81.49    8.30
  10  -5   2   79.79    8.60
 -10   5  -2   77.39    8.00
  10   5   2   76.69    9.00
 -10   5  -2   72.09    8.80
 -11  -5  -2    9.60    5.00
 -11   5  -2   11.40    4.60
  11   5   2   -5.40    6.10
 -12  -6   2    8.40    5.30
  12   6  -2   41.30    9.00
 -12   6   2    1.30    4.10
  11   6  -2    1.30    4.70
 -11   6   2    2.20    4.00
 -11   6   2    6.90    4.20
 -10  -6   2    8.60    4.30
  10  -6  -2    6.10    3.70
 -10  -6   2   10.40    4.80
 -10   6   2   11.10    3.60
  10   6  -2    8.10    4.40
 -10   6   2   11.90    4.00
  -9  -6   2   10.20    3.80
   9  -6  -2   14.90    4.40
  -9  -6   2   10.90    4.10
   9   6  -2   13.60    4.20
  -9   6   2   11.10    3.30
  -9   6   2   17.60    3.60
   8  -6  -2   21.90    2.80
  -8  -6   2   21.00    4.00
  -8  -6   2   13.60    4.00
  -8   6   2   20.50    3.50
   8   6  -2   15.90    3.60
  -8   6   2   13.00    3.50
  -7  -6   2   72.59    7.00
  -7  -6   2   81.09    6.50
   7  -6  -2   78.99    4.70
   7   6  -2   86.69    6.60
  -7   6   2   76.69    6.40
   6  -6  -2   60.29    3.50
  -6  -6   2   59.59    5.20
  -6   6   2   55.59    5.30
  -6   6   2   61.79    4.40
   6   6  -2   66.49    5.50
  -5  -6   2  117.09    7.30
  -5  -6   2  118.99    8.10
   5  -6  -2  112.69    5.40
  -5   6   2  115.69    7.50
   5   6  -2  114.39    7.60
  -5   6   2  104.69    8.00
  -5   6   2  122.69    6.30
   5   6  -2  114.39    7.40
  -4  -6   2  368.26   19.40
  -4  -6   2  394.96   18.80
   4   6  -2  382.26   19.20
  -4   6   2  388.66   20.50
  -4   6   2  395.56   17.60
   4   6  -2  403.56   18.90
   3  -6  -2  299.47   15.30
  -3  -6   2  288.27   14.40
  -3  -6   2  279.17   15.10
  -3   6   2  315.97   15.40
  -3   6   2  287.77   13.20
   3   6  -2  300.27   14.50
   3   6  -2  293.47   14.90
  -2  -6   2  130.59    8.40
   2  -6  -2  147.89    8.60
  -2  -6   2  141.89    7.70
  -2   6   2  149.09    6.80
   2   6  -2  148.79    7.90
   2   6  -2  135.89    8.20
  -2   6   2  142.19    6.70
  -2   6   2  141.09    8.30
   1  -6  -2  147.69    6.90
  -1  -6   2  153.78    8.90
   1  -6  -2  151.28    6.90
  -1  -6   2  151.38    8.00
  -1  -6   2  162.08    8.20
   1  -6  -2  157.88    8.70
   1   6  -2  152.18    8.60
  -1   6   2  154.88    8.60
  -1   6   2  147.79    7.30
   0  -6   2  346.57   15.90
   0  -6   2  336.87   15.90
   0  -6  -2  325.97   15.10
   0  -6   2  336.07   16.90
   0  -6  -2  341.97   16.50
   0   6  -2  331.47   16.60
   0   6   2  318.67   16.20
   0   6   2  345.27   15.40
   0   6  -2  350.56   16.00
  -1  -6  -2   15.50    2.80
  -1  -6  -2   20.50    2.30
   1  -6   2   20.20    3.50
  -1   6  -2   21.80    2.40
  -1   6  -2   16.90    3.20
   1   6   2   21.40    2.50
   1   6   2   19.40    2.70
  -2  -6  -2    7.70    1.80
   2  -6   2    3.90    2.30
  -2  -6  -2    5.00    1.80
  -2   6  -2    1.60    1.70
   2   6   2    4.20    1.50
  -2   6  -2    3.90    1.60
   2   6   2    5.30    1.80
  -3  -6  -2  389.66   18.80
  -3  -6  -2  369.86   18.20
   3  -6   2  395.66   19.60
   3   6   2  384.96   18.40
   3   6   2  372.96   18.40
  -3   6  -2  384.26   20.00
  -3   6  -2  393.16   18.30
   4  -6   2  483.35   22.60
  -4  -6  -2  501.05   23.40
   4  -6   2  471.25   24.10
   4   6   2  492.55   23.10
  -4   6  -2  449.56   23.90
   4   6   2  501.45   23.10
  -4   6  -2  490.95   22.80
  -5  -6  -2   31.10    4.00
  -5  -6  -2   29.30    4.40
   5  -6   2   23.80    3.30
   5   6   2   22.00    3.70
  -5   6  -2   26.70    3.70
   5   6   2   20.20    3.40
  -6  -6  -2    8.40    3.00
  -6  -6  -2    5.10    2.80
   6  -6   2    7.40    2.60
   6   6   2    8.10    3.00
  -6   6  -2   10.70    2.60
  -6   6  -2    6.30    2.40
  -7  -6  -2   22.60    4.50
   7  -6   2   25.90    3.90
  -7   6  -2   22.00    4.30
  -7   6  -2   24.00    4.60
   7   6   2   24.80    4.50
  -8  -6  -2   16.40    4.50
   8  -6   2   20.20    3.90
   8   6   2   18.60    4.80
  -8   6  -2   12.40    3.60
  -8   6  -2   24.00    4.10
   9  -6   2    2.10    4.20
  -9  -6  -2    7.30    4.10
  -9   6  -2   11.50    4.30
   9   6   2    6.90    4.60
  -9   6  -2    8.10    3.60
 -10  -6  -2    4.00    4.00
  10  -6   2    3.60    7.30
  10   6   2    2.10    5.20
 -10   6  -2    9.20    5.60
 -10   6  -2   11.10    4.20
 -11  -6  -2   -9.60    6.80
 -11   6  -2   -1.80    3.80
  11   6   2   -3.10    6.70
 -12  -7   2   -9.80    4.60
 -12   7   2   -2.60    3.70
  12   7  -2   -0.90    6.30
 -11  -7   2   46.50    7.80
 -11   7   2   36.90    6.10
  11   7  -2   49.80    7.60
 -11   7   2   53.29    7.40
 -10  -7   2   48.80    6.90
 -10   7   2   49.00    6.90
 -10   7   2   53.89    8.20
  10   7  -2   55.49    7.00
  -9  -7   2  122.09   10.00
  -9  -7   2  116.29   10.30
   9  -7  -2  124.79    7.50
  -9   7   2  126.69    9.30
  -9   7   2  100.19    9.40
   9   7  -2  126.39    9.40
  -8  -7   2   10.10    4.00
  -8  -7   2   10.60    3.70
   8  -7  -2   12.10    2.40
  -8   7   2   23.70    5.10
  -8   7   2   14.20    3.10
   8   7  -2   13.00    4.00
  -7  -7   2  220.88   13.80
  -7  -7   2  225.18   15.60
   7   7  -2  204.98   12.50
  -7   7   2  228.08   11.60
  -7   7   2  228.78   13.10
  -6  -7   2   50.89    7.40
  -6  -7   2   41.10    4.40
   6  -7  -2   33.10    3.40
  -6   7   2   43.80    4.80
  -6   7   2   39.80    3.70
   6   7  -2   36.70    4.90
  -5  -7   2   81.19    6.20
  -5  -7   2   96.89    7.30
   5   7  -2   85.09    6.40
  -5   7   2   94.69    5.30
  -4  -7   2   42.50    4.70
  -4  -7   2   34.40    3.80
   4  -7  -2   44.90    4.80
   4   7  -2   46.60    4.20
  -4   7   2   39.60    2.90
   4   7  -2   39.00    3.80
  -4   7   2   41.40    4.50
   3  -7  -2  172.98   10.20
  -3  -7   2  163.28   10.00
  -3  -7   2  165.68    9.00
   3   7  -2  174.48   10.30
   3   7  -2  171.58    9.30
  -3   7   2  160.08    8.00
  -3   7   2  165.18   10.50
  -2  -7   2   17.40    3.30
   2  -7  -2   13.40    3.40
  -2  -7   2   17.10    2.70
  -2  -7   2   10.80    2.20
  -2   7   2   14.90    1.70
  -2   7   2   13.90    1.60
  -2   7   2   13.10    2.90
   2   7  -2   16.70    2.70
   2   7  -2   17.50    2.80
  -1  -7   2    5.60    1.80
  -1  -7   2    3.10    1.30
   1  -7  -2    5.70    2.00
   1  -7  -2    6.10    0.90
  -1  -7   2    3.30    2.10
   1  -7  -2    4.50    0.70
   1   7  -2    4.20    2.10
  -1   7   2    3.10    1.30
  -1   7   2    3.70    1.60
   0  -7   2   10.30    2.00
   0  -7  -2   10.10    2.00
   0  -7  -2    8.90    1.30
   0  -7   2    9.10    3.20
   0  -7  -2   13.00    2.90
   0  -7   2   12.80    3.30
   0   7  -2   10.70    2.40
   0   7  -2    8.90    2.10
   0   7   2    9.70    2.30
   0   7   2   10.60    2.10
  -1  -7  -2   58.99    4.80
  -1  -7  -2   58.69    3.80
   1  -7   2   56.29    4.10
   1  -7   2   63.19    5.60
  -1   7  -2   72.09    5.30
   1   7   2   61.69    4.70
  -1   7  -2   61.39    4.40
   1   7   2   59.79    4.20
   2  -7   2    2.50    1.30
  -2  -7  -2    1.40    1.80
   2  -7   2    0.60    1.10
   2   7   2    1.60    1.40
  -2   7  -2    0.20    1.40
   2   7   2    1.80    1.40
  -3  -7  -2    0.20    1.50
   3  -7   2    1.00    1.30
   3  -7   2    1.50    1.90
  -3  -7  -2    2.70    1.60
   3   7   2    0.50    1.70
   3   7   2    1.90    1.50
  -3   7  -2    4.10    2.10
  -3   7  -2    1.70    1.50
   4  -7   2    3.70    1.70
  -4  -7  -2    3.40    2.10
   4  -7   2    4.30    2.30
  -4  -7  -2    3.40    1.90
  -4   7  -2    1.10    1.70
   4   7   2    3.50    1.90
  -4   7  -2    1.10    2.00
   4   7   2    2.50    2.10
   5  -7   2   10.60    2.40
  -5  -7  -2    9.20    3.20
  -5  -7  -2    7.40    2.80
   5   7   2   12.80    2.50
   5   7   2    7.40    2.60
  -5   7  -2   14.10    3.10
   6  -7   2   33.80    4.30
  -6  -7  -2   32.80    4.90
   6   7   2   29.70    4.60
  -6   7  -2   36.90    4.80
  -6   7  -2   47.90    6.50
   7  -7   2   55.39    5.20
  -7  -7  -2   51.09    6.10
  -7   7  -2   41.30    5.20
  -7   7  -2   47.70    5.70
   7   7   2   40.10    5.50
  -8  -7  -2    7.90    4.00
   8  -7   2   17.30    6.40
   8   7   2   13.10    4.20
  -8   7  -2   11.90    4.00
  -8   7  -2   13.40    3.40
  -9  -7  -2   44.20    7.20
   9  -7   2   32.70    5.50
   9   7   2   29.70    5.80
  -9   7  -2   25.50    5.50
  -9   7  -2   38.40    5.80
 -10  -7  -2   20.40    5.60
  10  -7   2   13.20    6.50
 -10   7  -2   22.10    6.10
 -10   7  -2   20.10    7.80
  10   7   2   15.60    6.90
 -11  -7  -2   60.79    8.80
  11   7   2   50.09    9.10
 -11   7  -2   45.50    6.90
 -11  -8   2    2.40    4.60
 -11   8   2    0.10    3.20
 -11   8   2    5.90    4.20
  11   8  -2    1.30    6.30
 -10  -8   2    3.50    4.20
  10   8  -2    0.30    4.20
 -10   8   2    3.60    3.40
 -10   8   2   -0.20    3.00
  -9  -8   2    6.50    3.70
   9   8  -2    5.60    3.80
  -9   8   2    1.60    2.50
  -9   8   2    4.30    3.40
  -8  -8   2   77.49    8.20
  -8   8   2   65.29    5.80
  -8   8   2   76.69    6.80
   8   8  -2   67.49    7.00
  -7  -8   2    9.60    3.00
  -7  -8   2   10.40    3.80
  -7   8   2    9.70    3.70
  -7   8   2   12.40    2.60
   7   8  -2    8.40    3.10
  -6  -8   2   40.90    4.60
  -6  -8   2   36.30    5.70
   6   8  -2   49.60    5.20
  -6   8   2   46.80    6.00
  -6   8   2   40.80    3.90
  -5  -8   2    4.60    2.40
  -5  -8   2    1.80    2.70
   5   8  -2    9.80    2.80
  -5   8   2    6.10    1.70
   4  -8  -2  299.47   16.50
  -4  -8   2  293.77   16.30
  -4  -8   2  302.77   15.60
   4   8  -2  293.47   15.30
  -4   8   2  307.17   13.90
  -4   8   2  281.57   16.90
  -3  -8   2    3.50    2.70
   3  -8  -2    4.10    2.20
  -3  -8   2    5.60    1.80
  -3   8   2    4.10    1.20
   3   8  -2    3.30    2.00
   3   8  -2    4.40    2.00
  -3   8   2    5.70    2.10
  -2  -8   2  454.85   21.70
   2  -8  -2  482.15   23.10
  -2  -8   2  455.05   21.80
  -2  -8   2  458.75   22.90
   2   8  -2  454.85   22.60
   2   8  -2  465.95   21.90
  -1  -8   2   52.19    3.90
  -1  -8   2   52.09    3.90
   1  -8  -2   49.40    2.80
   1  -8  -2   51.39    4.80
  -1  -8   2   43.40    4.70
   1  -8  -2   48.00    2.80
  -1   8   2   48.70    3.40
   1   8  -2   52.69    4.60
  -1   8   2   40.90    4.30
   0  -8  -2  115.49    7.60
   0  -8  -2  114.09    6.00
   0  -8   2  112.09    7.90
   0  -8  -2  112.09    5.90
   0  -8   2  109.79    6.60
   0   8  -2   94.99    7.20
   0   8   2  115.39    6.20
   0   8   2  107.29    7.10
  -1  -8  -2  291.17   15.00
   1  -8   2  305.17   15.80
  -1  -8  -2  264.67   13.40
   1  -8   2  273.17   13.80
   1   8   2  293.47   14.70
  -1   8  -2  283.17   14.10
   1   8   2  287.17   13.90
  -1   8  -2  287.57   15.20
   2  -8   2   85.99    5.50
  -2  -8  -2   89.99    6.60
  -2  -8  -2   89.19    5.50
   2  -8   2   86.89    7.00
  -2   8  -2   88.19    6.70
   2   8   2   97.99    5.90
  -2   8  -2   93.39    5.90
   2   8   2   85.99    6.10
  -3  -8  -2  464.65   22.70
   3  -8   2  475.85   22.50
   3  -8   2  510.85   24.90
  -3  -8  -2  499.85   23.90
  -3   8  -2  479.95   22.80
   3   8   2  500.25   23.10
  -3   8  -2  487.45   24.90
   3   8   2  473.95   24.30
   4  -8   2  348.07   19.00
   4  -8   2  348.87   16.90
  -4  -8  -2  332.67   18.00
   4   8   2  344.07   17.50
   4   8   2  354.26   17.60
  -4   8  -2  363.36   17.30
   5  -8   2    2.40    1.90
  -5  -8  -2   -0.50    2.40
  -5   8  -2    0.90    1.90
   5   8   2    3.20    2.50
  -6  -8  -2    4.60    3.20
   6  -8   2   -2.30    4.20
   6   8   2    2.10    3.00
  -6   8  -2    0.20    2.20
   7  -8   2   46.20    5.30
  -7  -8  -2   42.60    6.50
  -7   8  -2   50.19    6.10
   7   8   2   46.50    6.20
  -7   8  -2   47.10    5.60
   8  -8   2  123.49    8.40
  -8  -8  -2  116.29   10.00
   8   8   2  108.29   11.00
  -8   8  -2  127.39    9.40
  -8   8  -2  114.19    8.90
   9  -8   2   -0.50    4.50
  -9  -8  -2    7.20    4.50
  -9   8  -2    6.40    3.90
  -9   8  -2    6.40    3.70
   9   8   2   10.80    4.90
 -10  -8  -2   -4.80    4.80
 -10   8  -2    1.50    3.80
 -10   8  -2   -4.70    4.20
  10   8   2   -7.00    5.10
 -11  -9   2   10.20    6.30
  11   9  -2    4.10    5.80
 -11   9   2    3.80    4.10
 -11   9   2    0.70    3.70
 -10  -9   2   16.30    5.60
 -10   9   2   14.00    3.70
 -10   9   2   19.50    4.30
  10   9  -2   15.90    4.80
  -9  -9   2   97.89    9.90
  -9   9   2   93.79    7.30
  -9   9   2  100.99    8.70
   9   9  -2   96.29    8.80
  -8  -9   2   28.10    5.50
   8   9  -2   24.20    4.90
  -8   9   2   24.30    4.70
  -7  -9   2    8.50    4.30
  -7   9   2    8.20    2.40
   7   9  -2    5.90    3.20
  -7   9   2   10.80    3.30
  -6  -9   2    0.60    3.00
   6   9  -2    6.90    2.70
  -6   9   2    4.60    2.00
  -5  -9   2  222.78   13.10
  -5  -9   2  255.07   14.60
  -5   9   2  251.37   12.00
  -4  -9   2   13.60    3.00
  -4  -9   2    9.00    3.40
   4  -9  -2   12.40    3.30
   4   9  -2   12.30    2.80
  -4   9   2   10.70    1.90
   3  -9  -2  125.19    8.80
  -3  -9   2  114.39    8.40
  -3  -9   2  109.49    7.10
  -3   9   2  108.69    8.60
   3   9  -2  119.29    7.50
  -3   9   2  121.19    6.30
  -2  -9   2    2.60    1.60
  -2  -9   2    2.40    1.50
   2  -9  -2    1.10    2.00
  -2  -9   2    1.80    2.20
  -2   9   2    1.00    1.90
   2   9  -2    4.10    2.00
   2   9  -2    4.00    2.10
  -1  -9   2   30.90    3.70
   1  -9  -2   25.80    2.00
  -1  -9   2   35.10    4.20
   1  -9  -2   30.00    4.50
  -1  -9   2   35.10    5.20
   1  -9  -2   22.60    2.00
   1   9  -2   35.80    4.90
  -1   9   2   37.00    5.30
  -1   9   2   24.50    2.70
   0  -9  -2   37.80    4.30
   0  -9  -2   29.40    2.50
   0  -9   2   30.70    3.20
   0  -9   2   38.30    5.30
   0  -9  -2   32.10    2.60
   0   9   2   30.50    2.90
   0   9   2   38.10    4.70
   0   9  -2   46.10    5.80
   1  -9   2   17.20    4.10
   1  -9   2   13.70    2.40
   1  -9   2   16.30    2.60
  -1  -9  -2    9.10    1.80
  -1  -9  -2   13.30    3.40
  -1   9  -2   13.00    3.00
   1   9   2   12.70    2.50
  -1   9  -2   22.80    3.10
   1   9   2   14.30    3.10
   2  -9   2    1.00    1.30
   2  -9   2    8.70    3.10
  -2  -9  -2    6.10    2.40
   2   9   2    3.40    1.90
   2   9   2    3.90    2.20
  -2   9  -2    2.30    1.50
   3  -9   2   11.10    3.80
  -3  -9  -2   10.20    3.10
   3  -9   2    8.30    2.10
  -3   9  -2   13.10    2.60
   3   9   2   11.60    2.80
   3   9   2    9.00    2.60
   4  -9   2    2.00    2.60
  -4  -9  -2    2.10    2.50
   4  -9   2    2.30    2.00
  -4   9  -2    4.80    2.00
   4   9   2    4.80    3.00
   5  -9   2   70.69    5.60
   5  -9   2   72.79    7.20
  -5  -9  -2   73.89    7.80
  -5   9  -2   67.69    5.40
   5   9   2   58.79    6.20
   6  -9   2   10.60    2.70
  -6  -9  -2    6.60    3.20
   6   9   2   11.20    6.00
  -6   9  -2    8.80    3.00
  -7  -9  -2  126.89    9.90
   7  -9   2  100.69    7.50
   7   9   2   95.59    8.60
  -7   9  -2  117.69    9.00
  -7   9  -2  107.39    7.90
   8  -9   2    3.30    3.50
  -8  -9  -2   -4.90    3.20
  -8   9  -2    3.50    3.90
  -8   9  -2   -1.70    2.80
   8   9   2    3.80    3.90
   9  -9   2   42.00    5.90
  -9  -9  -2   48.70    7.20
  -9   9  -2   42.80    6.10
   9   9   2   44.20    6.90
  -9   9  -2   43.30    6.50
 -10  -9  -2    5.00    4.90
  10   9   2    7.90    6.00
 -10   9  -2    2.10    4.00
 -11 -10   2   11.70    6.20
  11  10  -2    6.70    9.90
 -11  10   2   -0.20    3.90
 -11  10   2    2.50    3.80
 -10 -10   2   -2.10    3.90
 -10  10   2   -1.00    3.00
 -10  10   2   -4.60    2.80
  10  10  -2   -3.10    4.70
  -9 -10   2   18.20    5.10
   9  10  -2   24.80    5.30
  -9  10   2   30.60    4.50
  -9  10   2   18.60    4.90
  -8 -10   2    8.90    3.80
  -8  10   2    2.30    2.40
  -8  10   2    1.50    2.70
   8  10  -2    9.50    4.10
  -7 -10   2    6.30    4.00
  -7  10   2    1.40    1.90
  -7  10   2    2.10    2.30
   7  10  -2   -1.40    3.20
  -6 -10   2   31.00    5.50
  -6  10   2   34.80    4.00
   6  10  -2   33.50    5.30
   5 -10  -2    3.00    2.70
  -5 -10   2    7.00    3.10
   5  10  -2    1.30    2.90
  -5  10   2    2.70    1.50
   4 -10  -2   47.40    6.40
  -4 -10   2   56.99    7.50
   4  10  -2   42.60    5.00
  -4  10   2   51.49    3.70
  -3 -10   2   73.19    5.70
   3 -10  -2   75.19    7.00
   3  10  -2   73.99    5.80
  -3  10   2   71.99    4.60
   2 -10  -2   40.60    6.00
  -2 -10   2   38.60    4.10
  -2 -10   2   49.50    6.60
   2  10  -2   42.70    4.30
   1 -10  -2  354.06   16.90
   1 -10  -2  398.26   20.00
  -1 -10   2  372.76   19.90
  -1  10   2  366.16   19.40
  -1  10   2  389.16   17.70
   0 -10  -2  121.89    6.60
   0 -10   2  126.29    9.20
   0 -10   2  122.19    7.20
   0 -10  -2  121.19    8.70
   0  10   2  111.59    8.10
   0  10   2  128.39    7.10
   1 -10   2   76.29    7.10
  -1 -10  -2   71.79    6.40
   1 -10   2   73.09    5.10
   1  10   2   70.79    6.00
   1  10   2   72.49    5.30
  -1  10  -2   77.29    5.50
   2 -10   2   96.19    6.10
  -2 -10  -2   91.79    7.30
   2  10   2  103.69    6.70
  -2  10  -2  105.69    6.60
   2  10   2   98.39    7.30
   3 -10   2   66.49    6.70
  -3 -10  -2   60.89    6.10
   3  10   2   66.19    5.60
  -3  10  -2   67.99    5.20
   4 -10   2  146.99    8.40
  -4 -10  -2  156.78   10.30
   4 -10   2  149.88   10.90
  -4  10  -2  137.19    8.70
   4  10   2  135.79   10.30
   5 -10   2    9.10    3.90
   5 -10   2    1.50    2.20
  -5 -10  -2    5.80    3.80
   5  10   2    4.00    2.90
  -5  10  -2    4.80    2.20
  -6 -10  -2   37.20    6.50
   6 -10   2   44.80    4.80
   6  10   2   37.20    5.60
  -6  10  -2   45.20    4.90
  -7 -10  -2    9.00    3.90
   7 -10   2    9.80    3.60
   7  10   2    8.80    4.90
  -7  10  -2    4.10    3.00
  -7  10  -2    7.10    3.50
   8 -10   2   -2.10    3.60
  -8 -10  -2    7.70    4.70
  -8  10  -2    0.20    3.30
   8  10   2    5.50    4.60
  -8  10  -2    2.00    3.10
   9 -10   2   12.60    9.00
  -9 -10  -2   13.80    5.30
  -9  10  -2    6.90    3.50
  -9  10  -2   11.30    4.30
   9  10   2   13.30    5.20
 -10 -10  -2   10.90    5.60
  10  10   2   -0.50    6.00
 -10  10  -2    0.80    3.90
 -10 -11   2   54.09    8.20
 -10  11   2   51.09    6.40
 -10  11   2   54.89    7.00
  10  11  -2   46.80    8.20
  -9 -11   2   17.70    5.80
   9  11  -2    3.60    4.60
  -9  11   2   19.80    3.90
  -9  11   2   16.30    5.00
  -8 -11   2   38.70    7.50
  -8  11   2   57.49    5.20
   8  11  -2   35.10    7.80
  -8  11   2   56.99    8.10
  -7 -11   2    3.90    3.70
  -7  11   2    7.40    2.40
   7  11  -2    2.30    3.80
  -6 -11   2   99.89    9.30
  -6  11   2  108.09    6.60
   6  11  -2  114.79    8.70
  -5 -11   2   -2.70    2.80
   5 -11  -2    1.50    2.80
  -5  11   2    1.90    1.80
   5  11  -2    2.70    3.10
  -4 -11   2   39.40    6.60
   4 -11  -2   39.70    6.50
   4  11  -2   29.00    4.50
  -4  11   2   35.50    3.20
  -3 -11   2   86.89    6.30
   3 -11  -2   81.99    7.60
  -3 -11   2   82.99    7.90
   3  11  -2   71.29    6.20
  -2 -11   2   80.99    7.30
  -2 -11   2   78.59    5.90
   2  11  -2   76.19    6.10
   1 -11  -2   46.20    5.40
   1 -11  -2   40.80    2.90
  -1 -11   2   45.20    5.40
  -1  11   2   39.90    3.60
   0 -11  -2   30.50    5.20
   0 -11  -2   20.80    2.30
   0 -11   2   41.10    6.70
   0 -11   2   30.20    3.80
   0  11   2   26.00    3.50
  -1 -11  -2   -0.90    1.40
   1 -11   2    0.30    1.30
  -1 -11  -2    4.40    2.80
   1 -11   2    4.00    2.50
   1  11   2    2.10    1.90
  -1  11  -2    1.90    1.70
   2 -11   2    1.10    2.20
  -2 -11  -2    4.60    3.00
   2  11   2   -1.50    1.90
  -2  11  -2    0.90    1.60
   3 -11   2    7.10    2.70
   3 -11   2    6.20    2.20
  -3  11  -2   10.30    2.50
   3  11   2    7.70    2.80
  -4 -11  -2    4.10    2.90
   4 -11   2   -0.10    2.70
   4 -11   2    0.60    1.70
  -4  11  -2    1.30    1.90
   4  11   2   -0.60    2.50
   5 -11   2   52.99    7.50
  -5 -11  -2   53.59    7.80
   5 -11   2   45.60    4.90
   5  11   2   43.60    5.80
  -5  11  -2   42.30    4.70
   6 -11   2  216.68   12.30
  -6 -11  -2  258.97   15.40
  -6  11  -2  225.98   13.00
   6  11   2  229.08   13.90
  -7 -11  -2    6.60    4.30
   7 -11   2    3.20    3.50
  -7  11  -2    4.00    2.50
   7  11   2    8.90    4.20
  -8 -11  -2   35.50    6.70
   8 -11   2   26.00    8.50
  -8  11  -2   39.20    5.60
   8  11   2   24.90    5.50
  -8  11  -2   34.30    6.50
  -9 -11  -2   -4.90    4.60
  -9  11  -2   -3.80    3.10
  -9  11  -2   -1.90    3.90
   9  11   2   -6.70    4.20
 -10 -12   2    1.90    5.40
 -10  12   2    6.60    4.20
  10  12  -2   -4.60    4.80
 -10  12   2   -1.00    4.00
  -9 -12   2    1.30    4.60
   9  12  -2    5.30    4.40
  -9  12   2    5.20    4.20
  -9  12   2    9.50    3.60
  -8 -12   2    0.30    3.10
  -8  12   2    2.30    2.70
  -8  12   2   -0.50    3.10
   8  12  -2    4.00    4.60
  -7 -12   2   65.49    9.10
   7  12  -2   77.59    7.80
  -7  12   2   74.59    5.80
  -6 -12   2   11.40    3.60
  -6  12   2   21.10    3.40
   6  12  -2   12.30    4.00
   5 -12  -2   43.90    6.90
  -5 -12   2   41.90    7.40
   5  12  -2   45.10    5.80
  -5  12   2   36.40    3.40
  -4 -12   2  135.49   10.80
   4 -12  -2  148.89   11.10
   4  12  -2  152.48    9.70
  -4  12   2  128.09    7.80
  -3 -12   2  141.99   10.70
  -3 -12   2  148.49    9.20
   3 -12  -2  138.79   10.70
   3  12  -2  132.99    9.20
   2 -12  -2   36.30    5.90
  -2 -12   2   61.59    8.30
   2  12  -2   55.49    5.40
   1 -12  -2  455.55   23.90
   1 -12  -2  440.16   20.30
  -1 -12   2  417.06   21.70
  -1 -12   2  482.35   24.40
  -1  12   2  464.05   21.30
   0 -12  -2    6.40    1.80
   0 -12   2    5.70    3.40
   0 -12   2    5.10    1.80
   0 -12  -2    5.90    3.20
   0  12   2    5.10    2.30
   1 -12   2  425.46   20.60
  -1 -12  -2  422.16   22.70
   1 -12   2  467.35   23.70
  -1 -12  -2  405.76   20.10
   1  12   2  419.56   20.70
   2 -12   2   -0.10    1.70
  -2 -12  -2   -3.20    2.70
   2 -12   2    3.20    2.90
   2  12   2   -1.90    2.10
  -2  12  -2    1.40    1.60
   3 -12   2  111.69    9.30
   3 -12   2   97.99    6.30
  -3 -12  -2   95.29    8.40
  -3  12  -2   94.69    6.80
   3  12   2   95.49    7.30
   4 -12   2   15.70    3.00
   4 -12   2   21.20    5.90
  -4 -12  -2   18.80    4.90
  -4  12  -2   12.60    3.10
   4  12   2   14.80    3.90
  -5 -12  -2  221.88   14.60
   5 -12   2  219.18   11.90
   5 -12   2  223.18   15.10
  -5  12  -2  220.58   12.60
   5  12   2  221.98   13.30
   6 -12   2   56.49    5.80
  -6 -12  -2   57.89    8.70
  -6  12  -2   64.39    6.00
   6  12   2   61.29    6.80
  -7 -12  -2   80.79    8.80
   7 -12   2   87.09   10.00
   7  12   2   71.19    8.00
  -7  12  -2   70.39    7.00
   8 -12   2   -5.20    8.90
  -8 -12  -2    3.70    4.90
   8  12   2    3.50    4.50
  -8  12  -2   -0.10    2.90
  -8  12  -2    5.30    3.50
  -9 -12  -2   19.10    7.00
   9  12   2   11.60    5.30
  -9  12  -2    7.90    4.20
  -9 -13   2   18.90    6.20
   9  13  -2    7.10    5.40
  -9  13   2   10.80    4.30
  -9  13   2    7.80    3.70
  -8  13   2   79.49    8.50
  -8  13   2   73.79    6.50
   8  13  -2   58.49    8.20
  -7 -13   2    3.70    4.10
   7  13  -2    5.30    4.60
  -7  13   2    8.00    3.00
  -6 -13   2   48.50    7.70
   6  13  -2   46.70    6.30
  -6  13   2   42.70    4.30
  -5 -13   2    4.20    3.40
   5 -13  -2    9.20    4.00
   5  13  -2    3.40    2.90
  -5  13   2    5.40    2.10
   4 -13  -2    6.50    3.30
  -4 -13   2   11.90    4.00
  -4 -13   2    4.10    2.60
   4  13  -2   -0.10    3.00
   3 -13  -2   -2.00    2.30
  -3 -13   2    2.40    3.20
  -3 -13   2   -0.10    1.80
   3  13  -2    0.50    2.80
   2 -13  -2   10.80    4.60
  -2 -13   2    4.70    3.80
  -1 -13   2   46.60    7.90
   1 -13  -2   26.30    2.70
   1 -13  -2   42.50    6.90
  -1 -13   2   28.70    4.10
  -1  13   2   33.30    4.40
   0 -13   2   31.20    6.20
   0 -13  -2   32.20    5.80
   0 -13  -2   20.40    2.70
   0 -13   2   26.90    3.60
   0  13   2   26.30    4.00
  -1 -13  -2    2.80    2.90
   1 -13   2    4.10    2.00
  -1 -13  -2    0.80    1.70
   1 -13   2    2.30    2.50
   1  13   2   -0.20    2.20
  -2 -13  -2   15.30    3.00
   2 -13   2   37.10    6.90
  -2 -13  -2   23.40    5.40
   2 -13   2   22.00    3.40
  -2  13  -2   31.10    4.60
   2  13   2   15.00    3.70
  -3 -13  -2    3.80    3.00
   3 -13   2    3.40    2.70
   3 -13   2   -2.50    1.90
   3  13   2    2.00    3.10
  -3  13  -2   -0.60    2.00
  -4 -13  -2   55.69    7.60
   4 -13   2   51.39    8.00
   4 -13   2   40.60    4.60
  -4  13  -2   43.20    4.60
   4  13   2   40.00    5.50
  -5 -13  -2   10.50    4.50
   5 -13   2   14.40    3.30
   5 -13   2   20.30    5.50
  -5  13  -2   18.80    3.80
   5  13   2   13.40    4.40
   6 -13   2   18.30    4.50
  -6 -13  -2   10.50    4.30
  -6  13  -2   11.00    3.20
   6  13   2   12.00    4.50
  -7 -13  -2    3.50    4.20
  -7  13  -2   -0.80    2.90
   7  13   2    1.70    4.30
  -8 -13  -2    6.90    5.80
  -8  13  -2   -0.50    4.00
  -8  13  -2    1.40    3.80
   8  13   2    1.50    4.80
  -9  14   2    3.40    3.60
  -8 -14   2    4.60    4.60
  -8  14   2    4.00    3.70
  -8  14   2    2.30    3.00
   8  14  -2    2.80    4.00
  -7 -14   2   32.70    9.60
  -7  14   2   30.60    4.30
   7  14  -2   31.40    5.80
  -6 -14   2    7.40    4.70
   6  14  -2    3.00    3.50
  -6  14   2    0.70    2.20
  -5 -14   2   27.90    6.30
   5 -14  -2   28.10    5.90
  -5 -14   2   20.50    4.00
  -5  14   2   25.60    3.60
   5  14  -2   21.80    4.80
  -4 -14   2   34.70    6.50
  -4 -14   2   23.70    4.20
   4 -14  -2   47.70    7.50
   4  14  -2   29.90    5.30
  -3 -14   2  106.59   10.50
   3 -14  -2  127.79   10.60
   3  14  -2  128.89    9.00
  -2 -14   2  117.69    8.30
   2 -14  -2  140.79   10.70
  -2 -14   2  124.49   10.80
   1 -14  -2   38.90    7.40
   1 -14  -2   26.90    3.30
  -1 -14   2   25.00    6.20
  -1 -14   2   23.80    4.00
   0 -14   2    8.10    3.60
   0 -14  -2    5.50    3.60
   0  14   2    6.60    2.60
   1 -14   2  138.49    8.50
  -1 -14  -2  133.49    8.20
   1 -14   2  157.68   11.60
  -1 -14  -2  155.38   11.40
   1  14   2  145.09    9.20
  -2 -14  -2    4.00    2.50
   2 -14   2    5.70    4.40
  -2 -14  -2    8.80    3.50
   2 -14   2    9.50    2.40
   2  14   2    5.60    2.80
  -3 -14  -2   69.19    9.10
   3 -14   2   93.89    8.80
   3 -14   2   58.79    5.20
   3  14   2   67.49    6.50
  -3  14  -2   67.99    5.80
  -4 -14  -2   21.80    5.50
   4 -14   2   19.70    3.50
   4 -14   2   20.70    5.70
   4  14   2   19.30    4.20
  -4  14  -2   16.40    3.50
   5 -14   2   39.50    6.90
   5 -14   2   45.80    5.20
  -5 -14  -2   51.59    8.10
  -5  14  -2   48.00    5.50
   5  14   2   39.10    6.00
   6 -14   2   29.50    8.30
  -6 -14  -2   45.80    8.00
  -6  14  -2   51.49    5.70
   6  14   2   37.00    6.10
  -7 -14  -2   19.90    5.70
   7  14   2   10.30    4.50
  -7  14  -2   14.90    4.20
  -8  14  -2    8.90    4.20
  -8 -15   2   36.60    7.10
  -8  15   2   36.10    5.00
  -8  15   2   42.50    7.20
   8  15  -2   20.30    5.60
  -7 -15   2    7.30    5.10
   7  15  -2    0.50    4.20
  -7  15   2    2.30    2.80
  -6 -15   2   21.00    9.10
  -6  15   2   24.30    3.90
   6  15  -2   17.00    5.70
   5 -15  -2    4.90    3.70
  -5 -15   2   17.00    5.00
  -5 -15   2    3.30    3.50
   5  15  -2   12.70    3.80
   4 -15  -2   10.30    4.60
  -4 -15   2    3.80    3.20
  -4 -15   2   11.70    4.60
   4  15  -2    4.90    3.30
  -3 -15   2    2.20    3.40
   3 -15  -2    4.20    3.50
   3  15  -2    3.80    2.90
  -2 -15   2   23.70    6.40
  -2 -15   2   18.80    3.70
   2 -15  -2   25.60    6.50
  -1 -15   2    6.60    2.90
  -1 -15   2    9.20    3.50
   1 -15  -2   12.20    4.90
   0 -15   2    1.20    2.80
   0 -15  -2    6.90    1.90
   0 -15   2    2.90    2.10
   0 -15  -2    2.90    3.30
   0  15   2    6.30    2.00
   1 -15   2   -3.10    2.10
  -1 -15  -2    1.70    3.00
   1 -15   2    0.00    2.70
  -1 -15  -2    0.30    1.70
   1  15   2   -0.30    2.20
  -2 -15  -2    0.40    2.30
   2 -15   2   -3.40    2.30
  -2 -15  -2    3.80    3.20
   2 -15   2   -1.10    2.30
   2  15   2    0.70    2.20
  -3 -15  -2    9.00    3.40
   3 -15   2   14.60    5.10
   3 -15   2    9.50    3.00
  -3 -15  -2    7.70    4.30
   3  15   2    7.10    3.40
  -3  15  -2   12.70    3.30
   4 -15   2    1.50    3.90
  -4 -15  -2   -1.60    3.90
   4 -15   2    0.10    2.80
   4  15   2   -2.10    3.10
  -4  15  -2   -1.70    2.20
   5 -15   2   14.20    6.40
  -5 -15  -2   13.20    5.30
   5  15   2   12.60    4.30
  -5  15  -2   11.90    3.60
   6 -15   2    8.80    4.80
  -6 -15  -2    6.10    4.90
  -6  15  -2   10.60    3.20
   6  15   2    7.20    4.50
  -7 -15  -2    1.50    5.20
  -7  15  -2    0.30    3.20
   7  15   2   15.00    6.10
  -7 -16   2   -7.10    3.90
  -7  16   2    5.50    3.40
   7  16  -2    1.40    4.50
  -6 -16   2   59.59    9.80
  -6 -16   2   24.70    5.20
   6  16  -2   36.90    5.70
  -5 -16   2   -0.80    3.70
  -5 -16   2    7.60    5.00
   5 -16  -2    3.70    4.10
   5  16  -2   -0.30    3.90
   4 -16  -2  166.28   13.80
  -4 -16   2  185.28   14.20
   4  16  -2  190.68   12.20
   3 -16  -2    1.00    3.10
  -3 -16   2    1.40    3.20
  -3 -16   2    0.00    3.90
  -2 -16   2   39.70    7.50
  -2 -16   2   33.30    5.10
   2 -16  -2   40.60    7.00
   1 -16  -2    7.50    4.20
  -1 -16   2    8.10    4.20
  -1 -16   2    5.20    2.70
   0 -16   2  130.79    8.80
   0 -16   2  156.38   12.10
   0 -16  -2  137.49   11.40
   0  16   2  144.79    9.40
  -1 -16  -2   24.80    5.50
   1 -16   2   23.70    4.10
   1 -16   2   29.70    7.30
   1  16   2   22.80    4.50
   2 -16   2   96.69    9.90
  -2 -16  -2   77.39    6.70
  -2 -16  -2   94.99    9.40
   2 -16   2   87.49    6.70
   2  16   2   88.19    7.30
   3 -16   2   -4.60    2.70
  -3 -16  -2    4.30    3.90
  -3 -16  -2    1.50    3.20
   3 -16   2   -0.40    3.10
   3  16   2    5.20    3.50
  -4 -16  -2   31.50    5.60
  -4 -16  -2   48.30    8.30
   4 -16   2   44.60    7.70
  -4  16  -2   48.60    6.40
   4  16   2   45.30    6.50
  -5 -16  -2    9.80    5.50
   5 -16   2   10.90    5.60
  -5  16  -2    3.10    2.90
  -6 -16  -2   19.70    5.90
   6 -16   2   24.30    6.70
   6  16   2   19.70    5.60
  -6 -17   2   -0.10    5.70
  -6 -17   2   -3.00    4.60
   6 -17  -2   -0.30    4.90
   6  17  -2    8.30    4.90
   5 -17  -2   12.80    4.60
  -5 -17   2   18.20    6.50
  -5 -17   2   11.90    6.10
   5  17  -2   14.20    5.10
  -4 -17   2   -3.00    3.70
  -4 -17   2   -1.60    3.70
   4 -17  -2   -3.00    3.40
   4  17  -2    3.70    3.30
  -3 -17   2   42.90    5.90
   2 -17  -2    5.20    3.70
  -2 -17   2    2.80    2.90
   1 -17  -2   -0.10    2.80
  -1 -17   2   10.10    7.10
  -1 -17   2   -4.00    2.50
   0 -17  -2   -3.50    2.90
   0 -17   2   -0.20    2.40
  -1 -17  -2   14.60    4.80
   1 -17   2   12.10    3.30
   2 -17   2   -0.20    2.50
  -2 -17  -2    1.40    3.50
   2 -17   2    6.10    3.20
  -2 -17  -2   -4.40    3.60
  -3 -17  -2    4.00    5.20
   3 -17   2    5.90    4.40
  -3 -17  -2    5.20    4.00
   3  17   2    1.40    3.00
   4 -17   2    4.50    4.10
   4  17   2    2.20    3.50
  -5 -17  -2    3.00    4.50
   5 -17   2    1.80    3.30
   5  17   2   -4.60    4.00
  -4 -18   2   55.79    9.50
   4 -18  -2   69.89   10.50
   3 -18  -2   55.79    8.70
  -3 -18   2   35.50    7.60
   2 -18  -2   -0.70    3.80
  -2 -18   2    0.20    4.90
  -2 -18   2   -2.30    3.50
  -1 -18   2   10.60    4.50
   1 -18  -2    8.40    4.60
  -1 -18   2   28.60    7.10
   0 -18  -2   48.60    8.00
   0 -18   2   58.59    9.00
   1 -18   2   67.89   10.40
  -1 -18  -2   57.69    9.20
   1  18   2   48.80    6.40
   2 -18   2   50.79    7.90
  -2 -18  -2   43.30    7.10
   2  18   2   30.50    5.40
   3 -18   2   11.30    4.80
  -3 -18  -2   13.50    5.20
   3  18   2    6.20    3.60
   2 -19  -2   38.20    8.50
  -2 -19   2   17.80    5.90
   1 -19  -2    9.10    4.60
  -1 -19   2    4.90    4.40
   0 -19   2   -0.10    3.60
   0 -19  -2    4.30    3.90
  -1 -19  -2   -1.00    3.70
   1 -19   2   -4.10    2.80
 -13   0   3   14.30    6.40
  12   0  -3  -13.00    7.60
 -12   0   3    2.50    3.70
 -12   0   3   -7.90    5.30
 -11   0   3   -0.20    3.80
  11   0  -3   -1.20    4.10
 -11   0   3    2.50    2.90
  10   0  -3    0.30    3.20
 -10   0   3   -0.90    3.30
 -10   0   3    1.40    2.60
  -9   0   3    6.30    3.20
   9   0  -3    7.10    3.00
  -9   0   3    3.20    3.00
  -8   0   3    1.80    2.00
  -8   0   3    4.70    2.60
   8   0  -3    2.30    2.40
   7   0  -3   14.40    2.50
  -7   0   3   10.70    2.50
  -7   0   3   11.80    2.60
  -6   0   3   -0.20    1.10
   6   0  -3    1.00    1.50
  -6   0   3   -0.10    1.80
   6   0  -3   -2.70    1.00
   5   0  -3   96.59    6.30
  -5   0   3  110.19    6.70
   5   0  -3  101.59    5.80
  -5   0   3  108.69    6.00
   4   0  -3    0.50    1.00
  -4   0   3   -0.30    1.00
   4   0  -3    0.30    1.20
  -4   0   3    0.60    1.50
  -3   0   3 1083.19   47.20
   3   0  -3 1060.79   47.50
  -3   0   3 1093.39   47.70
   3   0  -3 1100.99   47.10
  -2   0   3   -0.90    0.90
   1   0  -3  615.44   27.00
   1   0  -3  602.24   27.20
  -1   0   3  658.63   27.60
  -1   0   3  606.54   27.00
   0   0  -3    0.80    0.90
   0   0  -3    0.00    0.40
   0   0   3    1.10    1.00
   0   0   3    0.20    0.50
  -1   0  -3 6205.48  269.57
   1   0   3 6288.77  269.67
  -1   0  -3 6244.88  269.07
  -1   0  -3 6419.46  268.87
  -2   0  -3    0.70    0.80
  -2   0  -3   -1.00    1.20
  -3   0  -3  676.73   30.00
   3   0   3  668.13   30.60
  -3   0  -3  673.53   30.50
   4   0   3    5.60    1.90
  -4   0  -3    2.30    1.80
  -4   0  -3    2.00    1.40
  -5   0  -3  970.10   43.20
  -5   0  -3  934.11   43.40
   5   0   3  972.40   43.40
   6   0   3    1.10    2.10
  -6   0  -3   -0.30    1.50
  -6   0  -3    0.70    2.30
  -7   0  -3   53.69    5.60
   7   0   3   60.29    5.50
  -7   0  -3   45.80    5.10
   8   0   3   -3.50    2.90
  -8   0  -3   -0.30    2.50
  -8   0  -3   -0.20    3.20
   9   0   3   48.40    6.20
  -9   0  -3   48.20   10.30
  -9   0  -3   41.60    5.70
 -10   0  -3  -15.20    4.70
 -10   0  -3   -0.30    3.30
  10   0   3   -2.20    4.30
 -11   0  -3    9.70    4.40
  11   0   3    7.40    5.50
 -13   1   3    4.80    4.50
 -12  -1   3   24.70    6.60
  12  -1  -3   23.60    7.00
 -12  -1   3   37.30    6.10
 -12   1   3   33.20    6.30
 -12   1   3   24.10    5.40
  12   1  -3   38.50    6.80
 -11  -1   3   31.00    5.80
 -11  -1   3   38.60    6.30
  11  -1  -3   50.39    6.20
 -11   1   3   37.80    5.70
  11   1  -3   45.40    5.90
 -11   1   3   30.70    6.10
  10  -1  -3   40.90    5.60
 -10  -1   3   25.40    4.90
 -10  -1   3   46.20    8.20
 -10   1   3   38.70    6.50
  10   1  -3   19.70    4.40
 -10   1   3   25.70    4.60
   9  -1  -3   82.59    7.50
  -9  -1   3   78.59    6.80
  -9  -1   3   70.09    6.90
  -9   1   3   65.79    6.30
  -8  -1   3  227.68   12.40
  -8  -1   3  230.78   13.30
   8  -1  -3  214.48   11.70
  -8   1   3  232.88   13.30
  -8   1   3  230.98   12.30
  -7  -1   3   58.49    5.40
  -7  -1   3   67.39    4.90
   7  -1  -3   65.89    4.60
  -7   1   3   62.29    5.50
  -7   1   3   58.79    4.60
  -6  -1   3    3.20    1.80
   6  -1  -3    4.50    1.50
  -6  -1   3    3.80    1.80
   6  -1  -3    4.70    1.70
  -6   1   3    3.60    2.00
   6   1  -3    3.90    1.90
  -6   1   3    6.90    1.70
  -5  -1   3    3.50    1.60
   5  -1  -3    1.90    1.40
   5  -1  -3    3.70    1.10
  -5  -1   3    4.20    2.00
  -5   1   3    5.70    1.40
  -5   1   3    4.60    1.80
   5   1  -3    4.20    1.70
  -4  -1   3  312.37   14.90
  -4  -1   3  293.67   14.30
   4  -1  -3  313.17   14.70
   4  -1  -3  296.67   13.90
  -4   1   3  309.57   14.80
  -4   1   3  299.97   14.00
   4   1  -3  312.57   14.80
  -3  -1   3    5.10    1.30
   3  -1  -3    2.00    1.20
  -3  -1   3    5.00    1.70
  -3   1   3    5.20    1.40
   3   1  -3    3.80    1.30
  -3   1   3    2.30    0.90
  -2  -1   3  230.18   10.40
  -2  -1   3  209.18   10.20
   2   1  -3  210.88   10.20
  -2   1   3  215.78   10.10
  -1  -1   3    1.10    1.00
   1  -1  -3    1.10    0.70
  -1  -1   3    0.50    1.00
   1  -1  -3    0.30    0.50
  -1   1   3    0.30    0.80
   1   1  -3    1.50    1.00
  -1   1   3    1.30    0.70
   1   1  -3    1.10    0.80
   0  -1  -3   12.10    1.50
   0  -1   3   13.50    1.80
   0  -1   3   12.80    1.50
   0   1  -3   13.40    1.50
   0   1   3   13.70    1.80
   1  -1   3   70.09    4.40
   1  -1   3   77.49    4.20
  -1  -1  -3   74.59    3.70
  -1  -1  -3   71.69    4.30
   1   1   3   72.89    3.60
   1   1   3   76.39    4.40
  -1   1  -3   75.99    4.10
  -2  -1  -3   20.70    1.80
   2  -1   3   16.30    2.20
  -2  -1  -3   15.10    2.20
  -2   1  -3   13.70    2.00
  -2   1  -3   15.10    2.00
   2   1   3   15.10    1.60
   2   1   3   20.90    2.40
  -2   1  -3   19.70    2.50
  -3  -1  -3   16.10    2.20
  -3  -1  -3   11.90    2.20
   3  -1   3   13.60    2.40
   3   1   3   14.00    2.40
  -3   1  -3   14.20    2.10
  -3   1  -3   15.30    2.50
  -3   1  -3   12.00    2.20
   3   1   3   16.20    2.10
  -4  -1  -3   95.89    5.90
   4  -1   3   91.99    6.20
  -4  -1  -3   86.89    6.10
  -4   1  -3  101.99    5.90
   4   1   3  100.19    6.20
   4   1   3   91.99    5.70
  -4   1  -3   98.19    6.30
  -4   1  -3  102.69    6.40
  -5  -1  -3   11.40    2.50
   5  -1   3    7.60    2.80
  -5  -1  -3    9.20    2.50
  -5   1  -3   14.10    3.10
  -5   1  -3    9.80    2.20
   5   1   3   12.50    2.80
   5   1   3    8.80    2.30
  -6  -1  -3   66.79    5.30
  -6  -1  -3   73.69    5.90
   6  -1   3   91.19    8.50
  -6   1  -3   62.69    5.80
   6   1   3   68.19    5.20
  -6   1  -3   66.39    5.40
   6   1   3   62.39    5.60
   7  -1   3   13.90    4.20
  -7  -1  -3    8.90    2.70
  -7  -1  -3   14.00    3.80
  -7   1  -3   10.30    3.20
  -7   1  -3   13.40    3.50
   7   1   3   17.40    3.60
  -8  -1  -3   17.00    5.00
  -8  -1  -3   22.60    4.00
   8  -1   3   17.80    4.50
  -8   1  -3   14.50    3.80
   8   1   3   17.40    4.10
  -8   1  -3   14.80    3.60
  -9  -1  -3    6.50    4.30
  -9  -1  -3    3.50    3.20
   9  -1   3   -2.00    3.30
  -9   1  -3    4.30    3.30
  -9   1  -3   -4.50    3.70
   9   1   3    6.80    4.00
  10  -1   3   -1.90    6.30
 -10  -1  -3    2.40    3.80
 -10   1  -3   14.70    4.30
  10   1   3    8.40    4.40
 -10   1  -3    2.80    5.60
 -11  -1  -3   25.90    5.50
  11   1   3   23.80    6.70
 -11   1  -3   20.50    6.00
 -12  -2   3   14.80    4.80
 -12  -2   3   -2.10    6.80
  12  -2  -3   11.90    6.20
 -12   2   3   11.30    4.40
  12   2  -3    1.90    8.30
 -12   2   3   -6.30    4.50
 -11  -2   3    7.00    5.10
  11  -2  -3   -2.30    4.00
 -11  -2   3    6.20    3.90
 -11   2   3   -0.10    3.50
 -11   2   3    2.40    4.10
  10  -2  -3   -3.90    3.10
 -10  -2   3    3.40    3.40
 -10  -2   3    1.80    3.50
 -10   2   3   -4.20    3.10
 -10   2   3   -1.10    2.70
  -9  -2   3    5.70    3.40
  -9  -2   3   12.20    3.50
   9  -2  -3    8.20    2.80
   9   2  -3    7.30    3.10
  -9   2   3   12.30    3.20
  -9   2   3    4.50    2.40
  -8  -2   3   17.70    4.20
   8  -2  -3   19.60    3.10
  -8  -2   3   18.50    3.80
  -8   2   3   18.60    3.00
   8   2  -3   16.40    3.30
  -8   2   3   19.60    4.30
  -7  -2   3   39.60    4.10
   7  -2  -3   37.60    3.40
  -7  -2   3   30.40    4.50
  -7   2   3   37.90    3.60
   7   2  -3   39.90    3.80
  -7   2   3   27.00    3.80
  -6  -2   3  103.29    6.50
   6  -2  -3  111.59    5.90
  -6  -2   3   99.29    7.10
   6  -2  -3  106.69    6.90
   6   2  -3  112.39    6.60
  -6   2   3   94.49    6.80
   6   2  -3  101.99    6.80
  -6   2   3  104.79    6.20
   5  -2  -3  300.17   15.10
  -5  -2   3  302.17   15.40
  -5  -2   3  299.27   14.70
   5  -2  -3  310.87   14.00
  -5   2   3  315.17   14.30
   5   2  -3  302.57   15.20
  -5   2   3  299.97   15.00
   5   2  -3  300.17   14.70
   4  -2  -3  185.08    9.90
  -4  -2   3  195.08    9.80
   4  -2  -3  197.38    8.90
  -4  -2   3  191.38   10.20
  -4   2   3  191.48    9.90
   4   2  -3  196.18    9.70
   4   2  -3  182.28    9.90
  -4   2   3  198.28    9.10
  -3  -2   3  194.58   10.20
  -3  -2   3  204.58    9.90
   3   2  -3  196.28   10.00
  -3   2   3  208.18    9.20
   3   2  -3  205.08    9.80
  -3   2   3  195.98    9.90
  -2  -2   3    1.60    1.30
  -2  -2   3    4.80    1.40
   2   2  -3    5.50    1.40
  -2   2   3    5.30    1.10
  -1  -2   3  385.56   17.90
  -1  -2   3  398.76   17.90
  -1   2   3  391.56   17.60
   1   2  -3  409.86   18.30
  -1   2   3  387.76   17.30
   0  -2  -3  195.88    8.90
   0  -2   3  193.68    9.40
   0  -2  -3  182.58    8.70
   0  -2   3  197.88    9.40
   0   2   3  181.28    8.70
   0   2  -3  189.58    9.30
   0   2  -3  210.38    9.50
   0   2   3  198.08    9.00
  -1  -2  -3  630.24   29.40
  -1  -2  -3  662.73   29.90
   1  -2   3  701.23   30.10
   1  -2   3  671.63   30.10
   1   2   3  686.23   29.30
   1   2   3  685.63   29.90
  -1   2  -3  692.83   30.10
  -2  -2  -3  179.48    9.10
  -2  -2  -3  189.38    8.70
   2  -2   3  170.78    9.10
   2   2   3  178.18    8.90
  -2   2  -3  179.68    9.30
  -2   2  -3  182.28    9.30
   2   2   3  179.58    9.10
  -3  -2  -3  139.09    7.30
   3  -2   3  140.99    7.70
  -3  -2  -3  142.89    7.80
  -3   2  -3  141.49    7.40
  -3   2  -3  137.39    8.50
  -3   2  -3  137.09    7.90
   3   2   3  134.19    7.10
   3   2   3  142.69    7.80
  -4  -2  -3  839.92   38.00
   4  -2   3  845.22   37.90
  -4  -2  -3  849.72   37.70
  -4   2  -3  796.92   38.30
  -4   2  -3  846.32   37.60
   4   2   3  849.61   38.00
   4   2   3  835.32   37.40
  -4   2  -3  851.21   38.00
  -5  -2  -3  208.18   11.20
   5  -2   3  209.08   11.00
  -5  -2  -3  204.98   10.90
  -5   2  -3  215.58   10.90
  -5   2  -3  190.18   13.20
  -5   2  -3  202.38   11.10
   5   2   3  197.98   10.70
   5   2   3  186.78   11.00
  -6  -2  -3  180.58   10.30
   6  -2   3  174.08   10.30
  -6  -2  -3  168.28   10.50
  -6   2  -3  183.58   10.30
   6   2   3  177.88   10.10
  -6   2  -3  169.18   10.80
  -6   2  -3  183.78   10.60
   6   2   3  182.78   10.50
  -7  -2  -3   41.90    5.20
  -7  -2  -3   52.59    6.00
   7  -2   3   54.99    5.40
   7   2   3   44.00    5.70
  -7   2  -3   47.90    5.50
  -8  -2  -3   17.00    4.30
  -8  -2  -3   12.80    4.00
   8  -2   3   14.80    3.90
   8   2   3   12.60    3.50
  -8   2  -3   10.70    3.90
  -8   2  -3   12.10    3.50
  -9  -2  -3    3.50    5.10
   9  -2   3    3.70    3.60
  -9  -2  -3    1.40    3.50
  -9   2  -3    4.60    3.00
  -9   2  -3    0.90    3.80
   9   2   3   -2.60    3.40
  10  -2   3    0.20    4.40
 -10  -2  -3    3.40    3.90
 -10   2  -3    5.40    3.30
  10   2   3    7.80    4.70
 -10   2  -3    3.00    4.70
 -11  -2  -3    0.70    3.80
  11  -2   3   -1.40    6.10
  11   2   3    5.60    6.10
 -11   2  -3    4.20    7.50
 -12  -3   3   -0.80    3.80
  12   3  -3   -8.60    5.70
 -12   3   3    1.60    4.40
 -12   3   3    0.00    3.00
 -11  -3   3  121.79   10.00
  11  -3  -3  115.29    8.70
 -11  -3   3  114.99   10.10
 -11   3   3  132.09   10.20
  11   3  -3  121.39    9.70
 -11   3   3   93.79    8.60
  10  -3  -3   13.70    3.40
 -10  -3   3    7.40    3.80
 -10  -3   3    5.70    3.80
  10   3  -3   10.20    3.60
 -10   3   3    8.70    3.80
 -10   3   3    9.30    3.40
   9  -3  -3    3.40    2.50
  -9  -3   3   10.10    4.40
  -9  -3   3    7.70    3.20
  -9   3   3    3.10    2.70
   9   3  -3    7.40    3.50
  -9   3   3    5.70    3.20
   8  -3  -3   27.60    3.30
  -8  -3   3   21.10    3.80
  -8  -3   3   22.00    4.00
   8   3  -3   23.20    3.90
  -8   3   3   22.70    4.00
  -8   3   3   22.30    3.30
  -7  -3   3  235.38   13.20
   7  -3  -3  207.48   10.70
  -7  -3   3  202.58   11.90
  -7   3   3  241.48   12.90
  -7   3   3  209.88   11.20
   7   3  -3  226.68   11.80
  -6  -3   3   89.89    7.30
  -6  -3   3  106.69    7.30
   6  -3  -3  104.29    5.60
  -6   3   3  110.69    7.00
   6   3  -3  112.39    6.90
   6   3  -3   96.69    6.80
  -6   3   3  109.69    6.10
  -5  -3   3  787.32   35.70
   5  -3  -3  770.12   33.70
  -5  -3   3  768.32   35.00
  -5   3   3  777.02   34.10
  -5   3   3  770.72   35.10
   5   3  -3  766.72   34.90
  -4  -3   3  336.87   16.20
  -4   3   3  331.87   16.20
   4   3  -3  360.16   16.50
  -4   3   3  334.97   15.30
   4   3  -3  336.07   16.10
  -3  -3   3  153.78    7.90
  -3  -3   3  159.58    8.30
  -3   3   3  156.48    8.40
  -3   3   3  143.09    7.80
   3   3  -3  152.68    8.10
  -3   3   3  148.59    6.80
   3   3  -3  143.29    7.80
  -2  -3   3   83.49    5.10
  -2  -3   3   91.29    5.40
  -2   3   3   88.59    5.20
   2   3  -3   83.49    5.10
  -1  -3   3    5.80    1.70
  -1  -3   3    6.70    1.40
   1  -3  -3    6.10    1.30
  -1   3   3    6.50    1.40
   1   3  -3    9.40    1.80
  -1   3   3    5.80    0.90
   0  -3  -3    2.10    0.80
   0  -3   3    0.80    1.20
   0  -3   3    2.00    1.10
   0  -3  -3    0.60    0.70
   0   3   3    1.40    1.00
   0   3   3    1.30    0.80
   0   3  -3    1.30    1.20
   0   3  -3    1.20    1.10
   1  -3   3    2.00    1.20
   1  -3   3    3.60    1.30
  -1  -3  -3    0.80    1.00
  -1  -3  -3    2.00    1.10
   1   3   3    0.30    1.20
   1   3   3    2.50    0.80
  -1   3  -3    2.60    1.20
  -1   3  -3    0.40    1.10
   2  -3   3    2.10    1.40
  -2  -3  -3    1.40    1.10
   2  -3   3    2.50    1.30
  -2  -3  -3    0.90    1.20
   2   3   3    3.00    1.00
  -2   3  -3    1.00    1.30
   2   3   3    3.20    1.50
  -2   3  -3    3.10    1.30
  -3  -3  -3    0.80    1.50
  -3  -3  -3    0.30    1.10
   3  -3   3    0.80    1.50
   3   3   3    0.90    1.30
  -3   3  -3   -0.20    1.40
  -3   3  -3    1.50    1.50
   3   3   3   -0.60    1.10
  -4  -3  -3   -0.10    1.60
   4  -3   3    1.10    1.70
  -4  -3  -3    2.70    1.70
   4   3   3   -1.00    1.70
  -4   3  -3    0.80    1.30
   4   3   3    2.60    1.60
  -4   3  -3    2.70    1.80
  -5  -3  -3   23.20    3.50
   5  -3   3   20.20    3.40
  -5  -3  -3   25.10    3.40
  -5   3  -3   22.70    4.10
  -5   3  -3   25.80    3.70
   5   3   3   26.50    3.40
  -5   3  -3   28.60    4.00
   5   3   3   23.50    3.70
   6  -3   3    1.20    2.00
  -6  -3  -3    1.90    2.20
  -6  -3  -3    4.20    2.70
   6   3   3    3.00    2.60
  -6   3  -3    2.00    2.30
   6   3   3    1.20    2.00
  -6   3  -3    0.70    1.70
  -7  -3  -3  171.68   10.60
  -7  -3  -3  147.09   10.30
   7  -3   3  164.18   10.10
   7   3   3  176.78   10.70
  -7   3  -3  160.58   10.20
  -7   3  -3  170.58   10.30
  -8  -3  -3   14.50    3.40
  -8  -3  -3    3.30    3.80
   8  -3   3   16.00    3.70
  -8   3  -3   18.10    4.60
   8   3   3   14.40    4.20
  -8   3  -3   11.80    3.60
  -9  -3  -3    8.50    3.50
   9  -3   3   -1.70    3.90
   9   3   3   25.00    5.60
  -9   3  -3    2.50    3.80
  -9   3  -3    3.10    3.10
 -10  -3  -3    4.10    3.90
  10  -3   3    7.20    5.00
 -10   3  -3    1.60    3.20
  10   3   3   -1.80    4.70
 -10   3  -3    7.30    4.90
 -11  -3  -3   12.10    4.80
  11  -3   3    7.40    6.60
  11   3   3    0.90    6.70
 -11   3  -3   11.40    4.80
 -12  -4   3    4.80    4.20
 -12   4   3   -0.80    3.90
  12   4  -3  -11.20    5.50
 -12   4   3    4.60    4.60
 -11  -4   3    3.40    4.10
 -11  -4   3   10.40    5.20
  11  -4  -3    0.20    6.50
  11   4  -3   -6.40    4.40
 -11   4   3    1.30    3.00
 -11   4   3   -2.50    3.30
 -10  -4   3   13.90    4.40
 -10  -4   3   18.20    4.60
  10  -4  -3   19.60    3.50
 -10   4   3   13.00    3.50
  10   4  -3   13.00    4.10
 -10   4   3   16.00    3.90
   9  -4  -3    7.10    2.60
  -9  -4   3    6.90    3.30
  -9  -4   3    8.00    3.50
  -9   4   3    5.20    2.90
   9   4  -3    5.90    3.30
  -9   4   3    0.00    2.20
  -8  -4   3    4.70    3.30
  -8  -4   3    3.80    2.90
   8  -4  -3    4.80    2.00
  -8   4   3    3.80    2.40
   8   4  -3    7.00    2.50
  -8   4   3    1.40    2.30
  -7  -4   3   12.20    3.00
  -7  -4   3   20.30    5.20
   7  -4  -3   15.10    2.10
  -7   4   3   15.90    2.60
   7   4  -3   14.30    3.20
  -7   4   3   22.70    5.20
   6  -4  -3  290.57   12.60
  -6  -4   3  267.67   14.20
  -6   4   3  279.57   14.40
  -6   4   3  276.47   13.80
  -6   4   3  240.08   15.10
   6   4  -3  270.87   15.40
   6   4  -3  292.67   14.30
  -5  -4   3    5.00    2.10
  -5  -4   3    3.00    1.90
   5   4  -3    3.60    1.80
  -5   4   3    7.70    1.60
  -5   4   3    5.10    2.00
   5   4  -3    4.50    1.90
  -5   4   3    3.10    2.30
  -4  -4   3  317.37   15.30
  -4  -4   3  304.87   15.80
  -4   4   3  299.87   15.30
   4   4  -3  320.77   15.70
  -4   4   3  312.47   16.10
   4   4  -3  327.07   15.40
  -4   4   3  328.57   14.20
  -3  -4   3  519.15   24.20
  -3  -4   3  522.25   23.70
  -3   4   3  496.15   24.20
   3   4  -3  511.15   24.00
   3   4  -3  535.55   23.80
  -2  -4   3  870.21   37.40
   2  -4  -3  831.52   37.60
  -2  -4   3  850.91   37.90
   2   4  -3  842.32   37.60
  -2   4   3  811.22   37.60
  -1  -4   3   75.59    4.50
  -1  -4   3   73.89    4.50
  -1  -4   3   67.19    4.90
   1   4  -3   73.59    5.00
  -1   4   3   70.99    3.60
  -1   4   3   69.79    4.40
   1   4  -3   71.09    4.70
   0  -4  -3  174.88    8.20
   0  -4   3  180.78    9.40
   0  -4  -3  176.78    8.80
   0  -4   3  173.28    8.90
   0   4  -3  180.68    9.00
   0   4   3  174.28    8.40
   0   4  -3  174.58    9.20
   1  -4   3   69.19    4.80
   1  -4   3   66.89    4.30
  -1  -4  -3   62.49    4.00
  -1  -4  -3   70.89    4.30
  -1   4  -3   66.69    4.30
   1   4   3   69.79    4.00
  -1   4  -3   65.59    4.60
   1   4   3   60.59    4.00
  -2  -4  -3  461.25   21.10
   2  -4   3  471.45   22.00
   2  -4   3  453.85   21.20
  -2  -4  -3  452.45   21.00
   2   4   3  460.85   21.20
   2   4   3  465.65   20.90
  -2   4  -3  456.75   21.30
  -2   4  -3  459.25   21.80
  -3  -4  -3   46.20    3.70
   3  -4   3   46.10    3.80
   3  -4   3   45.00    4.30
  -3  -4  -3   44.40    3.90
  -3   4  -3   48.50    4.30
  -3   4  -3   45.50    3.90
   3   4   3   57.69    4.20
   3   4   3   49.70    3.70
  -4  -4  -3  106.39    6.80
  -4  -4  -3  108.39    6.70
   4  -4   3  115.19    6.80
   4   4   3  108.99    6.90
  -4   4  -3  118.89    7.10
  -4   4  -3   97.99    7.30
   4   4   3  108.79    6.50
  -5  -4  -3   18.00    3.50
  -5  -4  -3   15.50    3.10
   5  -4   3   13.40    2.40
  -5   4  -3   13.80    2.90
  -5   4  -3   10.50    3.20
   5   4   3   13.20    2.70
  -5   4  -3   18.40    3.70
   5   4   3   12.40    2.80
  -6  -4  -3  274.67   15.00
   6  -4   3  292.37   14.70
  -6  -4  -3  283.27   15.00
   6   4   3  256.87   14.40
  -6   4  -3  271.37   14.90
   6   4   3  294.57   15.20
  -6   4  -3  297.67   15.00
  -7  -4  -3   26.20    4.20
  -7  -4  -3   29.60    5.00
   7  -4   3   20.90    4.00
  -7   4  -3   14.80    3.80
  -7   4  -3   31.80    5.00
   7   4   3   23.20    4.70
   8  -4   3   11.60    3.50
  -8  -4  -3   15.90    4.10
  -8   4  -3   14.30    3.30
   8   4   3   17.10    4.40
  -8   4  -3   15.50    4.40
  -9  -4  -3    6.10    3.70
   9  -4   3    5.30    4.20
   9   4   3    9.50    4.40
  -9   4  -3    6.10    4.60
  -9   4  -3    2.10    3.00
  10  -4   3  -12.70    7.30
 -10  -4  -3    4.30    4.30
 -10   4  -3   -0.30    3.20
 -10   4  -3    1.60    4.90
  10   4   3    5.00    5.00
 -11  -4  -3    3.90    4.70
 -11   4  -3    5.60    4.10
  11   4   3   -0.40    6.80
 -12  -5   3    4.60    4.40
 -12   5   3   -8.40    4.00
 -12   5   3   -1.30    3.10
 -11  -5   3   56.19    8.40
 -11  -5   3   41.70    7.10
 -11   5   3   31.80    5.40
  11   5  -3   42.30    8.30
 -11   5   3   43.60    7.90
 -10  -5   3   48.90    6.50
 -10  -5   3   33.20    6.40
  10  -5  -3   42.80    4.40
  10   5  -3   31.40    5.50
 -10   5   3   38.10    5.40
 -10   5   3   35.90    5.70
   9  -5  -3   35.00    5.30
  -9  -5   3   27.50    5.30
  -9  -5   3   36.50    5.20
  -9   5   3   37.20    5.70
   9   5  -3   35.80    5.50
  -9   5   3   30.20    4.20
  -8  -5   3    4.30    2.70
  -8  -5   3   -2.70    2.20
   8  -5  -3    2.30    1.70
   8   5  -3    5.30    2.70
  -8   5   3    2.90    2.30
  -7  -5   3  143.09    9.90
   7  -5  -3  145.99    7.20
  -7  -5   3  148.99    9.20
  -7   5   3  151.48    8.10
   7   5  -3  141.59    9.00
  -7   5   3  140.89    9.20
  -6  -5   3   22.00    3.20
  -6  -5   3   31.20    4.60
   6  -5  -3   26.50    1.90
   6   5  -3   22.90    3.50
  -6   5   3   22.50    3.50
  -6   5   3   31.40    3.10
  -5  -5   3  246.78   13.00
  -5  -5   3  224.78   12.10
  -5   5   3  228.78   12.30
   5   5  -3  230.28   12.50
  -5   5   3  237.58   13.40
   5   5  -3  224.38   12.30
  -5   5   3  237.78   11.00
  -4  -5   3  438.96   21.10
  -4  -5   3  415.06   20.30
  -4   5   3  414.66   18.90
   4   5  -3  445.86   20.80
   4   5  -3  433.26   20.40
  -4   5   3  430.06   21.30
  -3  -5   3  265.67   13.60
  -3  -5   3  280.67   14.40
   3   5  -3  281.27   13.80
   3   5  -3  283.47   14.10
  -3   5   3  289.47   14.40
  -2  -5   3   17.80    3.30
  -2  -5   3   18.40    2.60
  -2  -5   3   18.60    2.40
   2  -5  -3   16.50    2.70
   2   5  -3   20.10    3.10
  -2   5   3   20.40    2.90
   1  -5  -3   37.60    3.20
  -1  -5   3   33.10    3.50
  -1  -5   3   36.00    3.10
  -1  -5   3   32.70    3.00
  -1   5   3   33.20    2.20
   1   5  -3   36.20    3.40
  -1   5   3   32.80    3.00
   0  -5  -3    6.00    1.50
   0  -5   3    7.30    2.20
   0  -5  -3    4.40    1.00
   0  -5   3    5.30    1.60
   0   5   3    3.50    1.40
   0   5  -3    5.70    1.60
   0   5   3    5.40    1.20
   0   5  -3    5.70    1.50
   1  -5   3    0.40    1.00
  -1  -5  -3    0.70    1.00
  -1  -5  -3    1.30    1.20
   1  -5   3    1.60    1.70
   1   5   3    2.20    1.00
   1   5   3    0.70    1.20
  -1   5  -3    2.20    1.30
  -1   5  -3    0.30    1.50
  -2  -5  -3    2.50    1.40
   2  -5   3    0.80    1.30
  -2  -5  -3    0.00    1.40
   2  -5   3   -2.10    1.20
  -2   5  -3    1.10    1.50
  -2   5  -3    0.60    1.50
   2   5   3    1.10    1.10
   2   5   3   -0.20    1.40
   3  -5   3    0.40    1.80
  -3  -5  -3    1.50    1.60
  -3  -5  -3    1.40    1.50
   3  -5   3    3.00    1.60
   3   5   3    0.70    1.40
   3   5   3   -0.10    1.40
  -3   5  -3    1.60    1.50
  -3   5  -3    3.50    1.70
   4  -5   3    1.40    1.50
  -4  -5  -3    2.90    1.60
  -4   5  -3    0.50    1.80
   4   5   3    3.20    1.80
  -4   5  -3   -0.70    1.70
   4   5   3    1.50    2.00
  -5  -5  -3   13.10    2.80
  -5  -5  -3    9.00    2.80
   5  -5   3   11.70    2.70
  -5   5  -3   10.90    2.90
   5   5   3   12.80    3.30
  -5   5  -3   12.90    2.90
  -5   5  -3   13.20    3.50
   5   5   3   28.60    6.30
  -6  -5  -3   21.50    3.90
   6  -5   3   27.80    4.00
  -6  -5  -3   31.20    4.80
   6   5   3   31.50    3.90
  -6   5  -3   16.40    4.10
   6   5   3   29.20    4.10
   7  -5   3   -1.40    2.80
  -7   5  -3    5.00    2.80
   7   5   3    2.00    3.20
  -7   5  -3   -1.00    2.20
  -8  -5  -3   12.30    3.80
  -8   5  -3   16.50    3.80
   8   5   3   15.70    4.30
  -8   5  -3    9.60    3.50
  -9  -5  -3   44.10    6.70
  -9   5  -3   47.70    7.10
   9   5   3   40.30    6.40
  -9   5  -3   59.39    6.90
 -10  -5  -3   -2.90    3.70
  10  -5   3   -7.30    5.50
 -10   5  -3   -0.60    4.80
 -10   5  -3   -2.50    3.00
  10   5   3   -3.40    5.30
 -11  -5  -3   14.30    7.20
  11   5   3   13.50    7.00
 -11   5  -3    1.20    4.10
 -12  -6   3    3.30    4.60
 -12   6   3    7.70    4.70
  12   6  -3   -4.70    5.80
 -12   6   3    6.60    5.00
 -11  -6   3   -2.50    5.90
 -11   6   3    3.10    4.40
  11   6  -3   -1.50    4.70
 -10  -6   3    8.50    4.70
 -10  -6   3   12.20    4.60
 -10   6   3    5.20    3.00
  10   6  -3    5.60    4.20
 -10   6   3    6.20    3.80
   9  -6  -3    3.40    2.80
  -9  -6   3    2.70    3.60
  -9  -6   3   -1.60    3.40
  -9   6   3    2.00    2.80
  -9   6   3   -0.10    2.60
   9   6  -3    9.20    3.70
  -8  -6   3   -1.90    2.80
   8  -6  -3    1.30    1.60
  -8  -6   3    1.30    2.40
  -8   6   3   -0.80    2.00
   8   6  -3    0.40    2.80
  -8   6   3    1.70    2.40
  -7  -6   3   13.80    3.80
  -7  -6   3   17.10    3.30
   7  -6  -3   18.10    2.00
  -7   6   3   17.90    3.10
  -7   6   3   21.00    4.10
   7   6  -3   14.00    3.10
  -6  -6   3  207.28   12.60
  -6  -6   3  195.78   11.50
   6   6  -3  222.48   11.70
  -6   6   3  225.78   12.00
  -6   6   3  193.98   10.30
  -5  -6   3  205.58   11.80
  -5  -6   3  195.28   10.90
   5   6  -3  220.68   11.20
   5   6  -3  197.68   11.30
  -5   6   3  197.38   11.10
  -5   6   3  205.28    9.60
  -5   6   3  179.78   11.90
  -4  -6   3  348.97   18.40
  -4  -6   3  364.96   17.80
   4   6  -3  354.06   18.10
   4   6  -3  373.26   17.80
  -4   6   3  376.86   16.30
   3  -6  -3  600.34   28.20
  -3  -6   3  610.34   27.50
   3   6  -3  630.74   27.60
  -3   6   3  607.14   25.90
   3   6  -3  570.04   27.80
  -3   6   3  557.94   28.00
  -2  -6   3  507.85   23.80
   2  -6  -3  512.85   24.40
  -2  -6   3  521.95   23.70
  -2  -6   3  511.95   24.60
  -2   6   3  516.55   22.30
  -2   6   3  512.25   24.20
   2   6  -3  507.55   24.20
  -1  -6   3   24.30    3.80
   1  -6  -3   19.40    2.90
  -1  -6   3   21.00    2.90
  -1  -6   3   24.90    3.00
  -1   6   3   18.60    1.70
  -1   6   3   17.90    2.90
   1   6  -3   19.40    3.00
   0  -6  -3   97.59    5.10
   0  -6  -3  104.29    6.40
   0  -6   3  101.69    5.90
   0  -6   3  104.09    6.80
   0   6   3   93.09    6.00
   0   6  -3   99.09    6.00
   0   6  -3   99.79    6.50
   0   6   3  102.99    5.40
   1  -6   3  216.88   11.80
  -1  -6  -3  239.48   11.40
   1  -6   3  244.48   13.00
  -1  -6  -3  237.48   12.20
   1   6   3  248.68   11.70
  -1   6  -3  253.67   12.10
  -1   6  -3  231.88   12.70
   1   6   3  235.88   11.90
  -2  -6  -3  871.91   38.50
   2  -6   3  885.01   39.90
  -2  -6  -3  845.42   38.80
   2  -6   3  861.31   38.60
  -2   6  -3  850.41   38.70
   2   6   3  873.11   38.50
  -2   6  -3  867.81   39.70
   2   6   3  839.02   38.50
  -3  -6  -3  112.99    7.00
   3  -6   3  113.89    7.80
  -3  -6  -3  103.39    6.80
   3  -6   3  112.89    6.80
   3   6   3  117.69    7.00
  -3   6  -3  116.29    8.40
  -3   6  -3  116.89    7.00
   3   6   3  113.19    6.70
  -4  -6  -3   39.20    4.00
  -4  -6  -3   37.50    4.60
   4  -6   3   41.60    4.90
  -4   6  -3   42.60    4.00
  -4   6  -3   37.80    4.60
   4   6   3   43.10    4.30
   4   6   3   38.70    3.80
  -5  -6  -3   11.30    3.10
  -5  -6  -3   17.30    3.40
   5   6   3   12.90    2.90
   5   6   3   12.70    3.20
  -5   6  -3   18.00    3.40
  -6  -6  -3  225.08   12.90
  -6   6  -3  198.98   12.20
   6   6   3  223.98   12.70
  -6   6  -3  236.58   12.80
  -7  -6  -3   22.70    4.60
   7   6   3   18.00    4.20
  -7   6  -3   19.30    4.20
  -7   6  -3   17.00    4.60
  -8  -6  -3   39.50    5.80
   8  -6   3   27.60    4.50
  -8   6  -3   47.80    6.50
   8   6   3   45.70    6.40
  -8   6  -3   57.79    7.10
  -9  -6  -3   17.10    4.90
   9  -6   3   31.20    5.40
  -9   6  -3   25.00    5.90
   9   6   3   24.60    5.40
  -9   6  -3   23.80    4.70
 -10  -6  -3   -2.20    4.70
  10  -6   3   -5.60    5.70
 -10   6  -3   -0.90    7.10
 -10   6  -3    5.80    4.00
  10   6   3   10.90    6.90
 -12  -7   3    3.20    5.10
 -12   7   3    6.20    3.90
 -12   7   3    1.60    4.80
  12   7  -3    0.50    6.20
 -11  -7   3   23.30    6.10
 -11   7   3   29.00    5.70
 -11   7   3   16.90    4.80
  11   7  -3   20.20    5.20
 -10  -7   3   11.30    5.00
 -10   7   3    4.90    3.30
  10   7  -3    4.80    4.00
 -10   7   3   12.50    3.60
  -9  -7   3    5.10    3.80
  -9  -7   3   -3.50    3.90
  -9   7   3    2.60    2.80
   9   7  -3    2.10    3.70
  -9   7   3   13.10    3.10
  -8  -7   3   76.19    7.80
  -8  -7   3   71.49    7.80
  -8   7   3   82.19    7.40
  -8   7   3   88.79    6.00
   8   7  -3   81.69    7.20
  -7  -7   3   10.40    3.80
  -7  -7   3    9.70    3.10
  -7   7   3   11.50    2.60
  -7   7   3   13.00    2.70
   7   7  -3   10.50    3.10
  -6  -7   3  160.28   10.30
  -6  -7   3  141.29    9.30
   6   7  -3  148.99    9.40
  -6   7   3  147.39    9.60
  -6   7   3  159.98    8.10
  -5  -7   3   35.20    5.20
  -5  -7   3   33.40    4.10
   5   7  -3   36.70    4.10
  -5   7   3   36.00    2.90
  -4  -7   3  298.47   15.20
  -4  -7   3  321.27   16.30
  -4   7   3  304.57   13.60
   4   7  -3  285.57   15.20
  -4   7   3  286.67   15.90
   4   7  -3  299.77   15.60
  -3  -7   3   44.20    4.80
  -3  -7   3   40.40    3.70
   3  -7  -3   47.20    4.60
   3   7  -3   42.60    4.00
   3   7  -3   40.80    4.20
  -3   7   3   47.10    2.60
  -3   7   3   38.40    4.50
  -2  -7   3   61.89    5.50
  -2  -7   3   70.39    4.60
  -2  -7   3   67.39    4.80
   2  -7  -3   64.29    5.30
  -2   7   3   61.49    5.00
  -2   7   3   58.89    3.50
   2   7  -3   73.19    5.80
  -1  -7   3   22.20    4.00
   1  -7  -3   19.60    3.30
  -1  -7   3   17.00    2.50
  -1  -7   3   20.50    3.00
  -1   7   3   17.50    2.10
  -1   7   3   18.70    3.10
   1   7  -3   23.80    3.60
   0  -7   3   -0.30    1.20
   0  -7  -3   -0.30    0.80
   0  -7   3    1.00    1.20
   0  -7  -3    0.40    1.50
   0  -7   3    0.50    1.70
   0   7   3   -1.00    1.30
   0   7   3    1.80    1.10
   0   7  -3    0.50    1.40
   0   7  -3   -0.40    1.50
  -1  -7  -3    7.10    1.90
  -1  -7  -3    6.80    1.70
   1  -7   3    6.00    1.60
   1  -7   3    7.50    2.60
   1   7   3    7.70    1.90
  -1   7  -3    7.00    1.90
  -1   7  -3    4.70    2.10
   1   7   3    7.20    1.80
  -2  -7  -3    1.30    1.50
   2  -7   3    2.20    1.70
   2  -7   3    2.20    1.50
  -2  -7  -3    1.30    1.60
  -2   7  -3    3.50    1.90
   2   7   3    1.30    1.60
   2   7   3    1.50    1.70
  -2   7  -3    1.30    1.70
  -3  -7  -3    3.10    1.70
  -3  -7  -3    1.10    1.90
   3  -7   3    3.10    2.30
  -3   7  -3    2.60    2.20
   3   7   3    2.70    1.80
  -3   7  -3    1.40    1.60
   3   7   3    2.30    1.70
  -4  -7  -3    7.20    2.60
   4  -7   3    7.30    2.90
  -4  -7  -3    4.90    3.60
   4   7   3    5.10    2.40
  -4   7  -3    4.80    2.40
  -5  -7  -3    2.20    2.10
   5  -7   3    1.70    1.60
  -5   7  -3    2.90    2.20
   5   7   3    1.40    2.20
   5   7   3   -2.00    1.80
   6  -7   3    0.90    2.40
  -6  -7  -3    4.30    3.30
   6   7   3    1.50    2.70
  -6   7  -3    1.30    2.90
  -6   7  -3    0.50    2.50
   7  -7   3   13.20    3.70
  -7  -7  -3   27.50    4.90
   7   7   3   11.30    4.10
  -7   7  -3   17.50    4.10
  -7   7  -3   13.20    4.20
  -8  -7  -3   85.39    8.10
   8  -7   3   79.09    7.30
  -8   7  -3   86.19    7.90
   8   7   3   62.99    8.30
  -8   7  -3   91.49    7.70
  -9  -7  -3   34.20    6.10
   9  -7   3   25.10    5.80
  -9   7  -3   34.10    6.20
   9   7   3   26.90    6.20
  -9   7  -3   34.90    6.30
 -10  -7  -3    9.90    4.70
  10   7   3    4.70    5.50
 -10   7  -3    9.30    5.00
 -11  -8   3    0.10    4.70
  11   8  -3   -3.30    4.80
 -11   8   3    4.40    3.60
 -11   8   3    2.90    3.90
 -10  -8   3    6.80    4.30
 -10   8   3    1.30    3.40
 -10   8   3    1.70    2.90
  10   8  -3    0.90    4.30
  -9  -8   3   25.50    5.70
   9   8  -3   29.50    5.30
  -9   8   3   33.40    4.40
  -9   8   3   22.90    4.30
  -8  -8   3   -2.00    3.00
  -8  -8   3    3.00    3.10
   8   8  -3    4.80    3.40
  -8   8   3    2.30    2.80
  -8   8   3    3.20    2.30
  -7  -8   3   49.70    5.60
  -7  -8   3   58.69    7.00
  -7   8   3   58.39    4.80
   7   8  -3   65.69    6.00
  -7   8   3   55.89    6.10
  -6  -8   3   21.80    4.10
  -6  -8   3   14.70    3.90
  -6   8   3   22.10    3.80
  -6   8   3   19.90    2.80
   6   8  -3   23.60    4.00
  -5  -8   3  118.89    8.20
  -5   8   3  118.19    6.30
   5   8  -3  124.89    8.10
  -4  -8   3  113.29    7.00
   4  -8  -3   97.69    7.70
  -4  -8   3  102.69    7.90
  -4   8   3  105.69    5.50
   4   8  -3  109.59    7.10
  -4   8   3  106.89    7.80
  -3  -8   3  523.15   25.20
   3  -8  -3  551.94   26.40
  -3  -8   3  536.55   26.50
   3   8  -3  557.54   25.40
   3   8  -3  506.65   25.70
  -3   8   3  552.64   23.70
  -3   8   3  521.65   26.10
  -2  -8   3    8.80    2.40
  -2  -8   3   12.20    3.60
  -2  -8   3   12.30    2.40
   2  -8  -3    9.80    2.60
   2   8  -3    8.50    2.50
  -2   8   3    7.90    2.30
  -2   8   3   11.70    1.70
  -1  -8   3  453.45   21.70
   1  -8  -3  494.55   22.80
  -1  -8   3  468.05   23.10
  -1  -8   3  470.55   21.90
  -1   8   3  440.46   22.30
  -1   8   3  446.36   20.80
   1   8  -3  460.65   22.70
   0  -8   3  367.86   19.10
   0  -8  -3  377.26   18.60
   0  -8   3  376.96   17.80
   0  -8  -3  355.56   16.60
   0   8   3  358.56   18.20
   0   8  -3  365.26   18.80
   0   8  -3  368.76   17.90
   0   8   3  376.36   17.10
   1  -8   3  278.07   14.40
  -1  -8  -3  282.87   13.90
  -1  -8  -3  306.67   15.50
   1  -8   3  301.77   15.30
   1  -8   3  305.87   16.30
  -1   8  -3  285.37   15.70
   1   8   3  302.17   15.10
  -1   8  -3  299.37   14.90
   1   8   3  308.97   14.40
  -2  -8  -3   16.00    3.40
   2  -8   3   16.90    4.00
  -2  -8  -3   14.30    2.40
  -2   8  -3   21.20    3.30
  -2   8  -3   15.90    3.50
   2   8   3   21.30    3.10
   2   8   3   18.80    3.30
  -3  -8  -3  375.56   19.10
   3  -8   3  384.46   20.30
   3   8   3  387.06   18.70
  -3   8  -3  370.46   18.50
  -4  -8  -3    1.60    2.50
   4  -8   3    2.90    1.80
   4  -8   3    1.50    2.50
   4   8   3    6.70    2.60
   4   8   3    1.20    2.10
  -4   8  -3    6.30    2.30
  -5  -8  -3   46.80    5.60
   5  -8   3   44.10    4.50
  -5   8  -3   52.39    6.00
   5   8   3   48.60    5.70
   6  -8   3    3.50    2.60
   6   8   3    3.40    3.30
  -6   8  -3   10.80    3.50
   7  -8   3  107.49    7.90
  -7  -8  -3  112.69    9.10
  -7   8  -3  114.49    8.90
  -7   8  -3  121.99    8.70
   7   8   3  101.79    8.80
   8  -8   3    7.90    5.60
  -8  -8  -3    2.90    3.70
  -8   8  -3    4.90    4.20
   8   8   3    8.80    4.30
  -8   8  -3    6.40    3.60
   9  -8   3   28.10    5.90
  -9  -8  -3   26.30    5.40
  -9   8  -3   25.40    5.70
   9   8   3   22.90    5.70
  -9   8  -3   26.10    6.20
 -10  -8  -3    2.80    5.20
 -10   8  -3    0.30    4.00
  10   8   3    5.10    6.00
 -11  -9   3    4.40    5.30
 -11   9   3   -2.50    3.80
  11   9  -3   -7.20    5.50
 -11   9   3   -0.70    3.00
 -10  -9   3   63.09   11.70
 -10   9   3   33.40    6.90
  10   9  -3   36.90    6.60
 -10   9   3   48.30    6.00
  -9  -9   3   14.90    5.60
  -9   9   3   10.50    3.00
  -9   9   3   10.60    4.40
   9   9  -3   12.80    4.20
  -8  -9   3  282.07   17.50
  -8   9   3  288.07   16.50
   8   9  -3  280.37   16.30
  -8   9   3  277.17   14.40
  -7  -9   3   68.89    7.60
  -7   9   3   68.19    5.00
   7   9  -3   63.29    6.60
  -7   9   3   56.99    6.20
  -6  -9   3   25.40    4.10
  -6  -9   3   36.30    6.70
  -6   9   3   29.70    3.10
   6   9  -3   32.30    4.60
  -5  -9   3   23.40    4.70
  -5  -9   3   28.20    4.00
  -5   9   3   32.40    2.80
   5   9  -3   28.10    4.40
   4  -9  -3   11.90    3.80
  -4  -9   3   10.00    2.60
  -4   9   3   11.70    1.90
   4   9  -3   10.20    2.70
   3  -9  -3   10.80    3.10
  -3  -9   3   10.90    3.60
  -3  -9   3   13.30    2.70
  -3  -9   3   10.90    2.80
  -3   9   3   10.10    1.50
  -3   9   3    8.30    2.90
   3   9  -3   11.90    2.60
  -2  -9   3   28.90    3.70
   2  -9  -3   32.70    5.30
  -2  -9   3   32.60    3.60
  -2  -9   3   41.20    6.40
  -2   9   3   30.90    4.50
  -2   9   3   25.20    2.50
  -1  -9   3   22.50    3.20
  -1  -9   3   22.10    3.20
   1  -9  -3   15.30    1.40
   1  -9  -3   24.20    4.10
   1  -9  -3   16.30    1.40
  -1  -9   3   22.90    4.60
  -1   9   3   16.00    3.40
  -1   9   3   20.50    2.40
   1   9  -3   24.70    4.10
   0  -9  -3   45.00    4.70
   0  -9   3   45.30    5.40
   0  -9   3   38.30    3.60
   0  -9   3   45.10    3.80
   0  -9  -3   45.40    3.00
   0  -9  -3   38.80    2.90
   0   9   3   39.40    3.40
   0   9  -3   40.80    4.60
   0   9  -3   40.60    3.90
   1  -9   3    0.60    2.30
  -1  -9  -3    0.30    2.00
   1  -9   3    2.30    1.40
  -1   9  -3    2.10    1.70
   1   9   3    2.50    1.70
  -2  -9  -3    0.90    2.20
   2  -9   3    4.10    2.70
   2  -9   3    0.30    1.10
   2   9   3   -0.10    1.70
   2   9   3    2.30    1.90
  -2   9  -3    3.00    1.90
  -3  -9  -3   25.20    4.10
   3  -9   3   21.00    5.70
   3  -9   3   19.20    3.20
  -3   9  -3   22.10    3.70
   3   9   3   18.90    3.50
   3   9   3   20.10    3.50
  -4  -9  -3    4.60    2.80
   4  -9   3    3.10    2.60
   4  -9   3    6.70    2.30
   4   9   3    9.20    2.80
  -4   9  -3    4.60    2.60
   4   9   3    8.00    3.20
  -5  -9  -3    2.50    3.20
   5  -9   3    3.30    3.60
   5  -9   3    6.30    2.40
   5   9   3    5.50    3.10
  -5   9  -3    7.40    2.40
   6  -9   3   -0.50    2.40
  -6  -9  -3    3.90    3.20
   6   9   3   -1.20    3.00
  -6   9  -3    1.40    2.70
   7  -9   3   -0.40    4.30
  -7  -9  -3    2.10    3.70
  -7   9  -3    6.70    3.60
   7   9   3   -0.90    3.90
  -7   9  -3    6.30    3.10
   8  -9   3   20.70    4.70
  -8  -9  -3   34.50    6.20
  -8   9  -3   28.60    5.80
  -8   9  -3   18.70    4.80
   8   9   3   28.90    6.00
   9  -9   3   11.20    5.80
  -9  -9  -3   14.60    5.50
  -9   9  -3   12.20    5.30
  -9   9  -3    5.00    7.30
   9   9   3    5.00    5.20
 -10  -9  -3   60.59    9.40
  10   9   3   38.20    7.70
 -10   9  -3   47.80    7.00
 -11 -10   3   11.40    5.30
 -11  10   3    6.60    4.20
 -11  10   3   10.60    4.90
  11  10  -3    6.20    6.50
 -10 -10   3   20.00    6.20
 -10  10   3    7.20    4.20
 -10  10   3    8.20    3.80
  10  10  -3   10.90    5.20
  -9 -10   3    7.00    4.80
  -9  10   3   14.30    4.10
   9  10  -3   25.10    5.60
  -9  10   3   20.00    3.70
  -8 -10   3   40.20    8.30
  -8  10   3   41.30    4.50
   8  10  -3   28.10    6.00
  -8  10   3   50.19    5.90
  -7 -10   3    3.80    3.20
  -7  10   3    3.60    2.10
   7  10  -3    1.40    3.30
  -7  10   3    6.70    3.20
  -6 -10   3   15.40    4.40
   6  10  -3   11.10    3.70
  -6  10   3   13.10    2.60
  -5 -10   3  181.38   12.30
   5  10  -3  192.48   11.20
  -5  10   3  173.28    9.10
   4 -10  -3   75.19    7.00
  -4 -10   3   77.89    7.30
  -4  10   3   73.89    4.60
   4  10  -3   76.09    6.30
  -3 -10   3   67.49    8.60
   3 -10  -3   54.49    5.70
  -3 -10   3   55.99    6.90
  -3 -10   3   41.80    4.60
   3  10  -3   43.20    4.40
  -2 -10   3  285.37   16.80
   2 -10  -3  303.97   16.30
  -2 -10   3  285.87   15.40
  -2 -10   3  282.87   14.90
  -2  10   3  295.67   13.60
  -2  10   3  261.67   17.10
   1 -10  -3  168.38   10.60
  -1 -10   3  173.58    9.50
   1 -10  -3  161.28    7.80
   1 -10  -3  157.78    7.60
  -1 -10   3  170.38   11.10
  -1  10   3  162.18   10.20
  -1  10   3  163.28    8.60
   0 -10  -3  135.09    9.30
   0 -10   3  142.19    9.90
   0 -10  -3  133.69    7.00
   0  10   3  136.79    9.00
   0  10   3  139.79    7.70
  -1 -10  -3  176.88   11.00
   1 -10   3  180.88   12.40
  -1  10  -3  172.08   10.20
   1  10   3  184.18   10.90
   1  10   3  183.98   10.70
   2 -10   3   67.99    6.80
   2 -10   3   72.39    5.00
  -2 -10  -3   75.19    6.10
   2  10   3   65.79    6.30
   2  10   3   60.29    5.60
  -2  10  -3   65.79    5.40
   3 -10   3  197.08   10.80
   3 -10   3  199.38   13.10
  -3 -10  -3  203.38   12.40
   3  10   3  194.28   11.20
  -3  10  -3  205.98   11.30
   4 -10   3    7.70    3.60
   4 -10   3    5.90    2.50
  -4 -10  -3    5.90    3.60
  -4  10  -3    4.30    2.40
   4  10   3   10.40    3.00
   5 -10   3  180.48   12.30
   5 -10   3  162.38   12.50
  -5 -10  -3  165.08   11.60
  -5  10  -3  166.68   10.30
   5  10   3  171.68   10.90
   6 -10   3  121.49    8.50
  -6 -10  -3  151.88   10.70
   6  10   3  143.89   10.00
  -6  10  -3  136.29    9.40
  -7 -10  -3   81.69    8.30
   7 -10   3   61.19    6.60
  -7  10  -3   66.89    7.60
   7  10   3   69.49    7.70
  -7  10  -3   71.79    7.10
   8 -10   3   14.70    4.70
  -8 -10  -3   10.40    5.30
  -8  10  -3    7.10    3.90
  -8  10  -3   10.70    4.50
   8  10   3   11.20    4.80
  -9 -10  -3   11.30    5.40
  -9  10  -3    3.90    5.80
   9  10   3    1.50    5.00
  -9  10  -3    7.80    4.50
 -10 -11   3   10.70    5.50
  10  11  -3    2.40    5.90
 -10  11   3    6.40    3.90
 -10  11   3    7.30    4.40
  -9 -11   3   22.00    7.20
  -9  11   3   22.60    4.50
   9  11  -3   21.40    6.00
  -8 -11   3    3.90    3.30
  -8  11   3    2.30    2.70
  -8  11   3    2.30    2.90
   8  11  -3   -1.10    3.90
  -7 -11   3  103.39   10.20
  -7  11   3  125.09    7.50
   7  11  -3  127.69    9.60
  -7  11   3  127.99    9.90
  -6 -11   3  115.89   10.10
   6  11  -3  112.69    8.80
  -6  11   3  125.39    7.10
   5 -11  -3    2.20    2.60
  -5 -11   3    5.80    3.50
  -5  11   3    7.70    1.80
   5  11  -3    0.40    2.60
  -4 -11   3  120.29    9.80
   4 -11  -3  129.19    9.90
  -4 -11   3  128.39    9.20
  -4  11   3  128.99    6.90
   4  11  -3  136.39    8.80
  -3 -11   3   24.00    5.10
  -3 -11   3   20.00    4.00
   3 -11  -3   19.00    4.60
   3  11  -3   18.70    4.00
  -2 -11   3   17.10    3.20
  -2 -11   3   19.60    5.30
   2 -11  -3   17.00    4.10
  -2  11   3   21.30    2.90
  -1 -11   3   95.19    6.60
   1 -11  -3  110.79    8.20
  -1 -11   3  101.79    8.50
  -1  11   3   89.89    6.00
   0 -11  -3    2.80    2.70
   0 -11   3    4.60    2.60
   0 -11  -3    1.20    1.10
   0  11   3    1.90    1.80
  -1 -11  -3    2.10    2.70
   1 -11   3    2.90    2.70
   1 -11   3    4.80    2.00
   1  11   3    6.20    2.20
  -1  11  -3    6.00    2.30
   2 -11   3    3.50    1.70
   2 -11   3    4.20    2.50
  -2 -11  -3    1.90    2.70
  -2  11  -3    0.30    1.50
   2  11   3    2.90    2.30
   3 -11   3    1.20    1.90
  -3 -11  -3    2.60    3.30
   3 -11   3   -0.50    2.70
  -3  11  -3   -0.80    1.70
   3  11   3   -1.70    2.80
   4 -11   3    4.60    3.60
  -4 -11  -3    7.50    3.50
   4  11   3    2.50    3.10
  -4  11  -3    6.50    2.80
   5 -11   3    1.80    2.90
  -5 -11  -3    1.20    3.20
   5 -11   3    4.00    2.50
   5  11   3    3.80    3.30
  -5  11  -3    4.20    2.80
  -6 -11  -3   83.29    8.30
   6 -11   3   67.69    6.20
  -6  11  -3   68.09    6.80
   6  11   3   76.89    7.60
   7 -11   3   11.00    4.10
  -7 -11  -3   15.90    4.90
  -7  11  -3   12.20    3.90
   7  11   3   15.50    4.90
  -8 -11  -3   25.40    5.70
   8 -11   3   23.30    5.90
  -8  11  -3   32.00    5.90
   8  11   3   24.30    6.50
  -9 -11  -3   -4.50    5.90
   9  11   3    7.40    5.10
  -9  11  -3   11.90    4.60
 -10 -12   3    4.40    5.80
  10  12  -3   -1.30    5.40
 -10  12   3   -2.40    3.60
 -10  12   3    9.20    4.10
  -9 -12   3    8.80    5.40
  -9  12   3    4.00    3.20
  -9  12   3    6.60    5.40
   9  12  -3    9.20    4.90
  -8 -12   3    9.00    4.10
  -8  12   3    3.50    2.60
   8  12  -3   11.90    4.50
  -8  12   3    8.40    4.00
  -7 -12   3    0.30    3.30
   7  12  -3   -2.80    3.10
  -7  12   3    1.60    2.10
  -6 -12   3    9.40    4.80
  -6  12   3    8.60    2.10
   6  12  -3   13.80    3.90
   5 -12  -3    0.00    2.40
  -5 -12   3   -0.60    2.90
  -5  12   3   -0.30    1.50
   5  12  -3    0.70    3.60
  -4 -12   3   14.80    4.30
  -4 -12   3    6.10    3.30
   4 -12  -3   10.70    3.80
   3 -12  -3   10.10    4.20
  -3 -12   3    8.80    3.80
  -3 -12   3    5.30    2.20
   2 -12  -3   61.99    6.60
  -2 -12   3   65.19    5.70
  -2 -12   3   62.29    7.10
  -2  12   3   58.49    4.60
   1 -12  -3    3.30    0.90
   1 -12  -3   -2.40    2.00
  -1 -12   3    3.40    3.70
  -1  12   3    5.60    2.10
   0 -12   3  317.47   18.10
   0 -12  -3  302.87   18.30
   0 -12  -3  284.77   14.10
   0  12   3  308.17   15.20
   1 -12   3    5.80    2.20
  -1 -12  -3    9.10    4.10
  -1 -12  -3    6.40    2.00
   1 -12   3    3.00    2.80
   1  12   3    9.70    2.60
  -1  12  -3    8.90    2.50
   2 -12   3   62.79    7.30
   2 -12   3   65.69    5.10
  -2 -12  -3   68.29    7.00
  -2  12  -3   64.59    5.80
   2  12   3   69.69    5.70
   3 -12   3    1.40    2.70
  -3 -12  -3    2.80    2.80
   3 -12   3    2.20    2.60
  -3  12  -3    1.40    2.20
   3  12   3    4.50    2.40
   4 -12   3   31.50    6.00
   4 -12   3   30.40    4.00
  -4 -12  -3   28.30    5.10
  -4  12  -3   37.70    5.10
   4  12   3   25.60    4.70
   5 -12   3   11.90    3.40
  -5 -12  -3   11.60    4.30
   5 -12   3   20.40    5.20
  -5  12  -3   12.60    3.70
   5  12   3   18.50    4.40
   6 -12   3   87.69    7.30
  -6 -12  -3  100.59    9.30
  -6  12  -3   89.39    7.60
   6  12   3   83.19    8.30
  -7 -12  -3   21.90    5.60
   7 -12   3   18.20    4.70
  -7  12  -3   24.00    5.20
   7  12   3   18.90    4.80
  -8 -12  -3   10.80    5.30
  -8  12  -3    6.60    4.30
   8  12   3    5.20    4.80
  -8  12  -3   -0.80    4.00
  -9 -13   3   30.70    6.60
  -9  13   3   14.10    3.90
   9  13  -3   20.70    5.90
  -9  13   3   27.90    5.80
  -8 -13   3    6.60    4.40
   8  13  -3    0.40    4.10
  -8  13   3    1.20    3.10
  -8  13   3    6.00    2.70
  -7 -13   3   97.89   10.10
  -7  13   3   93.79    6.50
   7  13  -3   86.49    8.60
  -6 -13   3    5.00    3.90
   6  13  -3   10.40    4.00
  -6  13   3    8.10    2.50
  -5 -13   3   62.79    9.30
  -5 -13   3   42.00    6.10
   5 -13  -3   43.40    6.70
   5  13  -3   38.10    5.70
  -5  13   3   43.50    3.80
   4 -13  -3    2.60    3.20
  -4 -13   3    5.50    2.90
  -4 -13   3    3.70    3.50
   4  13  -3    2.90    2.80
   3 -13  -3  110.49    9.20
  -3 -13   3  107.49    9.70
  -3 -13   3   86.49    7.20
  -2 -13   3    4.70    3.00
  -2 -13   3    0.80    2.00
   2 -13  -3   -1.20    2.80
   1 -13  -3    6.30    3.00
  -1 -13   3   13.10    4.40
  -1  13   3    7.50    2.60
   0 -13  -3    2.20    2.70
   0 -13   3    1.60    3.20
   0 -13   3    4.00    2.20
   0  13   3    0.00    2.10
  -1 -13  -3    6.40    2.00
  -1 -13  -3    2.60    3.10
   1 -13   3    5.10    2.30
   1 -13   3    5.30    3.50
   1  13   3    9.80    3.00
   2 -13   3   -0.60    2.40
  -2 -13  -3    0.60    2.90
  -2  13  -3    1.30    2.00
   2  13   3   -2.60    2.50
  -3 -13  -3   -1.10    3.20
   3 -13   3    2.50    2.00
   3 -13   3    3.30    2.80
  -3  13  -3    1.90    2.30
   3  13   3    4.80    2.90
   4 -13   3   10.50    4.10
   4 -13   3    8.20    3.20
  -4 -13  -3    8.50    4.00
  -4  13  -3    5.20    2.70
   4  13   3    6.80    3.50
   5 -13   3   69.19    8.30
   5 -13   3   52.69    6.10
  -5 -13  -3   56.59    7.80
   5  13   3   56.59    7.40
  -5  13  -3   65.19    6.10
   6 -13   3   13.10    4.10
  -6 -13  -3   13.50    4.40
   6  13   3    8.60    4.20
  -6  13  -3    6.50    3.30
  -7 -13  -3   44.60    8.00
  -7  13  -3   29.10    5.10
   7  13   3   31.40    6.40
  -8 -13  -3   13.80    6.30
   8  13   3    3.20    4.90
  -8  13  -3    4.40    3.80
   9  14  -3   10.60    5.60
  -9  14   3   18.80    4.50
  -9  14   3   24.70    5.90
  -8 -14   3   -2.90    4.60
  -8  14   3    1.50    3.70
   8  14  -3    6.10    4.40
  -8  14   3    5.50    3.20
   7  14  -3   -6.80    3.80
  -7  14   3   -1.30    2.10
  -6 -14   3   28.30    7.00
  -6  14   3   20.50    3.30
   6  14  -3   23.80    5.20
   5 -14  -3   10.10    4.60
  -5 -14   3   17.50    5.90
  -5 -14   3   10.20    4.20
   5  14  -3   17.90    4.70
  -4 -14   3   18.10    3.60
  -4 -14   3   26.40    6.10
   4 -14  -3   34.90    6.30
   4  14  -3   23.60    4.90
  -3 -14   3    1.10    3.50
   3 -14  -3    3.40    3.60
  -3 -14   3   -1.30    2.30
   2 -14  -3  280.47   17.70
  -2 -14   3  294.57   18.00
  -1 -14   3   32.30    4.40
  -1 -14   3   48.70    7.80
   1 -14  -3   37.10    6.60
  -1  14   3   38.80    4.50
   0 -14  -3    6.00    1.60
   0 -14   3    9.90    3.50
   0 -14  -3    3.90    3.30
   0 -14   3    8.30    2.60
   0  14   3    6.80    2.30
   1 -14   3  261.77   16.80
  -1 -14  -3  233.28   12.90
  -1 -14  -3  289.57   16.70
   1  14   3  269.57   14.30
  -2 -14  -3    7.10    2.60
  -2 -14  -3   10.70    4.70
   2 -14   3    4.80    3.10
   2 -14   3   11.00    2.80
  -2  14  -3   19.10    3.60
   2  14   3    6.40    3.00
  -3 -14  -3  182.68   12.70
   3 -14   3  157.78    9.90
   3 -14   3  172.48   13.30
   3  14   3  168.98   10.80
  -3  14  -3  173.88   10.70
   4 -14   3   87.19    7.20
  -4 -14  -3   95.49    9.40
  -4  14  -3  105.59    7.80
   4  14   3  101.49    8.20
   5 -14   3    5.40    3.70
   5 -14   3    1.40    3.30
  -5 -14  -3    6.80    3.60
   5  14   3    2.30    3.80
  -5  14  -3    4.70    2.70
  -6 -14  -3    8.00    5.60
   6 -14   3   14.20    5.30
   6  14   3    4.90    4.30
  -6  14  -3    9.30    3.80
  -7 -14  -3    4.20    4.50
  -7  14  -3    6.60    3.90
   7  14   3   -0.50    4.30
  -8 -15   3   41.90    7.40
  -8  15   3   74.19    8.50
   8  15  -3   38.80    6.90
  -8  15   3   50.39    5.50
  -7 -15   3   45.60    8.30
   7  15  -3   39.30    6.30
  -6 -15   3   44.50    7.10
  -6 -15   3   56.59   12.70
   6  15  -3   48.60    6.80
   5 -15  -3   34.90    6.90
  -5 -15   3   20.10    4.70
  -5 -15   3   37.80    7.60
   5  15  -3   24.50    5.40
  -4 -15   3   23.50    5.00
   4 -15  -3   18.60    5.20
  -4 -15   3   26.70    6.30
   3 -15  -3   28.80    6.20
  -3 -15   3   20.10    3.90
  -3 -15   3   24.30    5.80
  -2 -15   3   -3.10    2.10
  -2 -15   3   -2.80    2.40
   2 -15  -3   -1.10    2.20
  -1 -15   3    2.40    2.00
   1 -15  -3    0.50    1.90
  -1 -15   3   -2.60    2.70
  -1  15   3    0.60    2.00
   0 -15  -3   -4.10    2.70
   0 -15   3   -0.40    2.40
   0 -15   3    2.00    3.20
   0  15   3    1.80    2.20
   1 -15   3    1.10    3.00
  -1 -15  -3   -0.30    1.80
   1 -15   3   -1.10    2.00
  -1 -15  -3    1.20    3.40
   1  15   3    3.10    2.30
   2 -15   3    1.50    2.40
  -2 -15  -3    3.10    2.30
  -2 -15  -3    5.80    4.00
   2 -15   3   -0.10    2.80
   2  15   3   -1.30    2.50
  -3 -15  -3   -1.60    2.80
  -3 -15  -3   -0.90    3.00
   3 -15   3    4.80    3.30
   3 -15   3    1.70    2.60
  -3  15  -3   -1.80    1.90
   3  15   3    1.30    3.10
  -4 -15  -3   -3.20    3.30
   4 -15   3    0.70    3.20
   4 -15   3    1.40    3.20
   4  15   3   -5.90    2.90
  -4  15  -3   -0.10    2.30
   5 -15   3   -1.60    4.20
  -5 -15  -3   -2.50    4.70
   5 -15   3   -1.80    3.30
   5  15   3    2.90    3.80
  -5  15  -3   -4.50    2.40
  -6 -15  -3    5.70    4.60
   6 -15   3   -1.00    4.00
  -6  15  -3    8.60    3.80
  -7 -16   3    3.40    4.90
  -7 -16   3   10.80    5.90
  -7  16   3    5.60    2.90
   7  16  -3    9.40    4.80
  -6 -16   3    1.90    4.00
  -6 -16   3    9.20    5.30
   6  16  -3    3.60    4.30
  -5 -16   3   18.30    5.00
  -5 -16   3   16.10    5.60
   5  16  -3   20.50    5.00
  -4 -16   3    5.80    6.20
  -4 -16   3    2.80    3.30
   4 -16  -3   -0.30    3.30
  -3 -16   3   47.40    8.30
   3 -16  -3   59.59    8.60
  -2 -16   3   28.20    5.70
   2 -16  -3   41.90    8.00
  -2 -16   3   23.30    4.20
  -1 -16   3   49.99    5.50
  -1 -16   3   66.79    9.10
   1 -16  -3   60.99    8.70
   0 -16   3    6.70    3.00
   0 -16   3   13.80    4.70
   0 -16  -3    5.20    3.90
   0  16   3   13.20    3.40
  -1 -16  -3   50.39    7.90
   1 -16   3   40.80    7.20
   1 -16   3   53.19    5.90
   1  16   3   43.60    5.90
  -2 -16  -3    3.60    3.30
  -2 -16  -3   11.00    4.90
   2 -16   3    8.50    4.50
   2 -16   3   17.00    3.70
   2  16   3    9.90    3.40
   3 -16   3   51.89    5.50
   3 -16   3   49.50   10.40
  -3 -16  -3   58.49    8.50
  -3 -16  -3   31.60    4.90
   3  16   3   44.60    6.50
   4 -16   3    5.70    4.20
   4 -16   3    1.60    4.20
  -4 -16  -3   -0.60    4.80
  -4  16  -3    0.00    2.50
   5 -16   3   23.00    5.90
  -5 -16  -3   25.40    6.50
   5  16   3   23.80    4.70
  -5  16  -3   31.30    5.50
  -6 -17   3   45.10    8.40
  -6 -17   3   29.60    7.30
   6  17  -3   48.80    6.90
   5 -17  -3    3.30    3.50
  -5 -17   3   -3.70    4.20
  -5 -17   3   14.30    5.10
  -4 -17   3   81.59   11.40
   4 -17  -3   85.59    9.70
   3 -17  -3    7.60    4.10
  -3 -17   3    4.20    4.10
  -3 -17   3   -0.10    3.60
  -2 -17   3    3.60    3.40
  -2 -17   3   -0.60    2.80
   2 -17  -3   -0.10    2.70
  -1 -17   3   -0.60    2.70
  -1 -17   3   -1.80    3.60
   1 -17  -3   -2.40    3.30
   0 -17   3   -0.50    3.00
   0 -17  -3   -1.70    3.00
   0 -17   3    0.30    2.90
   0  17   3    2.80    3.00
   1 -17   3    3.50    3.10
  -1 -17  -3    8.50    4.70
   1 -17   3    2.20    3.20
   1  17   3   -1.30    2.30
   2 -17   3    5.60    5.00
   2 -17   3   16.70    4.60
  -2 -17  -3    6.70    4.00
   2  17   3    2.00    2.70
   3 -17   3   -0.50    3.30
  -3 -17  -3   -1.10    4.00
   3  17   3    1.20    2.90
   4 -17   3    4.90    4.30
  -4  17  -3    2.50    3.20
   4  17   3    6.40    3.60
   4 -18  -3   16.70    5.50
  -4 -18   3    7.40    5.50
   3 -18  -3   40.60    8.00
  -3 -18   3   19.10    5.70
  -2 -18   3   15.60    5.90
   2 -18  -3   19.30    5.40
  -2 -18   3    8.00    5.00
  -1 -18   3   33.60    9.00
   1 -18  -3   37.00    8.20
  -1 -18   3   35.90    7.40
   1 -18   3   14.60    5.20
   1  18   3    6.30    3.30
  -2 -18  -3    9.30    4.40
   2 -18   3   10.80    5.10
   2  18   3    9.40    4.00
   3 -18   3   21.90    5.30
   3  18   3   13.10    4.50
   1 -19  -3    6.20    4.90
  -1 -19   3   32.80    7.50
   0 -19  -3    5.20    3.80
   0 -19   3    3.20    3.80
 -13   0   4   -4.20    4.60
 -12   0   4    5.40    4.30
  12   0  -4   -3.20    6.20
 -12   0   4   -4.10    4.30
 -11   0   4    4.00    3.40
 -11   0   4   -5.20    3.80
  11   0  -4   -6.10    4.10
 -10   0   4   45.40    5.50
 -10   0   4   51.29    5.90
  10   0  -4   31.50    7.40
  -9   0   4   -2.40    2.70
  -9   0   4    2.00    3.00
   9   0  -4   -1.40    2.50
   8   0  -4   61.79    4.90
  -8   0   4   54.49    5.10
  -8   0   4   49.99    5.70
  -7   0   4   -0.60    1.80
   7   0  -4    1.20    1.70
  -7   0   4    0.60    1.60
  -6   0   4   30.80    3.70
   6   0  -4   34.20    3.10
  -6   0   4   30.70    3.20
   6   0  -4   33.50    3.60
  -5   0   4    0.00    1.40
   5   0  -4    1.30    1.40
  -5   0   4    0.80    1.30
   5   0  -4   -0.10    1.20
  -4   0   4  273.27   12.40
  -4   0   4  256.37   12.90
   4   0  -4  251.37   12.70
  -3   0   4    0.30    1.00
   3   0  -4    1.50    1.10
  -3   0   4   -0.40    0.90
  -2   0   4  605.64   26.70
  -2   0   4  597.64   26.60
   1   0  -4    0.20    0.80
  -1   0   4    0.30    0.60
  -1   0   4   -0.80    0.90
   1   0  -4    0.70    0.60
   0   0  -4 1284.87   56.59
   0   0  -4 1391.16   57.49
   0   0   4 1254.97   56.59
   0   0   4 1348.17   57.49
  -1   0  -4    1.90    0.90
  -1   0  -4    1.60    0.60
  -1   0  -4    2.40    1.30
   1   0   4    1.30    1.30
   2   0   4  304.87   14.90
  -2   0  -4  294.37   14.90
  -2   0  -4  325.87   14.10
  -3   0  -4    0.50    1.00
  -3   0  -4   -0.80    1.20
  -3   0  -4    0.00    1.40
   3   0   4    0.80    1.50
  -4   0  -4 1734.93   74.29
  -4   0  -4 1686.53   74.89
   4   0   4 1676.03   74.79
  -5   0  -4    1.00    1.90
  -5   0  -4    0.30    1.80
   5   0   4    1.50    2.10
   6   0   4  208.38   11.50
  -6   0  -4  178.08   11.40
  -6   0  -4  197.58   11.00
  -7   0  -4    3.20    3.50
  -7   0  -4    1.70    2.40
   7   0   4   -0.30    2.70
  -8   0  -4   82.69    8.00
   8   0   4  108.89    8.30
  -8   0  -4   87.69    7.40
   9   0   4    0.90    3.80
  -9   0  -4   -2.70    2.80
  -9   0  -4   -4.90    5.20
 -10   0  -4    4.70    3.50
  10   0   4   -1.90    4.60
 -11   0  -4   -7.20    4.80
  11   0   4   -3.30    6.00
 -13  -1   4   33.70    6.90
 -13   1   4   38.40    8.00
 -12  -1   4   21.00    6.10
  12  -1  -4   20.70    6.50
 -12   1   4   17.90    5.90
 -12   1   4   29.70    5.30
  12   1  -4   21.10    9.40
 -11  -1   4  100.99    9.20
  11  -1  -4  102.59    8.30
 -11  -1   4  117.09   10.80
 -11   1   4  101.39    9.00
  11   1  -4   94.49    8.30
 -11   1   4   97.29    8.60
 -10  -1   4   22.60    4.70
 -10  -1   4   18.20    4.90
  10  -1  -4   21.20    3.80
 -10   1   4   28.10    5.10
  10   1  -4   17.10    3.90
 -10   1   4   17.30    3.60
   9  -1  -4  109.49    7.50
  -9  -1   4  110.29    8.20
  -9  -1   4  122.49    9.10
   9   1  -4  123.09    7.90
  -9   1   4  123.39    9.00
  -9   1   4  118.09    7.90
   8  -1  -4   -2.90    1.90
  -8  -1   4   -0.90    2.00
  -8  -1   4    0.80    2.00
  -8   1   4   -2.50    2.00
   8   1  -4    0.20    2.10
  -8   1   4    2.30    2.50
   7  -1  -4   99.69    6.10
  -7  -1   4   95.59    6.40
  -7  -1   4   95.19    7.10
  -7   1   4   94.49    7.10
   7   1  -4  101.09    6.30
  -7   1   4   96.19    6.20
   6  -1  -4    6.70    2.20
  -6  -1   4    9.80    2.30
  -6  -1   4   10.90    2.10
  -6   1   4   11.20    2.00
   6   1  -4    9.10    2.50
   6   1  -4    9.10    2.10
  -6   1   4   11.70    3.00
  -5  -1   4  100.49    6.20
   5  -1  -4  109.59    6.60
   5   1  -4  104.59    6.60
  -5   1   4  108.19    6.70
  -5   1   4  106.39    5.90
   5   1  -4  108.59    6.10
  -4  -1   4    5.80    1.80
   4  -1  -4    6.90    1.80
  -4  -1   4    4.80    1.30
   4   1  -4    5.70    1.60
  -4   1   4    7.20    2.00
   4   1  -4    3.40    1.10
  -4   1   4    5.30    1.10
   3  -1  -4  389.96   18.50
  -3  -1   4  408.16   18.80
  -3  -1   4  393.86   18.40
  -3   1   4  406.96   18.60
  -3   1   4  412.26   18.10
   3   1  -4  413.46   18.70
  -2  -1   4   83.69    4.80
  -2   1   4   86.59    4.60
  -2   1   4   86.69    4.50
   2   1  -4   82.59    4.70
  -1  -1   4   91.49    5.20
   1  -1  -4  101.79    4.80
  -1  -1   4   88.79    4.90
   1  -1  -4   88.19    4.40
  -1   1   4   90.99    4.50
   1   1  -4   93.59    4.80
   1   1  -4   97.89    5.20
  -1   1   4   92.79    4.90
   0  -1   4    5.60    1.10
   0  -1   4    7.00    1.50
   0  -1  -4    6.10    1.30
   0   1  -4    6.40    1.40
   0   1  -4    8.60    1.20
   0   1   4    5.80    1.50
   1  -1   4    2.40    1.00
   1  -1   4    1.90    1.30
  -1  -1  -4    2.00    0.70
  -1  -1  -4    1.90    0.70
  -1  -1  -4    1.60    1.10
  -1   1  -4    3.60    1.40
  -1   1  -4    2.20    1.10
   1   1   4    2.60    1.30
  -2  -1  -4   16.20    2.40
   2  -1   4   13.70    2.20
  -2  -1  -4   15.40    1.60
  -2   1  -4   11.60    2.20
  -2   1  -4   12.30    1.90
   2   1   4   14.30    2.30
   3  -1   4    8.00    2.10
  -3  -1  -4    5.60    1.40
  -3  -1  -4    7.90    1.80
   3   1   4    5.70    1.50
  -3   1  -4    5.30    1.50
  -3   1  -4    5.70    1.80
   3   1   4    7.50    2.10
  -3   1  -4    7.00    1.80
   4  -1   4   60.19    5.00
  -4  -1  -4   49.50    4.30
  -4  -1  -4   59.19    4.90
   4   1   4   55.69    4.90
   4   1   4   70.09    4.40
  -4   1  -4   61.79    5.10
  -4   1  -4   60.09    4.20
  -4   1  -4   58.79    4.90
   5  -1   4   30.10    4.00
  -5  -1  -4   25.20    3.50
  -5  -1  -4   28.40    4.10
   5   1   4   29.80    3.90
  -5   1  -4   29.60    4.30
  -5   1  -4   28.60    4.00
  -5   1  -4   32.10    3.40
  -6  -1  -4   26.30    3.80
   6  -1   4   29.70    4.50
  -6  -1  -4   32.30    4.60
  -6   1  -4   25.90    4.30
  -6   1  -4   30.60    4.90
   6   1   4   29.10    4.30
  -6   1  -4   28.70    4.00
  -7  -1  -4   31.10    5.00
   7  -1   4   38.50    5.20
  -7  -1  -4   40.10    6.00
  -7   1  -4   42.50    5.70
  -7   1  -4   31.60    5.00
   7   1   4   30.00    4.70
  -8  -1  -4   -2.10    3.40
   8  -1   4    2.10    3.30
  -8  -1  -4    3.80    2.80
   8   1   4    1.70    3.30
  -8   1  -4    2.90    4.40
  -8   1  -4    2.90    3.10
   9  -1   4   40.20    6.00
  -9  -1  -4   29.30    5.20
   9   1   4   37.20    5.90
  -9   1  -4   37.90    6.60
  -9   1  -4   37.40    5.40
  10  -1   4   15.80    5.70
 -10  -1  -4    2.00    4.20
  10   1   4    3.00    4.70
 -10   1  -4    7.20    4.00
  11  -1   4   -5.50    6.80
 -11  -1  -4    4.00    4.80
 -11   1  -4   19.30    8.00
  11   1   4    9.80    7.00
 -13  -2   4    0.90    4.90
 -13   2   4    2.00    3.70
 -12  -2   4  -10.80    5.30
  12  -2  -4    1.40    7.10
 -12  -2   4    5.00    4.10
 -12   2   4    2.00    4.40
 -12   2   4    1.80    3.60
  12   2  -4   -3.60    5.30
  11  -2  -4    1.70    4.10
 -11  -2   4   11.10    4.90
 -11  -2   4   12.40    4.60
  11   2  -4   10.20    4.70
 -11   2   4   10.90    4.00
 -11   2   4    9.10    3.50
  10  -2  -4    6.40    3.20
 -10  -2   4    6.60    3.60
 -10  -2   4   11.30    4.00
 -10   2   4    7.70    3.10
  10   2  -4   -0.40    3.10
 -10   2   4    7.70    2.70
   9  -2  -4    7.40    2.80
  -9  -2   4    3.60    3.20
  -9  -2   4    2.10    2.80
  -9   2   4    1.80    2.70
  -9   2   4    3.60    2.90
  -8  -2   4    5.10    3.00
  -8  -2   4    5.50    2.50
   8  -2  -4    6.20    2.30
  -8   2   4    4.70    2.30
  -8   2   4    9.70    3.10
  -7  -2   4   10.00    2.80
  -7  -2   4   12.70    2.80
   7  -2  -4   11.60    2.20
  -7   2   4   17.10    2.80
  -7   2   4   21.90    4.20
   6  -2  -4    0.10    1.50
  -6  -2   4   -1.50    1.40
  -6  -2   4    3.90    2.30
   6  -2  -4    2.30    1.20
  -6   2   4    2.80    1.80
  -6   2   4    0.60    1.50
   6   2  -4    0.20    1.60
  -5  -2   4    1.80    1.80
  -5  -2   4    1.00    1.40
   5  -2  -4    1.30    1.10
  -5   2   4    2.30    1.70
  -5   2   4    1.20    1.00
   5   2  -4    2.60    1.60
  -4  -2   4  825.72   35.80
   4  -2  -4  797.42   35.90
  -4  -2   4  778.22   36.20
  -4   2   4  785.32   35.90
   4   2  -4  802.52   36.10
  -4   2   4  818.92   35.10
  -3  -2   4  178.38    9.50
  -3  -2   4  181.98    9.30
  -3   2   4  188.38    9.20
   3   2  -4  190.48    9.40
  -2  -2   4  828.42   37.40
  -2  -2   4  853.21   37.40
  -2   2   4  842.32   36.60
  -2   2   4  857.21   36.90
   2   2  -4  840.62   37.30
  -1  -2   4  138.79    7.20
  -1  -2   4  134.89    7.10
   1  -2  -4  137.29    6.50
  -1   2   4  137.29    6.60
   1   2  -4  138.79    7.20
  -1   2   4  133.09    6.60
  -1   2   4  142.09    6.40
   1   2  -4  130.39    6.90
   0  -2   4   96.99    5.40
   0  -2  -4   93.89    5.00
   0  -2   4   89.29    5.10
   0   2   4   87.59    4.20
   0   2  -4   87.99    5.30
   0   2   4  101.79    5.10
  -1  -2  -4   19.80    2.30
   1  -2   4   26.50    3.00
   1  -2   4   20.90    2.20
  -1  -2  -4   19.10    1.60
  -1   2  -4   23.80    2.50
   1   2   4   27.60    1.60
   1   2   4   27.50    2.60
  -1   2  -4   22.00    2.30
  -2  -2  -4    7.90    1.80
  -2  -2  -4    6.00    1.30
   2  -2   4    5.30    2.10
  -2   2  -4    6.70    1.60
  -2   2  -4    7.20    1.70
   2   2   4    4.30    1.70
   2   2   4    6.20    1.20
  -3  -2  -4   78.49    5.10
  -3  -2  -4   74.79    4.60
   3  -2   4   70.59    5.30
  -3   2  -4   69.59    4.60
   3   2   4   80.99    5.20
  -3   2  -4   76.99    5.40
   3   2   4   77.79    4.50
  -3   2  -4   67.59    5.00
  -4  -2  -4   17.00    3.10
  -4  -2  -4   20.20    3.10
   4  -2   4   16.50    3.00
  -4   2  -4   16.70    3.10
   4   2   4   21.70    3.00
  -4   2  -4   21.80    2.90
  -4   2  -4   12.90    2.70
   4   2   4   19.30    2.60
  -5  -2  -4   73.79    5.60
  -5  -2  -4   68.89    5.80
   5  -2   4   76.19    5.80
   5   2   4   85.79    5.30
  -5   2  -4   73.39    5.90
   5   2   4   78.29    6.00
  -5   2  -4   69.99    5.30
  -6  -2  -4   97.09    7.00
  -6  -2  -4   86.29    8.20
   6  -2   4  106.19    7.20
   6   2   4   98.69    7.30
  -6   2  -4   86.99    7.50
  -6   2  -4   95.69    7.20
  -6   2  -4   99.59    6.90
   6   2   4  103.79    6.70
  -7  -2  -4  200.68   11.70
   7  -2   4  193.88   11.70
  -7  -2  -4  191.58   11.80
   7   2   4  204.78   11.90
  -7   2  -4  185.68   11.80
  -7   2  -4  197.58   15.10
  -8  -2  -4  121.49    8.70
   8  -2   4  116.89    8.90
  -8   2  -4  120.29    9.20
   8   2   4  120.09    9.30
  -8   2  -4  115.09    8.70
  -9  -2  -4    5.70    3.90
   9  -2   4    3.00    4.10
  -9   2  -4   -1.10    3.10
  -9   2  -4   -0.50    8.20
   9   2   4    6.50    4.50
  10  -2   4    0.10    5.30
 -10  -2  -4    8.60    4.00
 -10   2  -4   12.70    7.10
  10   2   4    4.30    5.20
  11  -2   4   -7.10    9.20
 -11  -2  -4   -3.30    4.00
  11   2   4    5.40    7.00
 -11   2  -4   -2.80    6.50
 -12  -3   4  107.19   10.20
  12  -3  -4  110.39   11.10
 -12   3   4   82.59    8.30
 -12   3   4  101.49    9.60
 -11  -3   4    7.70    4.50
  11  -3  -4    5.50    7.10
 -11  -3   4    2.40    4.80
 -11   3   4    8.90    4.40
 -11   3   4    3.00    3.50
 -10  -3   4   72.89    7.20
 -10  -3   4   69.89    7.60
  10  -3  -4   72.29    5.90
 -10   3   4   72.39    6.20
 -10   3   4   79.69    7.40
  10   3  -4   77.59    7.30
   9  -3  -4  218.38   11.60
  -9  -3   4  222.98   13.00
  -9  -3   4  226.18   14.10
   9   3  -4  247.58   13.00
  -9   3   4  224.78   12.40
  -9   3   4  228.58   13.80
   8  -3  -4    9.70    2.20
  -8  -3   4    6.20    3.20
  -8  -3   4    7.00    2.90
  -8   3   4    8.30    2.90
   8   3  -4    5.50    2.70
  -8   3   4    8.70    2.40
  -7  -3   4    6.70    2.70
  -7  -3   4    9.60    4.30
   7  -3  -4    6.50    1.60
   7   3  -4    7.50    2.00
  -7   3   4    3.40    2.30
  -7   3   4    4.20    1.90
  -6  -3   4  155.98    9.70
  -6  -3   4  170.48    9.20
   6  -3  -4  162.48    7.70
   6   3  -4  148.39    9.30
   6   3  -4  158.08    8.90
  -6   3   4  161.18    9.30
  -6   3   4  159.88    8.80
  -5  -3   4    2.80    1.80
  -5  -3   4    4.70    1.80
  -5   3   4    4.20    1.90
  -5   3   4    4.00    1.10
   5   3  -4    2.50    1.40
  -4  -3   4   35.90    3.20
  -4  -3   4   36.10    3.60
   4   3  -4   35.30    3.40
  -4   3   4   31.90    2.20
  -4   3   4   35.60    3.20
   4   3  -4   34.80    3.20
  -3  -3   4   52.19    3.80
  -3  -3   4   49.99    4.10
  -3   3   4   53.89    4.00
  -3   3   4   49.60    3.50
   3   3  -4   46.70    3.80
  -2  -3   4  126.29    6.90
  -2  -3   4  130.49    7.10
  -2  -3   4  121.99    6.70
  -2   3   4  127.09    5.80
  -2   3   4  120.79    6.60
  -2   3   4  125.49    6.80
   2   3  -4  121.99    6.80
  -1  -3   4  216.98   10.70
  -1  -3   4  213.48   10.60
   1  -3  -4  217.18    9.60
  -1   3   4  202.78   10.00
   1   3  -4  215.38   10.50
  -1   3   4  208.28    9.80
   1   3  -4  219.28   10.60
   0  -3  -4   53.09    3.20
   0  -3   4   54.19    3.90
   0  -3  -4   54.59    3.20
   0   3   4   55.59    3.50
   0   3  -4   63.39    4.00
   0   3   4   51.99    3.00
   0   3  -4   62.89    4.00
  -1  -3  -4    2.70    0.80
   1  -3   4    1.80    1.30
   1  -3   4    1.60    1.10
  -1  -3  -4    1.00    1.00
  -1   3  -4    2.50    1.30
  -1   3  -4    1.10    1.40
   1   3   4    2.20    0.80
   1   3   4    1.90    1.40
   2  -3   4   14.20    2.40
  -2  -3  -4   14.50    2.30
  -2  -3  -4   14.60    1.90
   2  -3   4   14.60    2.50
   2   3   4   16.30    2.50
  -2   3  -4   19.80    2.80
  -2   3  -4   20.60    2.70
   2   3   4   23.20    3.60
  -3  -3  -4    1.60    1.20
  -3  -3  -4    3.30    1.80
   3  -3   4    1.80    1.70
   3   3   4    5.70    1.50
   3   3   4    5.30    1.80
  -3   3  -4    1.20    1.80
  -3   3  -4    7.60    2.30
  -4  -3  -4   11.40    2.40
  -4  -3  -4   14.90    2.90
   4  -3   4   11.10    2.60
  -4   3  -4   13.70    3.20
   4   3   4   12.20    2.60
  -4   3  -4   14.20    2.30
  -4   3  -4   11.70    2.90
   4   3   4    9.90    2.00
   5  -3   4    1.80    1.70
  -5  -3  -4    3.80    2.30
  -5  -3  -4    0.60    2.50
   5   3   4   -0.20    1.40
  -5   3  -4    3.70    1.80
   5   3   4    4.50    2.50
  -5   3  -4    5.90    2.50
  -5   3  -4    0.50    2.20
  -6  -3  -4   36.10    4.70
   6  -3   4   34.10    4.70
  -6  -3  -4   28.60    4.40
   6   3   4   24.30    4.20
  -6   3  -4   36.10    4.30
   6   3   4   35.20    4.10
  -6   3  -4   30.50    4.50
  -7  -3  -4    7.80    4.60
   7  -3   4    0.30    3.00
  -7  -3  -4    3.50    2.70
   7   3   4    2.40    3.30
  -7   3  -4    1.80    2.50
  -7   3  -4    6.50    3.40
   8  -3   4   10.40    4.10
  -8  -3  -4   17.90    3.90
  -8   3  -4    9.90    4.40
   8   3   4   11.40    4.10
  -8   3  -4   22.60    4.50
   9  -3   4    0.90    4.00
  -9  -3  -4    0.30    3.10
   9   3   4    1.30    3.90
  -9   3  -4    1.30    4.90
  -9   3  -4   -4.40    3.30
 -10  -3  -4   13.30    4.70
  10  -3   4   15.00    5.50
 -10   3  -4   15.80    4.60
  10   3   4   18.00    6.20
 -12  -4   4    4.30    4.00
 -12   4   4   -3.10    3.90
 -12   4   4   -4.10    3.40
  12   4  -4   -8.10    5.90
  11  -4  -4    4.90    5.40
 -11  -4   4    9.30    3.90
 -11  -4   4   -2.20    4.60
 -11   4   4    4.60    3.80
  11   4  -4    0.70    4.40
 -11   4   4    2.20    3.60
 -10  -4   4   -0.10    3.60
 -10  -4   4   -1.00    3.00
  10  -4  -4    2.00    3.10
  10   4  -4    4.70    4.00
 -10   4   4    3.30    3.70
 -10   4   4    4.80    2.90
  -9  -4   4    3.00    3.10
  -9  -4   4   -0.90    2.90
   9  -4  -4   -0.30    3.50
  -9   4   4    7.20    3.70
   9   4  -4    5.80    3.00
  -9   4   4    3.60    2.60
   8  -4  -4    2.80    1.70
  -8  -4   4   -0.60    2.40
  -8  -4   4    2.10    2.70
   8   4  -4    3.10    2.50
  -8   4   4    8.60    3.00
  -8   4   4    3.20    2.30
  -7  -4   4    9.90    2.70
   7  -4  -4   13.60    1.70
  -7  -4   4   12.70    2.90
   7   4  -4   13.10    2.90
  -7   4   4   12.70    2.30
  -6  -4   4    4.20    2.30
  -6  -4   4    2.20    1.90
  -6   4   4    2.50    2.00
  -6   4   4    4.20    1.60
  -6   4   4    5.80    3.20
   6   4  -4    4.60    2.00
  -5  -4   4  330.47   15.90
  -5  -4   4  293.27   16.10
  -5   4   4  331.77   20.50
  -5   4   4  300.27   15.50
   5   4  -4  332.77   15.70
   5   4  -4  304.77   15.80
  -4  -4   4   48.10    4.50
  -4   4   4   40.30    3.80
   4   4  -4   43.80    4.10
  -4   4   4   52.29    2.80
   4   4  -4   57.09    4.20
  -4   4   4   51.19    4.60
  -3  -4   4 1271.67   57.59
  -3   4   4 1313.87   56.89
   3   4  -4 1309.27   57.39
  -3   4   4 1296.97   57.59
  -2  -4   4  346.57   16.00
  -2  -4   4  329.57   16.10
  -2  -4   4  335.37   16.40
  -2   4   4  335.07   14.70
   2   4  -4  332.27   16.10
  -2   4   4  340.07   16.00
  -1  -4   4  736.13   33.50
   1  -4  -4  720.33   32.90
   1  -4  -4  735.83   31.90
  -1  -4   4  776.12   34.10
  -1   4   4  732.53   32.30
   1   4  -4  739.23   33.40
  -1   4   4  714.73   32.90
   1   4  -4  773.12   33.30
   0  -4   4   66.59    4.60
   0  -4  -4   67.29    3.70
   0  -4  -4   61.89    4.00
   0  -4   4   68.19    4.80
   0   4  -4   66.49    4.60
   0   4  -4   71.59    4.50
   0   4   4   62.09    3.80
   0   4   4   69.69    4.00
  -1  -4  -4  477.15   21.60
  -1  -4  -4  444.16   21.50
   1  -4   4  479.05   22.10
   1  -4   4  483.25   22.50
  -1   4  -4  492.85   22.40
  -1   4  -4  490.85   22.20
   1   4   4  482.85   21.70
   1   4   4  471.05   21.70
   2  -4   4  345.57   16.70
   2  -4   4  374.56   17.30
  -2  -4  -4  326.17   16.60
  -2  -4  -4  344.97   16.50
   2   4   4  349.37   16.00
  -2   4  -4  350.66   16.90
  -2   4  -4  331.67   17.10
   2   4   4  362.36   16.60
  -3  -4  -4   33.50    3.50
   3  -4   4   29.80    3.60
   3  -4   4   33.80    3.50
  -3  -4  -4   31.10    3.10
  -3   4  -4   32.30    3.90
   3   4   4   32.50    3.50
  -3   4  -4   31.40    3.60
   3   4   4   33.00    3.00
  -4  -4  -4   -0.30    1.40
  -4  -4  -4    1.20    2.00
   4  -4   4    2.20    1.70
   4   4   4    3.50    2.00
  -4   4  -4   -0.70    2.00
   4   4   4   -1.20    1.20
  -4   4  -4   -0.20    1.70
  -5  -4  -4  180.38   10.10
   5  -4   4  167.48   10.10
  -5  -4  -4  176.68   10.20
  -5   4  -4  183.48   10.10
  -5   4  -4  186.68   10.60
  -5   4  -4  163.68   10.70
   5   4   4  165.78    9.50
   5   4   4  179.38   10.50
  -6  -4  -4   10.60    2.70
  -6  -4  -4   11.20    3.70
   6  -4   4   10.70    2.90
   6   4   4    8.40    2.50
   6   4   4    9.10    3.40
  -6   4  -4   10.80    3.00
  -6   4  -4   15.40    3.80
   7  -4   4  134.79    9.10
  -7  -4  -4  137.99    9.30
  -7   4  -4  133.89    9.30
   7   4   4  116.89    9.20
  -7   4  -4  139.49    9.10
   8  -4   4   40.50    5.10
  -8  -4  -4   27.30    4.90
  -8   4  -4   38.60    5.50
   8   4   4   36.50    6.10
  -8   4  -4   27.30    5.40
   9  -4   4   66.99    7.70
  -9  -4  -4   63.89    7.40
  -9   4  -4   72.69    7.30
   9   4   4   61.39    7.90
  -9   4  -4   51.39    7.20
 -10  -4  -4    6.40    4.50
  10  -4   4   -3.70    4.80
  10   4   4    9.00    5.80
 -10   4  -4   -1.40    3.90
 -12  -5   4   46.90    8.20
  12   5  -4   21.90    6.30
 -12   5   4   35.00    6.50
 -11  -5   4   -3.30    4.80
 -11  -5   4    7.20    3.90
 -11   5   4    0.10    3.10
  11   5  -4    1.50    4.50
 -11   5   4   -2.70    3.90
 -10  -5   4   79.79    7.70
 -10  -5   4   95.29    9.00
 -10   5   4   83.29    6.80
  10   5  -4   95.39    8.00
 -10   5   4   84.29    8.00
  -9  -5   4   19.00    5.00
  -9  -5   4   18.40    3.90
   9  -5  -4   14.90    2.90
  -9   5   4   17.50    3.40
   9   5  -4   17.00    4.10
  -9   5   4   23.40    4.70
  -8  -5   4   56.79    6.30
  -8  -5   4   59.09    5.80
  -8   5   4   51.59    5.60
  -8   5   4   48.30    4.50
   8   5  -4   59.59    5.80
  -7  -5   4   18.10    3.80
  -7  -5   4   23.90    3.80
  -7   5   4   24.30    2.80
  -7   5   4   25.70    4.00
   7   5  -4   20.60    3.70
  -6  -5   4  355.16   18.30
  -6  -5   4  335.97   17.30
  -6   5   4  344.07   16.00
  -6   5   4  345.17   17.50
   6   5  -4  347.67   17.40
  -5  -5   4   59.49    4.90
  -5  -5   4   62.89    5.50
   5   5  -4   56.29    4.90
   5   5  -4   60.19    4.80
  -5   5   4   59.99    3.50
  -5   5   4   59.89    5.60
  -5   5   4   54.99    4.60
  -4  -5   4  233.68   12.00
  -4  -5   4  240.98   12.70
  -4   5   4  234.38   12.70
   4   5  -4  215.88   12.40
  -4   5   4  227.78   10.20
  -4   5   4  230.28   11.80
  -3  -5   4    1.60    1.70
  -3  -5   4   -0.40    1.00
  -3   5   4    0.10    1.30
   3   5  -4   -0.80    1.10
   2  -5  -4  631.54   28.50
  -2  -5   4  636.54   29.00
  -2  -5   4  626.24   28.30
  -2  -5   4  631.24   28.50
  -2   5   4  606.54   26.80
  -2   5   4  604.54   28.40
   2   5  -4  613.74   28.60
   1  -5  -4   35.60    3.00
  -1  -5   4   31.40    3.70
  -1  -5   4   38.00    3.80
   1   5  -4   37.70    3.60
   1   5  -4   37.20    3.30
  -1   5   4   35.90    2.40
  -1   5   4   36.10    3.00
   0  -5   4   24.80    3.20
   0  -5  -4   18.80    1.80
   0  -5  -4   20.40    3.00
   0  -5   4   21.50    2.80
   0   5  -4   21.90    3.00
   0   5   4   17.40    2.00
   0   5   4   19.30    2.40
   0   5  -4   20.40    3.00
   1  -5   4    1.90    1.40
  -1  -5  -4    0.50    1.20
   1  -5   4   -0.30    1.40
  -1  -5  -4   -0.70    1.10
  -1   5  -4   -0.20    1.40
   1   5   4    1.00    1.50
   1   5   4    1.30    1.00
  -1   5  -4    1.00    1.40
   2  -5   4    0.30    1.30
  -2  -5  -4    0.40    1.40
   2  -5   4    1.30    1.60
  -2  -5  -4    0.30    1.20
  -2   5  -4    0.70    1.70
   2   5   4    1.70    1.20
  -2   5  -4    1.70    1.70
   2   5   4    1.60    1.60
  -3  -5  -4    7.10    2.10
   3  -5   4   10.30    2.30
  -3  -5  -4    6.10    2.00
   3  -5   4    6.90    2.40
  -3   5  -4    7.20    2.40
   3   5   4   11.70    2.20
  -3   5  -4    4.50    2.20
   3   5   4    5.90    2.20
   4  -5   4   -0.70    1.40
  -4  -5  -4    0.10    1.80
  -4  -5  -4    0.70    1.60
  -4   5  -4    2.50    2.20
   4   5   4    0.40    1.60
   4   5   4    0.40    1.80
  -4   5  -4   -1.50    1.90
  -5  -5  -4   -1.20    2.40
   5  -5   4    0.90    2.00
  -5  -5  -4    2.80    2.50
   5   5   4    2.30    2.30
   5   5   4    0.30    4.10
  -5   5  -4    0.10    1.60
  -5   5  -4    4.90    2.50
   6  -5   4   43.30    5.10
  -6  -5  -4   25.10    4.40
  -6   5  -4   38.70    5.50
   6   5   4   23.70    4.40
   6   5   4   29.50    4.00
  -6   5  -4   42.60    5.30
   7  -5   4    0.40    3.00
  -7  -5  -4    8.00    5.70
  -7   5  -4    1.00    3.00
  -7   5  -4    5.40    3.30
   7   5   4    2.00    3.10
  -8  -5  -4    4.00    3.60
   8  -5   4    9.00    3.10
   8   5   4    8.10    4.50
  -8   5  -4    2.90    4.40
  -8   5  -4    1.50    3.10
  -9  -5  -4    4.20    4.00
   9  -5   4    4.10    4.40
   9   5   4   11.00    5.30
  -9   5  -4    8.50    3.50
  10  -5   4   14.00    7.10
 -10  -5  -4   23.40    5.40
 -10   5  -4   18.40    4.70
 -12  -6   4    1.10    4.60
 -12   6   4    2.60    4.70
 -12   6   4    0.80    4.60
  12   6  -4   -9.60    6.50
 -11  -6   4    4.80    5.40
 -11   6   4   -1.40    3.40
  11   6  -4   -0.40    4.20
 -11   6   4    1.50    3.80
 -10  -6   4   10.90    6.80
 -10  -6   4    2.80    3.60
 -10   6   4    4.60    3.10
 -10   6   4    1.70    2.80
  10   6  -4    7.40    4.20
  -9  -6   4   12.90    3.90
  -9  -6   4   10.60    4.00
  -9   6   4   11.10    2.90
   9   6  -4    9.50    3.50
  -9   6   4   20.60    4.50
  -8  -6   4   14.40    3.80
  -8  -6   4   14.90    3.40
  -8   6   4   20.40    3.10
  -8   6   4   17.70    3.50
   8   6  -4   26.40    4.50
  -7  -6   4   31.30    4.40
  -7  -6   4   33.30    5.70
  -7   6   4   29.80    3.30
  -7   6   4   48.00    6.10
   7   6  -4   43.60    4.80
  -6  -6   4   19.60    3.30
  -6   6   4   18.00    2.10
   6   6  -4   15.40    3.00
  -6   6   4   19.20    3.40
  -5  -6   4   92.59    7.10
  -5  -6   4   95.49    6.50
  -5   6   4   88.79    6.20
  -5   6   4   94.59    4.70
  -5   6   4   80.19    6.90
   5   6  -4   83.19    6.20
  -4  -6   4  273.57   13.30
  -4  -6   4  249.68   13.90
  -4   6   4  228.78   14.50
   4   6  -4  271.87   13.40
   4   6  -4  252.57   13.60
  -3  -6   4  149.79    9.30
  -3  -6   4  152.48    8.50
  -3  -6   4  152.88    8.70
   3   6  -4  166.78    9.80
  -3   6   4  141.69    8.80
  -2  -6   4  223.68   11.40
  -2  -6   4  223.78   11.50
  -2  -6   4  224.48   12.10
   2  -6  -4  213.78   11.70
  -2   6   4  218.78   11.50
   2   6  -4  219.08   11.70
  -2   6   4  221.28    9.90
  -1  -6   4  486.55   22.80
  -1  -6   4  477.95   22.60
  -1  -6   4  489.65   23.60
   1  -6  -4  482.35   22.90
   1   6  -4  492.35   23.30
  -1   6   4  498.05   21.60
   1   6  -4  504.95   22.90
  -1   6   4  467.25   22.70
   0  -6   4  158.68    9.70
   0  -6   4  173.48    9.10
   0  -6  -4  169.78    9.10
   0  -6  -4  165.48    8.00
   0   6   4  171.98    8.40
   0   6  -4  165.68    9.10
   0   6  -4  164.08    9.50
   0   6   4  168.08    8.90
   1  -6   4  415.36   19.80
  -1  -6  -4  397.46   18.70
   1  -6   4  388.66   18.80
  -1   6  -4  392.66   19.50
   1   6   4  387.56   18.30
   1   6   4  382.66   18.40
  -2  -6  -4  472.75   22.30
   2  -6   4  491.85   23.80
   2  -6   4  492.25   22.80
  -2  -6  -4  477.35   22.60
   2   6   4  480.75   22.30
  -2   6  -4  474.65   23.50
   2   6   4  498.55   22.60
  -2   6  -4  474.35   24.10
   3  -6   4    0.30    2.00
  -3  -6  -4    1.60    1.60
   3  -6   4    4.50    1.80
  -3  -6  -4    2.00    1.70
   3   6   4    2.20    1.50
  -3   6  -4    1.00    1.90
   3   6   4    4.50    1.80
  -3   6  -4    8.50    3.20
   4  -6   4    6.70    2.30
  -4  -6  -4    8.40    2.40
   4   6   4    4.30    2.70
   4   6   4    4.20    1.90
  -4   6  -4    4.70    3.00
  -4   6  -4    2.70    2.40
  -5  -6  -4   68.49    5.90
   5  -6   4   66.99    5.60
  -5   6  -4   62.09    5.80
   5   6   4   69.69    5.50
   5   6   4   65.19    5.90
   6  -6   4   56.79    5.60
  -6  -6  -4   56.09    6.00
  -6   6  -4   51.59    5.70
  -6   6  -4   67.69    5.80
   6   6   4   58.79    6.10
   7  -6   4    1.20    2.30
  -7  -6  -4   -1.80    2.40
  -7   6  -4    2.00    2.80
   7   6   4    6.20    4.00
  -7   6  -4    5.80    3.40
   8  -6   4   41.00    6.30
  -8  -6  -4   56.29    7.30
  -8   6  -4   55.69    6.40
  -8   6  -4   54.09    6.80
   8   6   4   36.20    8.50
  -9  -6  -4   42.80    6.70
   9   6   4   26.00    6.20
  -9   6  -4   32.60    5.90
  -9   6  -4   39.10    5.80
 -10  -6  -4    1.80    4.70
  10  -6   4   -1.60    8.30
  10   6   4   -3.60    5.30
 -12  -7   4   -3.80    4.90
  12   7  -4    6.70    6.30
 -12   7   4    3.70    3.60
 -12   7   4    5.60    4.10
 -11  -7   4   33.70    7.00
 -11   7   4   42.60    6.00
 -11   7   4   36.40    6.00
  11   7  -4   36.00    6.60
 -10  -7   4   30.50    6.50
 -10  -7   4   32.60    7.10
 -10   7   4   39.40    5.70
  10   7  -4   31.00    6.00
 -10   7   4   42.70    5.30
  -9  -7   4  152.58   11.60
  -9  -7   4  184.08   12.90
   9   7  -4  172.08   11.30
  -9   7   4  179.18   11.60
  -9   7   4  170.18   10.00
  -8  -7   4   20.70    4.20
  -8  -7   4   15.60    4.70
  -8   7   4   22.20    3.50
  -8   7   4   17.00    3.70
   8   7  -4   17.40    4.00
  -7  -7   4   25.40    5.00
  -7  -7   4   23.50    4.30
   7   7  -4   19.70    3.70
  -7   7   4   19.60    3.70
  -7   7   4   25.50    3.10
  -6  -7   4   48.10    5.70
  -6  -7   4   48.30    5.10
  -6   7   4   50.59    3.70
   6   7  -4   50.59    4.80
  -6   7   4   51.99    5.60
  -5  -7   4  531.05   26.30
  -5  -7   4  516.65   25.10
   5   7  -4  529.35   25.20
  -5   7   4  517.95   23.20
  -5   7   4  536.35   25.30
  -4  -7   4   49.99    4.40
  -4  -7   4   61.69    5.70
  -4   7   4   54.79    5.10
   4   7  -4   51.29    4.70
   4   7  -4   53.99    4.70
  -3  -7   4  110.59    7.20
   3  -7  -4  114.19    7.60
  -3  -7   4  112.49    6.90
  -3  -7   4  113.59    8.00
  -3   7   4  107.09    7.30
   3   7  -4  111.49    7.30
  -2  -7   4    2.10    1.40
  -2  -7   4    1.30    1.50
   2  -7  -4    0.00    1.30
  -2  -7   4    2.40    2.10
  -2   7   4    1.00    0.80
   2   7  -4   -0.30    1.30
  -2   7   4    0.60    1.30
  -1  -7   4   55.49    4.40
   1  -7  -4   61.99    4.70
  -1  -7   4   50.89    4.10
  -1  -7   4   61.29    5.50
   1   7  -4   55.39    5.30
  -1   7   4   53.39    4.40
  -1   7   4   52.29    3.50
   0  -7  -4    2.10    1.20
   0  -7   4    4.90    1.90
   0  -7   4    8.70    2.70
   0  -7  -4    6.30    2.10
   0   7   4    3.70    1.40
   0   7  -4    8.00    2.00
   0   7  -4    4.70    2.20
   0   7   4    4.90    1.80
   1  -7   4    2.40    1.90
   1  -7   4    2.40    1.70
  -1  -7  -4    2.30    1.60
  -1  -7  -4    2.40    1.20
  -1   7  -4    4.70    2.30
   1   7   4    3.40    1.70
   1   7   4    3.50    1.80
   2  -7   4   18.00    2.80
  -2  -7  -4   17.30    2.50
  -2  -7  -4   15.00    2.90
   2  -7   4   16.20    3.50
  -2   7  -4   20.60    3.20
   2   7   4   18.10    2.60
  -2   7  -4   19.20    3.60
   2   7   4   18.00    3.00
  -3  -7  -4    4.30    2.40
   3  -7   4    2.90    1.70
   3  -7   4    1.60    2.40
  -3   7  -4    6.00    2.50
   3   7   4    7.10    2.00
   3   7   4    4.80    2.10
  -3   7  -4    4.00    2.00
   4  -7   4    3.00    2.20
   4  -7   4    0.90    1.70
  -4  -7  -4    0.90    2.10
   4   7   4    3.50    2.20
   4   7   4    1.80    2.50
  -4   7  -4    1.40    2.00
  -5  -7  -4    3.10    2.50
   5  -7   4    0.70    2.30
   5   7   4   -0.80    2.10
   5   7   4    3.60    2.70
  -6  -7  -4    1.30    2.40
   6   7   4    2.00    3.00
  -6   7  -4    3.20    2.70
  -6   7  -4    0.30    2.00
  -7  -7  -4    8.00    3.50
   7   7   4    8.00    4.00
  -7   7  -4   11.00    4.10
  -7   7  -4    8.70    3.90
  -8  -7  -4   16.80    4.80
   8  -7   4    1.30    4.50
  -8   7  -4   17.30    5.10
  -8   7  -4   16.30    4.80
   8   7   4   11.80    4.90
  -9  -7  -4   14.70    4.50
   9  -7   4   25.00    5.90
  -9   7  -4   25.80    5.70
   9   7   4   19.20    5.40
  -9   7  -4   31.70    6.40
 -10  -7  -4   25.40    6.10
 -10   7  -4   12.90    4.70
  10   7   4    3.30    5.80
 -11  -8   4    1.70    4.20
 -11   8   4    2.20    3.60
 -11   8   4    7.10    4.10
  11   8  -4    7.50    5.30
 -10  -8   4    6.10    4.50
 -10   8   4    2.50    3.10
 -10   8   4    4.80    3.20
  10   8  -4   -0.90    3.80
  -9  -8   4   -2.10    4.10
  -9  -8   4   -0.40    3.60
  -9   8   4    1.50    2.50
   9   8  -4   -1.90    3.40
  -9   8   4    3.40    2.90
  -8  -8   4    6.70    3.40
  -8  -8   4    4.40    3.00
  -8   8   4   12.70    2.70
  -8   8   4   10.00    3.50
   8   8  -4    6.40    3.40
  -7  -8   4    0.70    2.90
  -7  -8   4    8.80    3.70
   7   8  -4    7.80    2.70
  -7   8   4   12.60    2.40
  -7   8   4    9.90    3.60
  -6  -8   4  124.09    9.80
  -6  -8   4  130.59    9.90
  -6   8   4  142.19    7.20
   6   8  -4  133.39    8.80
  -6   8   4  133.09    8.90
  -5  -8   4   31.30    4.00
  -5  -8   4   31.20    6.10
   5   8  -4   39.50    4.50
  -5   8   4   39.10    2.70
  -4  -8   4  150.28    8.90
  -4  -8   4  144.19    9.90
   4   8  -4  164.98    9.20
  -4   8   4  125.89    9.20
  -4   8   4  154.38    7.00
   3  -8  -4   13.50    3.20
  -3  -8   4   17.60    4.20
  -3  -8   4   20.80    3.40
  -3  -8   4   15.00    2.60
   3   8  -4   17.30    3.60
  -3   8   4   16.00    1.60
  -3   8   4   17.40    3.50
   2  -8  -4  139.09    8.70
  -2  -8   4  124.89   10.30
  -2  -8   4  129.59    7.90
  -2  -8   4  136.69    9.10
  -2   8   4  123.39    8.20
  -2   8   4  137.59    6.60
   2   8  -4  138.39    8.60
  -1  -8   4    3.40    2.10
  -1  -8   4    2.60    1.50
  -1  -8   4    1.70    1.40
   1  -8  -4    1.60    1.60
  -1   8   4    2.00    1.60
  -1   8   4    3.70    1.30
   1   8  -4    3.20    2.00
   0  -8  -4  773.22   35.10
   0  -8   4  771.22   36.40
   0  -8  -4  827.82   37.00
   0  -8   4  827.42   38.00
   0  -8   4  809.82   36.60
   0   8   4  813.32   35.70
   0   8   4  788.32   36.70
   0   8  -4  790.52   37.50
   0   8  -4  815.92   37.00
  -1  -8  -4   48.80    3.90
   1  -8   4   46.70    4.10
  -1  -8  -4   53.79    4.70
   1  -8   4   60.69    5.80
  -1   8  -4   59.39    4.70
   1   8   4   53.69    4.20
  -1   8  -4   51.29    5.20
   1   8   4   48.00    4.40
   2  -8   4   89.29    6.00
   2  -8   4   85.69    7.10
  -2  -8  -4   93.29    6.60
   2   8   4   88.79    6.10
   2   8   4   92.89    6.00
  -2   8  -4   87.39    6.20
  -2   8  -4   88.29    6.90
  -3  -8  -4   51.59    5.00
   3  -8   4   50.79    4.50
   3  -8   4   55.59    6.00
   3   8   4   57.19    4.70
   3   8   4   56.69    5.00
  -3   8  -4   51.29    4.90
  -4  -8  -4  236.48   13.30
   4  -8   4  231.08   15.60
   4   8   4  235.38   12.80
   4   8   4  245.18   13.30
  -4   8  -4  230.48   12.90
  -5  -8  -4    5.90    3.10
   5   8   4    1.20    2.80
  -5   8  -4    2.70    2.30
   5   8   4   -3.60    2.40
  -6  -8  -4   -3.50    5.30
   6  -8   4   -1.40    2.20
   6   8   4   -0.40    2.90
  -6   8  -4    4.10    5.40
  -7  -8  -4   15.80    4.90
   7  -8   4    5.30    3.20
  -7   8  -4    9.80    3.30
   7   8   4   10.30    4.30
  -7   8  -4    8.60    4.30
   8  -8   4   29.20    5.40
  -8  -8  -4   24.60    5.80
  -8   8  -4   30.90    6.50
   8   8   4   17.90    5.50
  -8   8  -4   31.30    4.90
  -9  -8  -4    6.90    4.60
   9  -8   4   -3.20    5.80
   9   8   4    4.70    5.20
  -9   8  -4    4.20    3.70
  -9   8  -4    6.60    6.80
 -11  -9   4   14.60    5.50
  11   9  -4   -1.10    5.70
 -11   9   4   27.30    5.00
 -11   9   4   16.80    5.80
  10   9  -4   -4.90    4.20
 -10   9   4    2.20    3.10
  -9  -9   4   71.89    9.90
   9   9  -4   63.99    7.60
  -9   9   4   63.49    5.70
  -9   9   4   67.59    7.20
  -8  -9   4   35.30    6.50
  -8   9   4   34.80    4.00
   8   9  -4   36.90    5.90
  -8   9   4   24.70    4.30
  -7  -9   4   35.60    6.00
  -7  -9   4   27.50    4.80
   7   9  -4   27.90    4.60
  -7   9   4   37.60    3.70
  -7   9   4   36.10    5.70
  -6  -9   4   23.20    4.80
  -6  -9   4   17.70    3.70
  -6   9   4   28.30    5.00
  -6   9   4   23.50    2.60
   6   9  -4   19.50    3.70
  -5  -9   4  191.88   12.40
  -5  -9   4  182.78   11.00
   5   9  -4  190.38   11.30
  -5   9   4  192.98    9.10
  -4  -9   4    3.20    2.30
  -4  -9   4    2.30    1.90
   4  -9  -4    2.70    2.40
  -4  -9   4   -0.20    2.70
  -4   9   4    3.90    1.00
   4   9  -4    3.20    2.20
   3  -9  -4  222.18   12.70
  -3  -9   4  234.28   13.20
  -3  -9   4  195.38   11.40
  -3  -9   4  215.38   11.80
  -3   9   4  191.28   12.10
  -2  -9   4   76.69    5.80
  -2  -9   4   77.29    6.90
  -2  -9   4   72.79    5.60
   2  -9  -4   75.39    6.30
  -2   9   4   86.39    6.40
  -2   9   4   74.29    4.40
   1  -9  -4   43.40    4.40
  -1  -9   4   50.29    6.80
  -1  -9   4   37.30    3.70
  -1  -9   4   38.90    3.90
  -1   9   4   33.40    3.10
   0  -9   4    1.20    1.40
   0  -9   4    4.10    2.20
   0  -9   4   -1.30    1.20
   0  -9  -4    2.00    1.90
   0   9  -4    1.70    2.00
   0   9   4    1.10    1.30
   0   9   4    1.90    1.80
   1  -9   4    3.90    1.90
   1  -9   4    7.10    3.10
  -1  -9  -4    5.80    2.30
   1   9   4    5.70    2.10
  -1   9  -4    5.00    2.00
   1   9   4    3.40    1.90
  -2  -9  -4    5.10    2.30
   2  -9   4    0.40    2.10
   2  -9   4    1.00    1.60
  -2   9  -4    1.20    2.00
   2   9   4   -0.90    2.00
  -3  -9  -4   -2.30    2.00
   3  -9   4    2.40    2.30
  -3   9  -4    0.00    1.70
   3   9   4    1.80    1.90
   3   9   4    1.30    1.90
  -4  -9  -4    2.50    2.80
   4  -9   4    0.40    2.70
   4   9   4   -2.10    2.20
  -4   9  -4    0.60    2.20
   4   9   4   -0.10    2.40
  -5  -9  -4    9.90    3.60
   5  -9   4    5.80    2.60
   5   9   4    4.00    3.10
  -5   9  -4    6.80    3.00
  -6  -9  -4   -0.80    3.30
   6  -9   4    1.00    2.60
  -6   9  -4    1.80    3.00
   6   9   4   -2.00    2.90
  -7  -9  -4   43.00    6.90
   7  -9   4   38.80    5.30
  -7   9  -4   53.69    7.60
  -7   9  -4   42.90    9.80
   7   9   4   37.30    6.00
   8  -9   4    0.20    5.70
  -8  -9  -4    8.20    4.40
  -8   9  -4    7.40    3.60
   8   9   4    4.10    4.60
  -8   9  -4   -0.70    4.50
  -9  -9  -4   26.20    6.10
  -9   9  -4   22.10    5.30
   9   9   4   16.70    5.80
 -11 -10   4    3.80    4.80
  11  10  -4   -3.10    6.10
 -11  10   4    0.40    3.40
 -11  10   4    4.60    4.60
 -10 -10   4    3.40    4.60
 -10  10   4    8.70    3.60
 -10  10   4    8.40    3.50
  10  10  -4    3.20    5.00
  -9 -10   4   11.00    4.60
   9  10  -4   12.80    4.20
  -9  10   4    6.10    4.00
  -9  10   4   11.50    3.30
  -8 -10   4   14.30    5.10
  -8  10   4   14.80    2.80
  -8  10   4   10.40    3.00
   8  10  -4    9.50    4.30
  -7 -10   4  127.29   10.60
   7  10  -4  138.79    9.90
  -7  10   4  133.39    7.60
  -7  10   4  144.69   10.00
  -6 -10   4    3.50    3.30
   6  10  -4    5.10    3.70
  -6  10   4    6.10    1.90
  -5 -10   4   26.10    5.70
   5  10  -4   25.10    4.30
  -5  10   4   22.90    2.50
   4 -10  -4   29.50    6.40
  -4 -10   4   35.10    5.00
  -4 -10   4   31.80    6.50
  -4 -10   4   41.90    7.30
   4  10  -4   40.50    5.20
  -3 -10   4    1.60    3.00
  -3 -10   4    5.50    2.40
   3 -10  -4    4.20    2.60
  -3 -10   4    6.50    2.40
  -2 -10   4   33.00    6.00
  -2 -10   4   31.30    7.00
   2 -10  -4   27.30    4.50
  -2 -10   4   27.80    4.20
  -2  10   4   26.60    4.40
   1 -10  -4  346.77   17.70
  -1 -10   4  317.97   22.30
  -1 -10   4  340.27   16.70
  -1  10   4  303.07   17.00
   0 -10  -4  167.18    9.80
   0 -10  -4  136.89    7.30
   0 -10   4  124.39   13.20
   0 -10   4  146.49    8.70
   0  10   4  150.58    8.20
   0  10  -4  149.09   12.10
   0  10   4  143.29    9.10
  -1 -10  -4   63.99    6.00
   1 -10   4   74.89    5.40
   1 -10   4   81.39    8.40
   1  10   4   61.89    5.80
  -1  10  -4   70.59    5.70
   1  10   4   70.99    5.40
   2 -10   4   26.20    5.10
  -2 -10  -4   28.00    4.50
   2  10   4   18.20    3.50
  -2  10  -4   29.40    4.20
   2  10   4   19.70    3.30
   3 -10   4   55.99    6.40
  -3 -10  -4   47.70    5.40
   3  10   4   51.39    5.20
   3  10   4   50.89    5.10
  -3  10  -4   43.40    4.90
  -4 -10  -4   81.09    7.30
   4 -10   4   85.49    6.30
   4 -10   4   82.79    8.10
   4  10   4   82.59    6.90
  -4  10  -4   78.39    6.60
  -5 -10  -4  171.18   11.70
   5 -10   4  171.38   12.70
   5 -10   4  179.28   10.50
  -5  10  -4  173.68   11.00
   5  10   4  195.28   11.80
   6 -10   4    8.60    3.40
  -6 -10  -4   11.70    4.70
  -6  10  -4   12.70    3.80
   6  10   4    3.20    3.80
  -7 -10  -4   30.30    5.90
  -7  10  -4   29.80    5.70
  -7  10  -4   24.30    5.00
   7  10   4   19.70    4.90
  -8 -10  -4   23.20    6.00
   8 -10   4   26.70    6.40
  -8  10  -4   30.50    5.80
   8  10   4   21.50    6.00
  -8  10  -4   35.50   10.80
  -9 -10  -4   -5.50    4.60
  -9  10  -4    3.90    4.30
   9  10   4    0.90    4.90
 -10 -11   4   40.50    7.60
 -10  11   4   45.30    7.40
  10  11  -4   44.30    7.00
 -10  11   4   48.10    5.80
  -9  11   4   20.70    8.30
   9  11  -4   31.10    5.60
  -9  11   4   31.40    4.20
  -8 -11   4  118.79   11.20
  -8  11   4  134.79    8.00
   8  11  -4  117.59   10.10
  -8  11   4  144.99   10.40
  -7 -11   4    0.70    3.30
  -7  11   4    4.30    1.80
   7  11  -4    1.70    3.30
  -7  11   4    3.50    2.70
  -6 -11   4  113.19    9.90
  -6  11   4  112.89    6.30
   6  11  -4  104.99    8.60
  -5 -11   4   -2.80    2.80
   5  11  -4    2.10    2.80
  -5  11   4   -0.20    1.20
  -4 -11   4  129.89    9.20
  -4 -11   4  138.29   10.60
   4 -11  -4  157.08   10.50
   4  11  -4  130.79    9.20
   3 -11  -4    0.50    2.80
  -3 -11   4    1.00    3.10
   2 -11  -4   47.20    5.60
  -2 -11   4   59.09    7.60
  -2 -11   4   45.90    4.60
  -2  11   4   41.20    3.50
  -1 -11   4   -1.00    2.00
  -1 -11   4   -0.10    1.40
   1 -11  -4   -1.00    1.90
  -1  11   4    0.70    1.70
   0 -11  -4   20.70    4.10
   0 -11   4   15.90    4.60
   0 -11   4   11.10    2.60
   0 -11  -4   12.50    1.80
   0  11   4   19.20    3.00
  -1 -11  -4   -2.70    2.10
   1 -11   4    3.40    2.10
   1  11   4   -0.10    2.30
  -1  11  -4    0.50    1.50
   2 -11   4    4.40    2.80
   2 -11   4    0.00    1.40
  -2 -11  -4    2.00    2.40
  -2  11  -4    4.50    2.50
   2  11   4    3.40    2.30
  -3 -11  -4    8.30    3.10
   3 -11   4   10.30    3.80
   3 -11   4    8.60    2.70
   3  11   4   10.50    3.40
  -3  11  -4   10.70    3.20
   4 -11   4    4.10    3.20
  -4 -11  -4    3.20    3.40
   4 -11   4    5.60    2.50
  -4  11  -4    7.90    3.00
   4  11   4    8.20    3.10
  -5 -11  -4    6.20    3.60
   5 -11   4    3.00    2.40
   5 -11   4   -0.50    2.50
  -5  11  -4    0.70    2.60
   5  11   4   -1.30    3.30
   6 -11   4   -0.90    3.80
  -6 -11  -4    1.90    3.70
  -6  11  -4    1.30    3.00
   6  11   4    2.30    4.00
  -7 -11  -4    6.70    4.20
   7 -11   4    6.30    4.50
   7  11   4   -1.20    4.20
  -7  11  -4    1.00    3.70
  -7  11  -4   -0.30    4.10
  -8 -11  -4   31.00    6.50
  -8  11  -4   38.50    7.60
   8  11   4   27.50    6.20
 -10 -12   4   -3.20    3.70
 -10  12   4    6.80    4.70
  10  12  -4   -4.50    5.20
  -9 -12   4    8.90    4.80
  -9  12   4   22.30    5.80
  -9  12   4   12.10    4.10
   9  12  -4   23.60    6.20
  -8 -12   4    4.70    3.50
  -8  12   4    4.70    2.50
   8  12  -4   -4.20    4.10
  -8  12   4    7.00    4.60
  -7 -12   4   16.60    5.10
  -7  12   4   40.80    6.00
  -7  12   4   35.30    3.70
  -6 -12   4    0.60    3.40
  -6  12   4    4.60    1.90
   6  12  -4    4.20    4.10
  -5 -12   4   26.90    4.70
   5 -12  -4   28.40    5.90
  -5 -12   4   27.80    5.40
   5  12  -4   27.90    4.90
  -4 -12   4   30.60    5.00
  -4 -12   4   31.80    6.60
   4 -12  -4   23.90    5.30
  -3 -12   4  112.09    9.90
   3 -12  -4  106.39    8.90
  -3 -12   4  108.09    7.90
  -2 -12   4  118.19    9.80
  -2 -12   4  115.69    8.00
   2 -12  -4  127.49    9.50
  -2  12   4  113.99    6.80
  -1 -12   4  103.59    9.60
   1 -12  -4  117.69    9.80
  -1 -12   4  102.09    7.40
  -1  12   4  113.59    6.70
   0 -12   4    4.80    3.40
   0 -12   4    0.60    2.00
   0  12   4    0.90    2.30
   1 -12   4  170.48   12.30
  -1  12  -4  173.88   10.60
   1  12   4  174.28   10.00
   2 -12   4   33.80    4.40
   2 -12   4   39.40    7.70
  -2 -12  -4   30.40    5.80
  -2  12  -4   33.70    4.80
   2  12   4   38.70    5.00
   3 -12   4  277.97   16.70
  -3 -12  -4  252.27   15.00
   3 -12   4  242.88   13.40
  -3  12  -4  235.48   13.90
   3  12   4  244.88   13.80
   4 -12   4   -2.40    3.10
   4 -12   4    3.90    2.60
  -4 -12  -4    3.50    2.90
  -4  12  -4    5.60    2.80
   4  12   4    1.00    2.90
   5 -12   4  113.79    8.00
   5 -12   4  109.79   10.00
  -5 -12  -4   94.29    9.10
  -5  12  -4   99.79    8.30
   5  12   4   91.29    8.40
   6 -12   4   41.50    5.50
  -6 -12  -4   30.20    6.40
  -6  12  -4   21.80    4.70
   6  12   4   21.70    4.80
   7 -12   4   54.59    7.10
  -7 -12  -4   59.29    8.40
   7  12   4   45.10    7.00
  -7  12  -4   58.69    6.80
  -8 -12  -4   23.10    6.20
  -8  12  -4   19.70    5.80
   8  12   4   18.80    5.50
  -9 -13   4   29.60    6.90
  -9  13   4   27.70    4.30
   9  13  -4   16.80    5.90
  -9  13   4   26.80    5.20
  -8 -13   4  117.59   11.80
   8  13  -4  124.59   10.60
  -8  13   4  133.69    9.10
  -8  13   4  128.89   11.10
  -7 -13   4    2.80    4.70
   7  13  -4    1.60    3.60
  -7  13   4    3.80    3.40
  -6 -13   4   67.49    7.00
  -6 -13   4   71.99    8.70
  -6  13   4   70.29    4.90
   6  13  -4   61.39    7.70
  -5 -13   4   -0.30    2.70
   5 -13  -4    3.80    3.30
  -5 -13   4    1.70    3.70
   5  13  -4   -3.60    2.80
  -4 -13   4   24.30    5.60
  -4 -13   4   23.00    4.20
   4 -13  -4   23.80    5.40
   3 -13  -4    2.90    3.20
  -3 -13   4    1.20    3.80
  -3 -13   4    2.30    2.40
   2 -13  -4   40.80    6.40
  -2 -13   4   51.39    8.20
  -2 -13   4   26.80    4.50
  -2  13   4   31.10    3.40
  -1 -13   4   24.40    3.90
  -1 -13   4   33.50    6.90
   1 -13  -4   36.60    6.40
  -1  13   4   31.00    4.10
   0 -13  -4   20.00    2.30
   0 -13  -4   22.20    4.90
   0 -13   4   24.90    5.30
   0  13   4   24.20    3.90
  -1 -13  -4   18.90    2.90
   1 -13   4   28.10    4.20
  -1 -13  -4   35.30    6.00
   1 -13   4   35.70    6.30
   1  13   4   25.60    4.00
   2 -13   4    0.10    2.00
  -2 -13  -4   -2.40    2.80
   2 -13   4    3.40    2.80
  -2  13  -4   -1.30    2.00
   2  13   4    1.80    2.30
  -3 -13  -4   -0.10    2.80
   3 -13   4    2.20    2.70
   3 -13   4    1.90    2.30
  -3  13  -4    3.90    2.70
   3  13   4    4.90    2.80
  -4 -13  -4   13.60    4.80
   4 -13   4   11.10    5.10
   4 -13   4    8.50    3.60
  -4  13  -4   11.10    3.20
   4  13   4    6.10    3.50
   5 -13   4    8.80    4.40
  -5 -13  -4    6.10    4.00
   5 -13   4    9.40    3.80
   5  13   4    5.10    3.50
  -5  13  -4    3.30    3.30
   6 -13   4    2.00    4.40
  -6 -13  -4   19.70    5.30
   6  13   4   13.80    4.60
  -6  13  -4   15.60    4.20
  -7 -13  -4    3.40    4.60
   7  13   4    5.50    4.60
  -9 -14   4    8.50    5.10
   9  14  -4   10.00    5.50
  -9  14   4    4.60    3.80
  -9  14   4    7.30    3.30
  -8 -14   4    6.70    4.30
   8  14  -4   -0.30    4.00
  -8  14   4    4.50    2.40
  -8  14   4    1.50    3.50
  -7 -14   4   -3.60    3.10
   7  14  -4    3.70    4.20
  -7  14   4   -0.60    2.00
  -6 -14   4    2.80    3.00
  -6 -14   4    1.70    3.70
   6  14  -4    8.70    4.40
  -5 -14   4   10.10    5.50
  -5 -14   4    3.30    3.50
   5 -14  -4    5.20    3.90
   5  14  -4    9.70    4.20
   4 -14  -4    7.70    3.50
  -4 -14   4   10.60    4.40
  -4 -14   4    4.60    5.10
  -3 -14   4   67.49    6.40
   3 -14  -4   68.49    7.80
  -3 -14   4   83.19    8.70
   2 -14  -4   13.00    4.30
  -2 -14   4    5.30    2.80
  -2 -14   4   13.10    4.50
  -2  14   4    8.80    2.50
   1 -14  -4   99.29    9.10
  -1 -14   4   96.19    9.40
  -1  14   4  100.09    6.70
   0 -14   4    9.80    2.70
   0 -14   4    7.90    4.00
   0 -14  -4    0.40    3.10
   0  14   4    6.40    2.70
   1 -14   4   44.60    5.50
   1 -14   4   51.49    8.10
  -1 -14  -4   36.10    3.90
  -1 -14  -4   41.40    6.40
   1  14   4   44.50    5.40
   2 -14   4   32.50    6.20
  -2 -14  -4   32.90    5.70
   2 -14   4   38.10    5.30
  -2  14  -4   32.60    4.80
   2  14   4   39.50    5.40
  -3 -14  -4   53.19    7.80
   3 -14   4   49.99    8.70
   3 -14   4   45.60    5.60
  -3  14  -4   43.20    6.20
   3  14   4   32.80    5.50
   4 -14   4    6.40    3.40
  -4 -14  -4    5.40    3.80
   4 -14   4   10.10    4.50
   4  14   4    6.60    3.90
  -4  14  -4    6.60    3.10
  -5 -14  -4   58.39    8.40
   5 -14   4   43.70    5.90
   5 -14   4   46.80    8.20
  -5  14  -4   48.10    6.50
   5  14   4   38.40    5.80
  -6 -14  -4   -0.40    4.40
   6  14   4    0.70    3.60
  -6  14  -4    7.50    3.90
  -7 -14  -4   22.20    6.40
   7  14   4   11.90    5.20
  -8 -15   4    4.80    5.00
  -8  15   4    6.30    4.80
   8  15  -4   -3.70    4.70
  -8  15   4    0.90    2.60
  -7 -15   4   28.30    7.20
  -7 -15   4   30.00    6.70
   7  15  -4   42.80    6.70
  -6 -15   4   23.90    6.30
  -6 -15   4   32.00    6.40
   6  15  -4   18.60    5.10
   5 -15  -4   61.39    8.90
  -5 -15   4   58.19    8.80
  -5 -15   4   49.30    7.00
  -4 -15   4   15.60    5.10
  -4 -15   4    8.10    3.20
   4 -15  -4   10.90    4.30
  -3 -15   4   18.50    4.40
  -3 -15   4   33.50    6.60
   3 -15  -4   24.10    5.50
  -2 -15   4   18.10    4.60
  -2 -15   4   17.70    3.60
   2 -15  -4   20.10    5.20
  -1 -15   4    0.40    3.50
   1 -15  -4    1.30    3.10
  -1 -15   4   -1.80    1.80
  -1  15   4   -2.80    1.80
   0 -15  -4    1.10    2.90
   0 -15   4   -0.10    2.90
   0 -15   4   -3.20    2.10
   0  15   4    1.20    2.20
   1 -15   4   -2.00    2.50
   1 -15   4    1.50    2.40
  -1 -15  -4   -2.00    2.90
   1  15   4   -2.50    2.70
   2 -15   4    8.30    4.30
  -2 -15  -4    5.50    3.50
   2 -15   4    9.30    3.50
   2  15   4    6.30    2.80
  -3 -15  -4   -2.10    3.50
   3 -15   4    0.30    3.10
   3 -15   4    2.00    3.00
  -3  15  -4    0.80    2.50
   3  15   4   -0.50    3.10
   4 -15   4   -2.10    3.40
  -4 -15  -4    5.70    4.10
  -4  15  -4   -2.70    2.80
   4  15   4   -2.50    3.30
   5 -15   4    5.70    4.50
  -5 -15  -4   -4.00    4.30
  -5  15  -4    7.40    3.50
  -6 -15  -4   -9.10    4.00
   6  15   4    1.20    4.10
  -7 -16   4   -4.10    4.50
  -7 -16   4   -0.70    5.20
   7  16  -4   -2.60    4.50
  -6 -16   4   21.80    5.50
  -6 -16   4   21.30    6.00
  -5 -16   4    6.70    5.20
   4 -16  -4   77.19   10.50
  -4 -16   4   80.29    8.00
  -4 -16   4   58.29   11.70
  -3 -16   4   45.20    8.60
   3 -16  -4   37.40    6.90
  -3 -16   4   43.90    6.50
  -2 -16   4   50.89    8.50
   2 -16  -4   57.09    8.00
  -1 -16   4    1.10    2.90
   1 -16  -4   -4.60    3.60
  -1 -16   4    1.60    3.40
  -1  16   4    0.20    2.50
   0 -16   4   68.29    6.50
   0 -16  -4   99.79    8.90
   0 -16   4   91.39    9.80
   0  16   4   80.29    6.60
   1 -16   4    1.20    3.00
  -1 -16  -4    3.50    3.60
   1 -16   4    3.20    3.00
   1  16   4    2.30    3.00
   2 -16   4  145.29   10.10
  -2 -16  -4  162.68   12.40
   2  16   4  144.69   13.50
   3 -16   4    5.20    3.80
  -3 -16  -4    6.90    4.80
   3 -16   4    5.20    4.50
  -3  16  -4   12.00    3.60
   3  16   4    7.00    4.30
   4 -16   4   29.60    7.00
  -4 -16  -4   24.60    6.10
   4  16   4   14.50    4.30
  -4  16  -4   21.00    4.60
   5 -16   4    4.70    4.20
  -5 -16  -4   -1.30    4.40
   5  16   4   -0.60    4.10
  -6 -17   4   30.10    7.50
  -6 -17   4    6.70    5.50
   5 -17  -4  113.79   11.40
  -5 -17   4   93.59    9.90
  -5 -17   4  139.19   12.80
   4 -17  -4    1.70    4.30
  -4 -17   4   -0.70    4.40
  -4 -17   4   -2.40    3.60
   3 -17  -4    8.70    4.90
  -3 -17   4    4.70    3.40
   2 -17  -4   13.90    5.30
  -2 -17   4    1.90    3.70
  -2 -17   4    5.80    3.50
   1 -17  -4    9.00    4.50
  -1 -17   4    9.70    3.80
  -1 -17   4   12.30    5.20
  -1  17   4   12.00    3.40
   0 -17   4   -2.00    3.00
   0 -17  -4    8.10    3.40
   0 -17   4   -2.80    2.30
   0  17   4    0.50    2.40
  -1 -17  -4    9.30    4.80
   1 -17   4    7.50    3.90
   1 -17   4   11.30    4.30
   1  17   4    6.00    3.20
   2 -17   4    2.20    6.80
  -2 -17  -4    3.10    4.40
   2 -17   4   -3.20    3.90
   2  17   4    3.20    3.30
   3 -17   4    0.80    3.80
  -3 -17  -4    7.30    4.40
   3  17   4    2.30    3.10
   4 -17   4    0.90    4.00
  -4 -17  -4    3.60    5.70
   4  17   4    2.00    3.70
   4 -18  -4   17.50    6.00
  -4 -18   4   19.60    5.90
   3 -18  -4   12.70    5.40
  -3 -18   4   21.60    7.30
   2 -18  -4    3.10    4.20
  -2 -18   4   10.60    5.60
  -1 -18   4   38.20    8.60
   0 -18   4   85.79    9.80
   0  18   4   75.19    6.70
   1 -18   4   23.10    6.60
   1  18   4   19.50    4.40
  -2 -18  -4   18.80    9.90
   2 -18   4   25.70    7.00
   2  18   4   14.20    4.40
 -13   0   5   14.20    5.60
 -12   0   5   -4.70    4.40
  12   0  -5    5.60    5.60
 -12   0   5   -2.20    3.60
 -11   0   5   10.50    3.90
 -11   0   5   13.70    4.70
  11   0  -5   14.00    4.50
 -10   0   5    5.20    3.00
 -10   0   5    2.30    2.60
  10   0  -5    1.50    3.10
  -9   0   5   12.40    3.80
   9   0  -5   15.40    3.10
  -9   0   5   19.30    3.50
  -8   0   5    0.80    2.00
  -8   0   5    2.60    2.00
   8   0  -5    1.70    2.60
  -7   0   5   12.80    3.50
   7   0  -5   15.90    3.90
  -7   0   5   11.40    2.30
   6   0  -5    1.70    1.40
  -6   0   5   -0.60    1.50
  -6   0   5    2.40    1.60
   6   0  -5   -1.30    1.80
  -5   0   5   15.10    2.10
  -5   0   5    9.70    2.20
   5   0  -5   10.60    2.10
   4   0  -5    0.80    1.30
  -4   0   5    2.20    1.50
  -4   0   5   -1.00    1.00
   3   0  -5   75.09    4.50
  -3   0   5   73.89    4.70
  -2   0   5    0.50    0.90
   2   0  -5    0.60    1.10
  -2   0   5   -0.80    1.10
  -1   0   5  860.51   39.00
   1   0  -5  879.51   39.50
  -1   0   5  904.71   39.60
   1   0  -5  945.91   38.90
   0   0   5    2.10    1.20
   0   0   5    1.80    0.60
   0   0  -5    2.90    1.40
   0   0  -5    1.00    0.50
  -1   0  -5  148.59    7.90
   1   0   5  151.28    8.00
  -1   0  -5  129.79    6.80
  -1   0  -5  152.88    6.70
   2   0   5    0.20    1.60
  -2   0  -5    0.40    1.30
  -2   0  -5    0.90    0.70
  -3   0  -5  947.71   41.00
  -3   0  -5  925.81   41.50
  -3   0  -5  915.01   42.10
   3   0   5  934.61   42.00
  -4   0  -5   -0.40    2.00
  -4   0  -5   -0.10    1.40
  -4   0  -5   -0.40    1.40
   4   0   5   -0.10    2.00
   5   0   5  187.48   10.70
  -5   0  -5  176.18    9.90
  -5   0  -5  185.48   10.80
  -5   0  -5  179.08   10.40
  -6   0  -5   -0.70    2.80
  -6   0  -5    0.40    3.30
   6   0   5    1.30    2.70
  -6   0  -5    1.20    1.90
  -7   0  -5  126.69    9.30
   7   0   5  137.49    9.50
  -7   0  -5  128.69    8.80
  -8   0  -5    0.00    3.20
   8   0   5    1.40    3.60
   9   0   5   40.00    6.30
  -9   0  -5   26.70    5.10
 -10   0  -5   -0.60    4.00
  10   0   5    1.10    5.90
 -13  -1   5   23.60    6.60
 -13   1   5    4.10    4.70
  12  -1  -5   23.00    6.40
 -12  -1   5   26.30    5.60
 -12  -1   5   29.30    6.20
  12   1  -5   23.50    6.60
 -12   1   5   27.40    6.10
 -12   1   5   24.40    5.50
 -11  -1   5   35.40    6.10
  11  -1  -5   44.70    5.70
 -11  -1   5   42.60    6.60
 -11   1   5   36.90    5.60
  11   1  -5   40.20    6.30
 -11   1   5   62.59    8.50
 -10  -1   5  320.67   17.30
 -10  -1   5  329.17   18.80
  10  -1  -5  334.27   16.40
 -10   1   5  316.97   16.90
 -10   1   5  327.27   18.40
  10   1  -5  314.17   19.10
   9  -1  -5  150.58    8.70
  -9  -1   5  143.89    9.50
  -9  -1   5  161.88   11.00
  -9   1   5  145.59    9.20
   9   1  -5  168.28    9.30
  -9   1   5  149.29   10.40
  -8  -1   5  201.18   12.20
  -8  -1   5  213.38   11.10
   8  -1  -5  204.98   10.50
   8   1  -5  201.38   10.80
  -8   1   5  188.88   11.80
  -8   1   5  181.28   10.60
  -7  -1   5  126.59    7.80
  -7  -1   5  142.99    9.00
   7  -1  -5  134.79    7.20
   7   1  -5  129.49    7.60
  -7   1   5  125.29    7.50
   6  -1  -5    0.50    1.80
  -6  -1   5    4.50    2.00
  -6  -1   5    1.90    1.60
  -6   1   5    4.60    2.20
   6   1  -5    2.10    1.60
  -6   1   5    2.70    1.70
   6   1  -5    3.50    1.90
  -5  -1   5   62.79    4.30
   5  -1  -5   56.29    4.40
  -5  -1   5   68.19    5.00
  -5   1   5   58.39    3.90
  -5   1   5   56.39    4.60
   5   1  -5   56.89    4.50
  -4  -1   5  143.39    7.70
  -4  -1   5  148.59    8.10
   4  -1  -5  137.89    7.70
   4   1  -5  141.59    7.90
  -4   1   5  146.89    7.30
  -4   1   5  141.89    7.90
  -3  -1   5   -0.70    1.00
   3  -1  -5    1.20    1.00
   3   1  -5   -0.80    0.90
  -3   1   5    1.50    1.10
  -2  -1   5  143.79    7.60
  -2  -1   5  149.29    7.90
  -2   1   5  141.39    7.10
  -2   1   5  141.89    7.20
   2   1  -5  147.79    7.30
  -1  -1   5    2.20    1.10
  -1  -1   5    3.30    1.50
   1  -1  -5    1.80    1.00
   1   1  -5    1.40    1.20
   1   1  -5    3.50    1.00
  -1   1   5    2.20    1.10
  -1   1   5    1.70    0.70
   0  -1   5  238.18   10.90
   0  -1   5  245.68   11.60
   0  -1  -5  231.88   11.20
   0   1  -5  228.08   11.40
   0   1   5  225.58   11.40
   0   1  -5  234.18   10.80
   1  -1   5   20.60    1.80
   1  -1   5   14.50    2.30
  -1  -1  -5   16.30    1.10
  -1  -1  -5   15.70    1.20
  -1  -1  -5   16.80    2.30
  -1   1  -5   17.70    1.90
   1   1   5   17.10    2.60
  -1   1  -5   18.50    2.50
  -2  -1  -5   27.10    2.00
  -2  -1  -5   24.00    2.20
   2  -1   5   27.70    3.20
  -2  -1  -5   26.60    3.20
  -2   1  -5   21.90    2.60
   2   1   5   28.10    3.20
  -2   1  -5   25.30    3.00
   3  -1   5   77.09    5.60
  -3  -1  -5   82.19    5.60
  -3  -1  -5   75.79    4.70
  -3   1  -5   79.19    4.80
  -3   1  -5   75.39    5.70
  -3   1  -5   78.79    5.40
   3   1   5   83.29    5.70
  -4  -1  -5   24.20    3.00
   4  -1   5   25.50    3.60
  -4  -1  -5   23.30    3.50
   4   1   5   29.00    3.80
  -4   1  -5   15.50    2.90
  -4   1  -5   24.90    3.00
  -4   1  -5   26.30    3.70
  -5  -1  -5    6.50    2.20
   5  -1   5    6.40    2.50
  -5   1  -5    8.00    2.40
   5   1   5   10.40    2.90
  -5   1  -5    8.30    2.80
  -5   1  -5    7.50    2.70
   6  -1   5   19.80    3.80
  -6  -1  -5   17.50    3.20
  -6  -1  -5   25.00    4.40
  -6   1  -5   27.90    4.30
   6   1   5   27.00    4.50
  -6   1  -5   14.50    4.00
  -6   1  -5   25.50    4.40
  -7  -1  -5    9.90    3.10
  -7  -1  -5    8.70    3.80
   7  -1   5    9.00    3.40
   7   1   5    8.00    3.70
  -7   1  -5    4.00    3.60
  -7   1  -5    8.90    3.50
   8  -1   5   38.30    6.00
  -8  -1  -5   41.80    5.90
  -8   1  -5   47.50    6.30
   8   1   5   43.10    6.20
  -8   1  -5   29.20    5.70
  -9  -1  -5   -4.70    3.40
   9  -1   5   -1.80    3.90
  -9   1  -5   -1.20    3.40
   9   1   5    4.00    4.30
  10  -1   5   -2.10    5.10
 -10  -1  -5    3.30    3.90
 -10   1  -5   -1.20    4.00
  10   1   5   -3.40    6.10
 -13  -2   5    9.10    5.20
 -13   2   5    0.40    3.50
 -12  -2   5   17.90    5.20
  12  -2  -5    4.70    6.30
 -12  -2   5   10.30    5.80
 -12   2   5   -1.80    4.10
 -12   2   5    6.80    4.80
  12   2  -5    3.70    8.50
 -11  -2   5    3.60    3.50
 -11  -2   5   -5.80    5.50
  11  -2  -5    3.30    5.10
 -11   2   5    2.80    3.80
 -11   2   5    6.10    3.10
  11   2  -5   -4.50    3.80
 -10  -2   5   23.40    4.30
 -10  -2   5   12.70    5.20
  10  -2  -5   19.20    3.50
 -10   2   5   11.70    4.50
  10   2  -5   16.10    4.00
 -10   2   5   19.50    3.30
   9  -2  -5   45.30    4.30
  -9  -2   5   25.90    5.20
  -9  -2   5   35.60    4.60
  -9   2   5   33.60    4.50
   9   2  -5   53.69    5.20
  -9   2   5   28.40    4.50
   8  -2  -5    8.00    2.10
  -8  -2   5    6.00    3.10
  -8  -2   5    6.20    2.60
   8   2  -5    8.50    2.50
  -8   2   5    6.00    2.50
  -8   2   5   10.80    2.50
  -7  -2   5    0.80    2.20
  -7  -2   5    1.50    2.10
  -7   2   5    1.40    1.90
  -7   2   5    0.00    1.60
   7   2  -5   -2.00    1.30
   6  -2  -5  109.29    7.10
  -6  -2   5  104.49    7.50
  -6  -2   5  119.59    7.00
  -6   2   5  111.39    7.30
  -6   2   5  120.39    6.40
   6   2  -5   88.69    6.90
   5  -2  -5    4.40    1.70
  -5  -2   5    7.00    2.10
  -5  -2   5    8.10    2.30
   5   2  -5    6.20    2.20
  -5   2   5    1.90    1.10
  -5   2   5    2.40    1.70
  -4  -2   5    3.80    1.60
  -4  -2   5    5.80    1.80
   4  -2  -5    7.20    1.80
  -4   2   5    4.20    1.20
   4   2  -5    1.10    1.20
  -4   2   5    6.40    1.70
  -3  -2   5  289.77   14.60
  -3  -2   5  297.67   14.70
  -3  -2   5  324.07   14.60
  -3   2   5  306.47   14.30
   3   2  -5  305.27   14.60
  -2  -2   5  310.47   14.80
  -2  -2   5  300.27   14.60
  -2   2   5  323.47   14.10
  -2   2   5  298.27   14.00
   2   2  -5  307.57   14.40
  -1  -2   5  477.75   21.50
   1  -2  -5  457.55   20.70
   1   2  -5  481.45   21.40
  -1   2   5  487.65   20.30
  -1   2   5  435.36   20.40
  -1   2   5  463.55   20.90
   1   2  -5  453.35   20.90
   0  -2   5   69.79    4.50
   0  -2   5   65.69    4.10
   0  -2  -5   61.09    4.00
   0   2  -5   70.89    4.50
   0   2   5   68.09    4.30
   0   2  -5   66.59    4.50
   1  -2   5  160.78    8.50
  -1  -2  -5  136.39    6.80
  -1  -2  -5  148.89    8.00
   1   2   5  162.68    8.20
  -1   2  -5  153.98    8.30
  -1   2  -5  161.38    8.00
  -2  -2  -5   31.90    2.30
   2  -2   5   30.60    3.50
  -2  -2  -5   41.10    3.40
  -2   2  -5   32.80    3.50
  -2   2  -5   27.90    3.00
   2   2   5   34.80    3.50
   2   2   5   31.10    2.20
  -3  -2  -5  804.32   36.60
   3  -2   5  812.72   36.70
  -3  -2  -5  805.72   35.70
  -3   2  -5  817.02   35.90
  -3   2  -5  807.92   36.80
  -3   2  -5  776.52   36.50
   3   2   5  813.12   35.50
   3   2   5  805.62   36.70
   4  -2   5   47.10    4.50
  -4  -2  -5   53.09    4.00
  -4   2  -5   49.10    4.00
  -4   2  -5   47.80    4.80
  -4   2  -5   53.49    4.70
   4   2   5   50.19    4.90
   4   2   5   49.10    3.70
  -5  -2  -5   17.70    3.80
   5  -2   5   22.70    3.70
  -5  -2  -5   17.00    3.10
  -5   2  -5   21.30    3.90
   5   2   5   18.10    2.90
   5   2   5   18.50    3.60
  -5   2  -5   21.00    3.20
  -5   2  -5   18.20    4.00
   6  -2   5  172.88   10.20
  -6  -2  -5  156.38   10.30
  -6  -2  -5  164.58    9.50
   6   2   5  159.28   10.10
  -6   2  -5  120.89   10.80
  -6   2  -5  172.98   10.10
  -6   2  -5  155.98    9.50
   7  -2   5    5.50    3.40
  -7  -2  -5    6.50    3.10
   7   2   5    7.90    3.60
  -7   2  -5    6.80    3.20
  -7   2  -5   12.30    3.80
  -8  -2  -5    9.60    3.80
   8  -2   5   15.00    4.10
   8   2   5    9.10    4.60
  -8   2  -5   14.00    4.60
  -8   2  -5    7.50    3.20
   9  -2   5   25.30    5.30
  -9  -2  -5   13.90    4.30
  -9   2  -5   17.50    4.90
   9   2   5    8.20    5.10
  -9   2  -5   27.90    6.00
  10  -2   5   27.00    6.60
 -10  -2  -5   26.60    5.70
 -10   2  -5   31.80    6.10
  10   2   5   24.80    6.80
 -12  -3   5    0.70    7.60
 -12  -3   5   11.20    5.10
 -12   3   5    8.80    4.60
  12   3  -5    0.80    5.30
 -12   3   5   10.30    4.40
 -11  -3   5   70.49    7.80
 -11  -3   5   69.69    8.00
  11  -3  -5   71.89    7.40
 -11   3   5   60.09    7.10
  11   3  -5   50.09    6.70
 -11   3   5   54.39    6.30
  10  -3  -5    0.20    3.60
 -10  -3   5   -0.40    3.80
 -10  -3   5    1.10    3.20
 -10   3   5    1.90    3.40
 -10   3   5   -0.40    2.60
  -9  -3   5  264.27   15.60
  -9  -3   5  260.47   15.20
   9  -3  -5  217.38   12.50
  -9   3   5  240.38   13.10
  -9   3   5  248.58   14.40
  -8  -3   5   62.69    5.80
  -8  -3   5   73.49    7.10
  -8   3   5   82.09    7.60
  -8   3   5   65.19    6.30
  -7  -3   5  189.18   10.60
  -7   3   5  177.48    9.60
  -7   3   5  210.58   11.40
   7   3  -5  170.18   10.80
  -6  -3   5    2.70    1.80
  -6  -3   5    2.50    1.90
  -6   3   5    0.00    1.70
   6   3  -5    1.80    1.40
   6   3  -5   -2.30    1.60
  -6   3   5    0.50    1.20
  -5  -3   5   96.39    6.20
  -5  -3   5   99.99    6.80
   5   3  -5   95.79    6.10
  -5   3   5   96.79    6.20
   5   3  -5   96.79    6.50
  -5   3   5   95.49    5.20
  -4  -3   5  126.09    7.50
  -4  -3   5  116.29    7.00
   4   3  -5  122.19    7.20
  -4   3   5  121.69    6.00
  -4   3   5  123.09    6.90
  -3  -3   5  722.13   32.70
  -3  -3   5  748.43   33.10
  -3  -3   5  725.13   32.80
  -3   3   5  739.23   32.90
  -3   3   5  699.33   32.20
   3   3  -5  717.73   32.70
  -2  -3   5  304.27   14.80
  -2  -3   5  317.27   14.90
  -2   3   5  303.17   13.80
   2   3  -5  300.67   14.50
  -2   3   5  297.97   14.40
  -1  -3   5  129.39    6.90
   1  -3  -5  121.89    5.90
  -1  -3   5  120.79    6.80
  -1   3   5  109.49    5.70
  -1   3   5  110.09    6.00
   1   3  -5  126.29    6.60
  -1   3   5  121.59    6.20
   1   3  -5  126.89    6.90
   0  -3   5    9.20    2.10
   0  -3   5    8.00    1.60
   0  -3  -5    6.60    1.40
   0   3   5    7.20    0.90
   0   3  -5    7.90    1.90
   0   3  -5    8.80    1.80
   0   3   5    7.00    1.50
  -1  -3  -5    5.20    1.10
   1  -3   5    3.90    1.40
   1  -3   5    4.80    1.60
  -1  -3  -5    5.30    1.50
  -1   3  -5    7.40    1.70
   1   3   5    9.00    2.10
   1   3   5    8.40    1.10
  -1   3  -5    6.40    1.80
   2  -3   5    3.30    1.80
  -2  -3  -5    2.00    1.60
   2  -3   5    4.60    1.60
  -2  -3  -5    3.60    1.10
  -2   3  -5    1.20    1.70
   2   3   5    5.30    1.10
   2   3   5    4.90    1.90
  -2   3  -5    3.90    2.00
  -3  -3  -5    0.20    1.10
   3  -3   5    0.90    1.90
  -3   3  -5    0.60    1.80
   3   3   5    1.70    1.70
   3   3   5   -0.30    1.20
  -3   3  -5    1.50    1.70
  -4  -3  -5    3.00    2.40
   4  -3   5    1.60    2.00
  -4  -3  -5    2.30    1.60
  -4   3  -5    2.40    2.00
   4   3   5    2.70    2.20
   4   3   5   -0.80    1.30
  -4   3  -5   -0.90    1.40
  -4   3  -5   -0.10    1.80
  -5  -3  -5    3.20    2.50
  -5  -3  -5    6.30    2.40
   5  -3   5    5.00    2.60
   5   3   5    3.10    2.20
   5   3   5    3.80    2.70
  -5   3  -5    2.50    2.80
  -5   3  -5    1.50    1.90
  -5   3  -5    6.00    2.90
  -6  -3  -5    2.20    2.10
   6  -3   5    1.70    2.60
   6   3   5    0.20    2.00
   6   3   5    3.90    2.60
  -6   3  -5   -4.20    2.80
  -6   3  -5    2.50    2.40
  -7  -3  -5    8.80    3.50
   7  -3   5   13.50    3.90
  -7   3  -5   12.50    3.70
   7   3   5   16.30    4.40
  -7   3  -5   12.90    3.50
  -8  -3  -5   -0.60    3.10
   8  -3   5   -1.50    3.10
   8   3   5    0.00    3.80
  -8   3  -5    0.80    2.40
   9  -3   5   53.69    7.20
  -9  -3  -5   67.89    7.30
  -9   3  -5   65.49    8.00
   9   3   5   53.69    7.60
  -9   3  -5   33.00    6.70
  10  -3   5    7.20    5.70
 -10  -3  -5   21.60    4.90
  10   3   5   12.40    6.70
 -10   3  -5   13.80    4.80
 -12  -4   5    1.90    4.50
 -12   4   5    7.90    4.20
 -11  -4   5    4.10    4.00
 -11  -4   5    1.20    4.60
 -11   4   5    6.90    3.60
 -11   4   5   10.70    4.10
  11   4  -5   11.50    5.60
 -10  -4   5    4.60    3.30
 -10  -4   5    1.30    3.60
 -10   4   5    2.30    2.70
 -10   4   5    6.60    3.00
  10   4  -5    4.60    3.30
  -9  -4   5    3.10    3.40
  -9  -4   5    0.30    2.80
   9   4  -5   -5.80    2.50
  -9   4   5    1.10    3.00
  -9   4   5   -2.40    1.80
  -8  -4   5   53.49    6.50
  -8  -4   5   69.89    6.20
  -8   4   5   62.29    4.90
  -8   4   5   52.69    5.70
   8   4  -5   65.59    5.70
  -7  -4   5    4.30    2.40
  -7  -4   5    5.60    2.90
   7   4  -5    2.40    1.80
  -7   4   5    4.50    1.80
  -6  -4   5   16.40    3.40
  -6  -4   5   28.50    4.80
   6   4  -5   33.30    3.70
  -6   4   5   19.80    4.10
  -6   4   5   31.70    2.60
  -6   4   5   30.50    3.70
  -5  -4   5    5.20    3.00
  -5  -4   5    7.50    2.70
   5   4  -5    5.30    2.10
   5   4  -5    7.80    2.10
  -5   4   5    8.30    1.40
  -5   4   5    6.90    2.00
  -4  -4   5   23.40    3.50
  -4  -4   5   20.30    3.30
  -4   4   5   24.80    2.80
   4   4  -5   24.40    3.30
  -4   4   5   24.60    3.60
  -4   4   5   25.00    1.70
  -3  -4   5   28.90    3.40
  -3  -4   5   33.40    3.20
  -3   4   5   28.40    2.70
  -3   4   5   29.90    3.10
   3   4  -5   27.10    3.10
  -2  -4   5  659.33   30.10
  -2  -4   5  681.73   29.90
  -2   4   5  662.13   28.60
   2   4  -5  637.04   29.70
  -2   4   5  629.04   29.40
   1  -4  -5  356.66   16.30
  -1  -4   5  368.26   17.60
  -1  -4   5  378.86   17.80
   1   4  -5  360.76   17.50
   1   4  -5  374.16   17.60
  -1   4   5  368.76   16.60
   0  -4  -5  738.43   33.90
   0  -4   5  789.32   35.10
   0  -4  -5  743.53   34.00
   0  -4   5  776.92   35.00
   0   4  -5  781.82   34.90
   0   4  -5  779.52   34.90
   0   4   5  797.42   34.30
   0   4   5  777.12   33.90
  -1  -4  -5    6.10    1.30
   1  -4   5    5.40    1.30
  -1  -4  -5    6.20    1.50
   1  -4   5    3.20    1.70
  -1   4  -5    5.10    1.70
   1   4   5    5.30    1.80
  -1   4  -5    3.80    1.60
   1   4   5    7.80    1.30
   2  -4   5  451.35   21.60
   2  -4   5  463.45   21.80
  -2  -4  -5  427.86   20.80
  -2  -4  -5  451.25   21.70
   2   4   5  465.45   20.40
   2   4   5  451.95   21.30
  -2   4  -5  467.95   21.90
  -2   4  -5  449.76   21.60
  -3  -4  -5  181.08    9.40
   3  -4   5  187.98   10.30
  -3  -4  -5  177.88   10.00
  -3   4  -5  179.58   10.40
   3   4   5  179.28    9.20
  -3   4  -5  191.58   10.60
   3   4   5  187.48   10.20
  -4  -4  -5   65.69    4.90
  -4  -4  -5   55.29    5.10
   4  -4   5   66.39    5.40
  -4   4  -5   66.49    5.50
   4   4   5   63.39    4.50
   4   4   5   67.99    5.40
  -4   4  -5   61.79    5.00
  -5  -4  -5   11.20    2.80
   5  -4   5    8.60    2.60
   5   4   5    2.80    2.10
  -5   4  -5    6.40    2.60
  -5   4  -5    1.90    2.60
   5   4   5    6.60    2.80
  -5   4  -5    7.40    2.90
   6  -4   5   59.09    6.10
  -6  -4  -5   62.19    5.70
  -6   4  -5   60.79    5.80
   6   4   5   63.09    6.20
  -6   4  -5   63.39    6.10
   6   4   5   54.99    5.10
  -7  -4  -5    3.50    3.00
   7  -4   5    2.20    3.40
   7   4   5    1.80    3.40
  -7   4  -5    7.70    4.20
  -7   4  -5    2.90    2.70
  -8  -4  -5   19.00    4.30
   8  -4   5   29.10    6.70
   8   4   5   29.50    5.60
  -8   4  -5   10.10    5.10
  -8   4  -5   18.90    4.30
  -9  -4  -5   -3.10    3.60
   9  -4   5   -3.90    6.80
   9   4   5    0.60    5.10
  -9   4  -5  -10.40    4.90
  -9   4  -5   -0.60    2.60
  10  -4   5   11.60    7.40
 -10  -4  -5   24.30    5.70
  10   4   5   23.40    7.00
 -10   4  -5   21.80    5.40
 -12  -5   5   32.50    7.10
  12   5  -5   14.50    6.50
 -12   5   5   14.50    4.80
 -12   5   5   19.60    4.30
 -11  -5   5   46.80    6.30
 -11  -5   5   50.09    7.70
  11   5  -5   49.20    6.30
 -11   5   5   42.80    5.30
 -11   5   5   36.40    5.70
 -10  -5   5    3.30    3.20
 -10  -5   5    4.60    4.20
 -10   5   5    4.70    3.00
  10   5  -5    0.20    3.70
 -10   5   5    1.90    3.00
  -9  -5   5    3.20    3.80
  -9  -5   5   -0.90    3.20
  -9   5   5   -2.30    2.40
  -9   5   5    0.90    2.10
   9   5  -5   -5.30    3.00
  -8  -5   5    6.40    3.80
  -8  -5   5    7.20    3.00
  -8   5   5    9.80    2.70
  -8   5   5    8.80    2.50
   8   5  -5   10.40    3.30
  -7  -5   5  381.96   19.90
  -7  -5   5  386.16   18.90
   7   5  -5  352.86   18.50
  -7   5   5  371.36   18.90
  -7   5   5  360.56   17.30
  -6  -5   5    0.40    2.00
  -6  -5   5    2.60    2.30
  -6   5   5    0.20    1.60
   6   5  -5   -0.40    1.90
  -6   5   5    3.50    1.40
  -5  -5   5   26.70    4.20
  -5  -5   5   25.60    3.50
  -5   5   5   28.00    4.00
  -5   5   5   27.10    4.20
  -5   5   5   27.70    2.10
   5   5  -5   33.00    4.10
   5   5  -5   29.80    3.80
  -4  -5   5  180.88   10.00
  -4  -5   5  193.38   10.80
  -4   5   5  177.68    9.80
   4   5  -5  186.68   10.40
  -4   5   5  187.88   10.60
  -3  -5   5   62.99    4.70
  -3  -5   5   57.79    4.80
  -3  -5   5   61.99    5.20
   3   5  -5   66.49    4.80
  -3   5   5   64.19    4.80
  -2  -5   5  104.59    6.20
  -2  -5   5   97.89    6.40
  -2  -5   5  106.29    6.80
  -2   5   5   98.39    6.10
   2   5  -5  100.69    6.40
  -2   5   5  101.39    5.00
  -1  -5   5  170.38    9.50
   1  -5  -5  160.58    7.50
  -1  -5   5  162.78    9.10
   1  -5  -5  173.98    8.60
   1   5  -5  168.88    9.20
   1   5  -5  152.98   10.10
  -1   5   5  161.98    8.10
  -1   5   5  163.28    8.50
   0  -5   5    7.90    1.90
   0  -5  -5    9.10    1.30
   0  -5  -5    8.50    1.50
   0  -5   5   13.00    2.60
   0   5   5   11.60    2.00
   0   5   5    7.10    1.60
   0   5  -5   10.80    2.40
   0   5  -5    6.60    2.10
  -1  -5  -5   66.19    4.40
  -1  -5  -5   69.59    5.30
   1  -5   5   64.79    5.10
   1  -5   5   72.39    5.40
   1   5   5   66.59    4.80
   1   5   5   68.89    4.20
  -1   5  -5   74.89    5.30
  -1   5  -5   76.39    5.20
   2  -5   5    9.40    2.10
  -2  -5  -5    3.30    1.60
  -2  -5  -5    5.70    2.00
   2   5   5    4.60    1.50
   2   5   5    3.20    2.20
  -2   5  -5    3.50    1.80
  -2   5  -5    6.50    2.30
   3  -5   5   12.70    2.80
   3  -5   5   13.10    2.70
  -3  -5  -5   16.10    2.60
  -3  -5  -5   12.60    2.70
  -3   5  -5   23.20    3.60
   3   5   5   11.90    2.90
  -3   5  -5   15.70    3.30
   3   5   5   19.80    2.80
  -4  -5  -5    4.30    2.10
   4  -5   5    1.80    2.20
  -4   5  -5    3.10    2.20
  -4   5  -5    2.20    2.30
   4   5   5    0.20    2.20
   4   5   5   -0.10    1.50
   5  -5   5    7.00    2.40
  -5  -5  -5    3.60    2.30
   5   5   5    5.80    2.30
  -5   5  -5    2.90    2.90
   5   5   5    4.10    2.70
  -5   5  -5    6.90    2.40
   6  -5   5    3.20    3.00
  -6  -5  -5    6.60    2.90
   6   5   5   -0.70    2.20
  -6   5  -5    1.20    2.40
   6   5   5    1.60    2.90
  -6   5  -5    4.50    3.40
  -7  -5  -5    6.70    3.80
   7  -5   5   11.20    3.30
  -7   5  -5    6.20    2.90
   7   5   5    9.90    4.20
  -7   5  -5    3.30    3.30
   8  -5   5   22.80    5.20
  -8  -5  -5   34.40    5.60
  -8   5  -5   44.70    6.00
   8   5   5   32.30    7.90
  -8   5  -5   39.60    5.70
  -9  -5  -5    0.50    4.20
   9  -5   5   -4.70    4.60
   9   5   5   10.20    5.20
  -9   5  -5    0.80    5.70
  -9   5  -5    0.60    3.50
  10  -5   5    3.90    6.80
 -10  -5  -5    0.50    4.30
 -10   5  -5   -6.20    4.00
  10   5   5   -5.60    5.80
 -12  -6   5   -3.50    4.30
 -12   6   5   -0.80    4.00
 -12   6   5    5.20    4.00
  12   6  -5  -11.80    5.40
 -11  -6   5    4.50    4.70
 -11  -6   5   -2.90    7.10
 -11   6   5    5.50    7.20
  11   6  -5    3.70    4.40
 -11   6   5    1.30    3.20
 -10  -6   5   11.00    4.70
 -10  -6   5    6.60    4.30
 -10   6   5    4.10    3.00
  10   6  -5    6.90    3.90
 -10   6   5    5.90    3.40
  -9  -6   5    0.00    3.30
  -9  -6   5    7.20    3.50
  -9   6   5    2.60    2.40
  -9   6   5    2.90    3.20
  -8  -6   5    1.80    3.00
  -8  -6   5    3.10    3.50
  -8   6   5    8.40    2.20
   8   6  -5    9.60    5.40
  -8   6   5    9.40    3.20
  -7  -6   5    6.80    3.70
  -7  -6   5    3.50    2.40
  -7   6   5    5.10    1.60
   7   6  -5    5.60    2.80
  -7   6   5    4.30    2.50
  -6  -6   5   12.90    3.10
  -6  -6   5   14.20    4.40
   6   6  -5   15.20    3.00
  -6   6   5   10.20    2.60
  -6   6   5   13.10    1.90
  -5  -6   5  122.39    8.60
  -5  -6   5  120.59    7.70
   5   6  -5  131.39    7.90
  -5   6   5  120.29    7.70
  -5   6   5  114.69    8.40
  -5   6   5  123.79    5.80
  -4  -6   5  163.18   10.30
  -4  -6   5  176.08    9.80
  -4   6   5  173.08    9.40
  -4   6   5  164.08   10.10
   4   6  -5  171.58   10.00
  -3  -6   5   42.60    4.50
  -3  -6   5   45.00    4.10
  -3  -6   5   41.00    4.00
  -3   6   5   32.80    3.70
   3   6  -5   40.40    4.50
  -2  -6   5  182.28   10.20
  -2  -6   5  194.58   10.10
   2  -6  -5  200.48   10.30
  -2  -6   5  183.48   10.70
  -2   6   5  188.38    8.60
  -2   6   5  168.88    9.90
   2   6  -5  186.18   10.30
  -1  -6   5  472.35   22.30
  -1  -6   5  458.55   21.60
   1  -6  -5  433.36   21.30
  -1   6   5  437.86   21.20
   1   6  -5  452.95   21.60
   1   6  -5  456.45   21.90
  -1   6   5  461.45   20.40
   0  -6  -5  379.36   18.00
   0  -6   5  364.26   18.40
   0  -6   5  391.06   19.10
   0  -6  -5  352.96   17.10
   0   6   5  391.16   17.50
   0   6  -5  385.56   18.80
   0   6   5  371.26   17.70
   0   6  -5  389.96   18.50
  -1  -6  -5  206.58   10.60
  -1  -6  -5  205.08   10.20
   1  -6   5  206.78   11.70
   1  -6   5  210.18   11.20
  -1   6  -5  195.48   11.30
  -1   6  -5  202.28   11.10
   1   6   5  209.68   10.60
   1   6   5  202.58   10.20
  -2  -6  -5  745.13   34.30
   2  -6   5  778.62   35.80
  -2  -6  -5  738.43   34.30
   2  -6   5  766.02   35.00
   2   6   5  756.32   34.00
  -2   6  -5  748.33   36.20
   2   6   5  784.62   34.60
  -2   6  -5  765.92   35.00
   3  -6   5  171.08   10.40
  -3  -6  -5  163.08    9.30
   3  -6   5  169.18    9.60
   3   6   5  164.38    9.70
  -3   6  -5  174.68   10.40
  -3   6  -5  170.78    9.80
   3   6   5  161.88    8.90
  -4  -6  -5   44.40    4.50
   4  -6   5   42.90    4.40
  -4   6  -5   46.30    5.40
   4   6   5   41.00    4.90
  -4   6  -5   42.90    5.00
   4   6   5   43.50    4.10
   5  -6   5    0.90    2.20
  -5  -6  -5    1.40    2.30
   5   6   5   -2.00    2.20
  -5   6  -5    5.80    2.90
   5   6   5    3.90    3.20
   6  -6   5    9.60    2.80
  -6  -6  -5   13.00    3.20
   6   6   5   14.60    3.70
  -6   6  -5   12.60    3.70
  -6   6  -5   13.70    3.30
   6   6   5   15.50    5.60
   7  -6   5   52.99    5.90
  -7  -6  -5   44.40    7.20
  -7   6  -5   52.29    6.20
   7   6   5   42.60    6.90
  -7   6  -5   52.29    6.80
  -8  -6  -5   35.50    6.30
   8  -6   5   32.10    5.90
   8   6   5   54.09    7.40
  -8   6  -5   41.70    5.80
  -8   6  -5   43.00    6.00
   9  -6   5    7.40    4.90
  -9  -6  -5    3.70    4.40
   9   6   5   10.60    4.80
  -9   6  -5    3.40    4.00
 -10   6  -5    8.10    4.30
 -12  -7   5   35.30    7.40
  12   7  -5   28.70    7.40
 -12   7   5   36.20    6.50
 -12   7   5   45.30    7.50
 -11  -7   5   53.89    8.20
 -11  -7   5   46.40    8.60
 -11   7   5   44.00    6.20
 -11   7   5   58.99    6.70
  11   7  -5   54.69    7.20
 -10  -7   5   14.10    5.20
 -10  -7   5   14.30    5.10
 -10   7   5   23.70    3.90
  10   7  -5   24.50    4.70
 -10   7   5   23.10    4.80
  -9  -7   5    6.90    4.40
  -9  -7   5    5.80    3.70
  -9   7   5    3.20    2.70
  -9   7   5    4.10    2.60
   9   7  -5   -1.00    3.20
  -8  -7   5    6.80    3.40
  -8  -7   5    9.60    4.00
  -8   7   5    8.80    2.70
  -8   7   5   14.40    3.70
   8   7  -5    7.50    3.30
  -7  -7   5   16.60    4.50
  -7  -7   5   16.60    3.40
  -7   7   5   20.60    3.80
   7   7  -5   14.40    3.70
  -7   7   5   21.10    2.60
  -6  -7   5   91.59    6.90
  -6  -7   5   81.29    7.60
   6   7  -5   94.69    6.80
  -6   7   5   86.09    4.80
  -5  -7   5   17.30    4.30
  -5  -7   5   15.10    3.10
  -5   7   5   19.00    3.60
   5   7  -5   11.90    3.00
  -5   7   5   13.10    3.30
  -4  -7   5  250.47   13.90
  -4  -7   5  244.58   12.80
  -4  -7   5  250.17   13.20
  -4   7   5  222.28   13.20
  -3  -7   5    0.60    1.70
  -3  -7   5   -0.40    1.50
  -3  -7   5    2.30    2.60
  -3   7   5    1.20    1.70
   3   7  -5   -0.20    1.80
   2  -7  -5   60.59    4.80
  -2  -7   5   63.89    5.50
  -2  -7   5   56.69    4.70
  -2  -7   5   59.29    4.90
   2   7  -5   67.39    5.20
  -2   7   5   54.29    4.70
  -2   7   5   55.59    3.30
  -1  -7   5   22.10    3.10
  -1  -7   5   19.80    3.60
  -1  -7   5   19.30    3.30
   1  -7  -5   22.00    3.20
   1   7  -5   17.50    3.10
  -1   7   5   18.30    2.20
   1   7  -5   21.20    3.90
  -1   7   5   16.90    2.80
   0  -7   5  125.99    8.30
   0  -7  -5  127.89    7.30
   0  -7   5  108.29    8.30
   0  -7  -5  106.59    6.00
   0   7   5  123.19    7.10
   0   7   5  115.59    6.60
   0   7  -5  120.49    7.50
   0   7  -5  121.79    9.30
  -1  -7  -5   35.80    3.40
  -1  -7  -5   37.10    3.90
   1  -7   5   36.90    3.90
   1  -7   5   48.70    4.90
  -1   7  -5   32.90    3.70
   1   7   5   37.80    3.50
   1   7   5   36.70    3.70
  -1   7  -5   36.80    4.30
  -2  -7  -5    8.50    2.00
   2  -7   5   13.40    3.40
   2  -7   5   13.60    2.60
   2   7   5    6.80    2.20
  -2   7  -5   13.40    2.90
   2   7   5    9.70    2.00
  -2   7  -5   10.70    2.90
  -3  -7  -5    1.30    1.80
   3  -7   5   -1.70    1.90
   3  -7   5   -0.60    1.50
   3   7   5    1.00    1.80
   3   7   5    1.10    2.00
  -3   7  -5   -1.10    2.40
  -3   7  -5   -0.90    1.80
  -4  -7  -5    5.80    2.40
   4  -7   5    7.00    2.40
   4   7   5    7.40    3.10
  -4   7  -5   10.40    3.00
   4   7   5    9.90    2.50
   5  -7   5    0.70    2.20
  -5  -7  -5    2.20    2.60
  -5   7  -5    0.10    2.70
   5   7   5    7.30    2.50
   5   7   5    6.30    3.00
  -6  -7  -5    7.10    3.50
   6  -7   5    5.60    2.60
  -6   7  -5    5.80    3.00
   6   7   5   -0.90    3.10
  -6   7  -5    0.90    3.20
  -7  -7  -5    5.90    3.70
   7  -7   5    3.30    3.00
  -7   7  -5   -1.20    4.20
  -7   7  -5    4.00    2.80
   7   7   5    3.70    3.90
   8  -7   5   -2.80    4.10
  -8  -7  -5    3.80    4.00
   8   7   5    5.80    4.60
  -8   7  -5    5.70    4.80
  -8   7  -5   -0.20    3.00
  -9  -7  -5    2.90    4.10
  -9   7  -5    6.70    4.50
   9   7   5    3.70    5.20
 -11  -8   5   -3.30    4.90
  11   8  -5    1.00    5.40
 -11   8   5    4.10    4.40
 -11   8   5   12.50    4.50
 -10  -8   5   -1.30    4.00
 -10   8   5    1.30    3.20
  10   8  -5   -6.50    3.60
 -10   8   5   -3.70    2.70
  -9  -8   5   20.10    4.40
  -9  -8   5   13.70    4.70
  -9   8   5   13.80    3.30
   9   8  -5   23.90    4.90
  -9   8   5   18.70    4.00
  -8  -8   5   -1.50    2.90
  -8  -8   5   -2.80    2.80
  -8   8   5    1.90    2.10
   8   8  -5    5.00    3.30
  -8   8   5    2.70    2.60
  -7  -8   5   27.70    5.90
   7   8  -5   27.00    4.50
  -7   8   5   20.40    3.90
  -7   8   5   27.90    3.20
  -6  -8   5   16.80    4.90
  -6  -8   5   13.50    3.30
   6   8  -5   12.80    3.00
  -6   8   5   15.10    2.00
  -6   8   5   11.60    3.50
  -5  -8   5  212.08   14.10
  -5  -8   5  254.77   13.50
   5   8  -5  259.87   13.60
  -4  -8   5   28.80    5.40
  -4  -8   5   29.00    3.70
  -4  -8   5   26.50    4.40
  -4   8   5   24.90    4.20
  -3  -8   5   55.69    4.80
  -3  -8   5   53.49    5.70
   3  -8  -5   52.99    5.00
  -3  -8   5   59.59    5.00
  -3   8   5   54.19    3.00
  -3   8   5   49.50    5.20
  -2  -8   5    4.70    2.50
  -2  -8   5    3.40    2.10
   2  -8  -5    7.40    2.20
  -2  -8   5    7.00    1.90
   2   8  -5    8.90    2.50
  -2   8   5    5.20    2.10
  -2   8   5    8.10    1.50
   1  -8  -5  311.47   15.70
  -1  -8   5  305.57   15.70
  -1  -8   5  297.67   16.40
  -1  -8   5  302.27   16.50
  -1   8   5  285.07   15.30
   1   8  -5  307.87   16.10
  -1   8   5  305.67   14.10
   0  -8   5    6.70    2.70
   0  -8  -5    4.30    1.40
   0  -8   5    6.80    2.40
   0  -8  -5    4.10    1.90
   0   8   5    4.50    1.90
   0   8   5    4.00    2.10
   0   8  -5   10.50    2.80
   0   8  -5    3.90    2.10
   1  -8   5  630.44   29.70
   1  -8   5  592.54   28.20
  -1  -8  -5  599.54   28.30
   1   8   5  623.34   27.70
  -1   8  -5  599.14   28.40
  -1   8  -5  582.34   29.00
   1   8   5  586.34   27.80
   2  -8   5    8.70    2.90
  -2  -8  -5   11.40    2.80
   2  -8   5    4.80    2.10
   2   8   5   13.00    2.50
   2   8   5   12.50    3.10
  -2   8  -5    6.40    2.40
   3  -8   5  261.07   14.10
   3  -8   5  289.27   15.90
  -3  -8  -5  273.77   14.30
  -3   8  -5  265.27   14.40
   3   8   5  259.17   13.80
   3   8   5  268.27   14.30
   4  -8   5  184.38   11.90
   4  -8   5  182.48   10.80
  -4  -8  -5  188.08   11.10
  -4   8  -5  182.08   11.10
   4   8   5  194.38   10.60
   4   8   5  184.78   11.10
   5  -8   5   43.40    5.50
  -5  -8  -5   42.70    5.10
   5   8   5   41.90    4.80
  -5   8  -5   38.50    5.60
   5   8   5   40.90    5.40
  -6  -8  -5   15.70    4.50
   6  -8   5   13.40    3.40
  -6   8  -5   18.80    4.20
  -6   8  -5   17.80    4.80
   6   8   5   10.10    3.80
  -7  -8  -5  102.99    9.10
   7  -8   5  112.69   13.20
  -7   8  -5  110.89    8.90
  -7   8  -5   81.19    9.20
   7   8   5  120.39    9.60
  -8  -8  -5   15.50    5.20
  -8   8  -5    8.80    5.00
   8   8   5   14.00    5.20
  -8   8  -5   18.10    4.90
   9  -8   5   -0.40    6.40
  -9  -8  -5    7.80    4.90
   9   8   5    2.60    5.20
  -9   8  -5   17.50    8.50
 -11  -9   5    0.80    5.60
  11   9  -5   -1.20    5.20
 -11   9   5    1.00    4.00
 -11   9   5   -4.00    4.00
 -10  -9   5   93.29   14.70
  10   9  -5   82.59    8.80
 -10   9   5   74.49    6.90
  -9  -9   5    5.40    3.60
  -9   9   5    3.10    2.50
  -9   9   5    4.10    3.20
   9   9  -5   -1.10    3.90
  -8  -9   5   83.69   10.00
  -8  -9   5   94.99    9.10
  -8   9   5  107.09    6.40
  -8   9   5   96.69    8.10
   8   9  -5   89.09    8.20
  -7  -9   5   29.40    4.60
  -7  -9   5   24.30    5.50
  -7   9   5   30.40    3.10
  -7   9   5   21.30    4.40
   7   9  -5   19.30    4.40
  -6  -9   5  329.27   17.90
  -6  -9   5  283.17   16.00
  -6   9   5  291.27   13.70
   6   9  -5  291.17   16.20
  -6   9   5  303.57   16.40
  -5  -9   5   -0.20    2.50
  -5  -9   5    2.70    3.00
   5   9  -5    2.00    2.30
  -4  -9   5    9.40    3.70
  -4  -9   5   17.00    3.30
  -4  -9   5   14.10    3.20
  -3  -9   5  122.99    8.20
  -3  -9   5  125.89    8.10
   3  -9  -5  128.79    8.80
  -3  -9   5  140.19   10.50
  -3   9   5  126.09    8.60
  -3   9   5  126.59    6.20
  -2  -9   5    1.70    2.00
  -2  -9   5    1.70    2.00
   2  -9  -5    0.30    2.00
  -2  -9   5   -0.60    1.80
  -2   9   5    1.30    1.80
  -2   9   5    4.50    1.40
  -1  -9   5   35.50    5.30
  -1  -9   5   28.30    3.80
  -1  -9   5   30.20    5.10
   1  -9  -5   35.50    4.30
  -1   9   5   28.50    3.00
  -1   9   5   33.00    4.30
   0  -9   5   77.09    5.80
   0  -9   5   89.09    7.40
   0  -9  -5   93.99    6.70
   0  -9   5   83.39    6.10
   0   9  -5   76.49    6.30
   0   9   5   87.29    6.10
  -1  -9  -5   18.90    3.50
   1  -9   5   12.20    3.70
   1  -9   5   14.50    3.00
  -1   9  -5   22.10    3.80
   1   9   5   20.30    3.10
   1   9   5   17.50    3.10
   2  -9   5    7.50    4.00
  -2  -9  -5    6.30    2.70
   2  -9   5    6.50    2.30
  -2   9  -5    6.60    2.40
   2   9   5    7.70    2.30
   2   9   5    6.10    2.20
   3  -9   5    0.90    2.60
  -3  -9  -5    1.60    2.10
   3  -9   5    1.20    2.10
  -3   9  -5    2.00    2.20
   3   9   5    0.70    2.10
   3   9   5    2.00    2.30
   4  -9   5   -1.40    2.00
  -4  -9  -5    1.70    2.90
   4  -9   5    5.50    3.00
   4   9   5   -0.30    2.20
  -4   9  -5    2.00    2.70
   4   9   5    4.60    2.60
  -5  -9  -5    2.00    3.30
   5  -9   5   -2.90    2.90
   5   9   5   -1.60    3.30
  -5   9  -5   -1.20    2.40
  -6  -9  -5    4.40    3.50
   6   9   5    2.60    3.60
  -6   9  -5    6.80    3.70
  -7  -9  -5    3.30    4.20
   7  -9   5   -0.60    4.00
  -7   9  -5   -3.10    2.60
   7   9   5    1.70    3.90
  -7   9  -5    2.10    3.90
  -8  -9  -5   -3.60    4.80
   8  -9   5   -8.60    4.50
  -8   9  -5    5.50    3.60
   8   9   5   -0.80    4.70
  -8   9  -5   -8.00    5.30
  -9  -9  -5   -2.90    4.90
  -9   9  -5   -0.70    4.40
   9   9   5   -6.10    4.40
 -11 -10   5    7.80    5.20
  11  10  -5   -4.70    5.70
 -11  10   5   -1.10    3.80
 -11  10   5    4.30    3.90
 -10 -10   5    7.20    5.20
 -10  10   5    7.50    3.50
 -10  10   5   10.50    4.50
  10  10  -5   -1.10    5.50
  -9 -10   5   10.50    4.40
  -9  10   5    9.30    4.00
   9  10  -5    6.30    5.10
  -9  10   5   17.00    3.20
  -8 -10   5    3.00    3.10
  -8  10   5    2.20    2.80
   8  10  -5    4.60    3.70
  -8  10   5   10.70    2.60
  -7 -10   5   71.59   10.00
  -7  10   5   71.59    4.70
  -7  10   5   68.59    6.80
   7  10  -5   62.69    7.20
  -6 -10   5   75.59    8.30
   6  10  -5   78.09    7.30
  -6  10   5   80.79    4.60
  -6  10   5   81.19    7.00
  -5 -10   5    9.80    3.50
  -5 -10   5    8.30    4.00
  -5  10   5    6.20    1.20
   5  10  -5    8.30    2.70
  -4 -10   5   77.89    6.60
  -4 -10   5   76.59    7.70
  -4 -10   5   70.99    6.50
  -3 -10   5   70.19    6.50
  -3 -10   5   73.29    6.20
  -3 -10   5   78.89    7.70
   3 -10  -5   72.79    6.60
  -3  10   5   77.09    4.30
  -2 -10   5  152.88    9.40
  -2 -10   5  168.48   11.20
   2 -10  -5  153.78   10.30
  -2  10   5  140.09    9.70
  -2  10   5  163.58    8.00
  -1 -10   5   44.90    4.50
  -1 -10   5   49.00    5.90
   1 -10  -5   51.49    5.20
  -1  10   5   44.60    3.70
  -1  10   5   45.40    4.90
   0 -10   5   27.80    3.80
   0 -10   5   40.30    6.20
   0 -10  -5   29.70    4.80
   0  10   5   28.60    3.70
   0  10   5   37.90    4.10
   0  10  -5   27.40    4.20
   1 -10   5  115.29    7.70
  -1 -10  -5  121.69    8.50
   1 -10   5  123.19    9.40
   1  10   5  113.99    7.40
  -1  10  -5  118.49    8.00
   1  10   5  112.19    7.80
   2 -10   5   37.80    4.90
   2 -10   5   43.10    7.20
  -2 -10  -5   38.80    4.70
   2  10   5   43.40    4.40
   2  10   5   39.90    4.50
  -2  10  -5   40.70    4.70
  -3 -10  -5  117.09    8.20
   3 -10   5  111.29    9.20
   3 -10   5  110.49    7.50
  -3  10  -5   95.39    7.50
   3  10   5   99.99    7.20
   3  10   5  106.99    7.60
  -4 -10  -5  127.99    9.30
   4 -10   5  123.99   10.30
  -4  10  -5  129.89    9.10
   4  10   5  135.19    9.10
  -5 -10  -5   70.19   12.10
   5 -10   5   52.69    7.90
  -5  10  -5   57.89    6.80
   5  10   5   48.10    6.30
  -6 -10  -5   32.60    5.80
   6 -10   5   26.70    4.60
  -6  10  -5   25.10    5.20
   6  10   5   18.60    5.00
   7 -10   5   43.10    6.80
  -7 -10  -5   52.49    7.60
   7  10   5   46.10    7.40
  -7  10  -5   49.20    7.10
  -7  10  -5   32.10    5.60
   8 -10   5   26.50    7.70
  -8 -10  -5   25.20    6.00
  -8  10  -5   26.50    9.90
   8  10   5   27.20    6.10
 -10 -11   5   29.90    7.30
 -10  11   5   39.00    5.20
  10  11  -5   26.40    6.90
 -10  11   5   39.60    5.90
  -9 -11   5   54.89    9.60
  -9  11   5   49.99    8.70
   9  11  -5   49.40    7.30
  -8 -11   5   51.39    8.10
   8  11  -5   51.29    6.90
  -8  11   5   64.79    7.30
  -7 -11   5   96.79    9.30
  -7  11   5   90.49    5.60
  -7  11   5   85.69    7.90
   7  11  -5   87.89    8.20
  -6 -11   5    4.40    3.30
   6  11  -5    0.10    2.70
  -6  11   5    3.60    1.50
  -5 -11   5    4.50    3.20
  -5 -11   5    5.40    4.40
   4 -11  -5  144.09   10.50
  -4 -11   5  137.09   10.90
  -4 -11   5  149.19    9.80
  -3 -11   5   35.10    6.60
  -3 -11   5   29.30    4.90
  -3  11   5   23.10    2.50
  -2 -11   5  150.98   10.80
   2 -11  -5  148.49   10.10
  -2  11   5  125.09    7.30
  -1 -11   5    2.40    2.80
   1 -11  -5    7.30    2.70
  -1 -11   5    1.50    1.60
  -1  11   5    2.80    1.90
   0 -11   5    8.20    2.60
   0 -11  -5    5.90    2.90
   0 -11   5    4.40    2.80
   0 -11  -5    3.90    1.40
   0  11  -5    4.60    2.30
   0  11   5    2.10    2.10
   0  11   5    4.30    2.60
   1 -11   5    6.10    2.30
  -1 -11  -5    5.60    3.10
   1 -11   5    4.80    3.30
   1  11   5    4.80    2.20
  -1  11  -5    5.60    2.30
   1  11   5    8.30    3.10
   2 -11   5    4.90    3.30
  -2 -11  -5    1.60    2.50
   2 -11   5    7.20    2.50
  -2  11  -5    2.50    2.30
   2  11   5    4.30    2.60
   3 -11   5    0.50    3.00
  -3 -11  -5    1.80    3.00
  -3  11  -5    1.50    2.10
   3  11   5    0.80    2.60
   4 -11   5   -1.30    2.20
   4 -11   5    0.80    2.80
   4  11   5    5.40    3.30
  -4  11  -5    4.90    3.10
   5 -11   5   13.30    3.50
  -5 -11  -5   14.50    4.60
   5 -11   5   12.60    4.40
  -5  11  -5    4.10    3.40
   5  11   5    9.80    4.20
   6 -11   5    5.00    3.70
  -6 -11  -5    8.40    4.40
   6  11   5    3.60    3.80
  -6  11  -5    5.50    4.10
   7 -11   5    4.70    8.50
  -7 -11  -5    7.20    4.90
  -7  11  -5    1.80    4.60
  -7  11  -5   12.80    4.70
   7  11   5    5.90    4.20
  -8 -11  -5   57.19    7.70
  -8  11  -5   41.60    7.20
   8  11   5   31.50    6.40
 -10 -12   5    3.40    4.40
 -10  12   5    5.80    3.90
  10  12  -5   16.20    6.90
 -10  12   5    4.50    3.40
  -9 -12   5   -0.20    3.70
  -9  12   5    2.30    3.30
  -9  12   5    4.00    2.50
   9  12  -5    2.60    8.80
  -8 -12   5   28.00    6.30
   8  12  -5   21.80    5.20
  -8  12   5   28.40    5.30
  -8  12   5   22.40    3.30
  -7 -12   5   15.20    5.70
  -7  12   5    0.00    2.80
  -7  12   5    6.00    1.80
   7  12  -5   10.10    3.90
  -6 -12   5    9.40    4.20
  -6 -12   5   11.30    4.40
   6  12  -5    9.90    4.20
  -5 -12   5   11.00    4.50
  -5 -12   5    8.10    3.50
  -4 -12   5   13.60    4.90
  -4 -12   5   22.00    4.50
   4 -12  -5   19.20    4.80
  -3 -12   5   23.80    5.20
   3 -12  -5   24.10    5.10
  -3 -12   5   35.10    5.00
  -3  12   5   23.70    2.70
  -2 -12   5   69.29    8.20
  -2 -12   5   82.99    6.80
   2 -12  -5   79.89    7.70
  -2  12   5   91.79    5.50
  -1 -12   5   32.90    4.60
  -1 -12   5   29.20    6.50
  -1  12   5   34.80    3.80
   0 -12   5    4.80    3.30
   0 -12   5    3.40    2.00
   0 -12  -5    3.30    1.40
   0 -12  -5    0.60    2.50
   0  12   5    5.10    2.20
   1 -12   5    2.20    1.90
   1 -12   5    6.60    3.50
  -1 -12  -5    6.90    2.90
   1  12   5    0.60    2.70
  -1  12  -5   -0.20    2.40
   2 -12   5  160.88   12.00
  -2  12  -5  144.39   10.00
   2  12   5  153.18    9.60
  -3 -12  -5    2.90    3.50
   3 -12   5    0.80    2.00
   3 -12   5   -1.30    2.40
  -3  12  -5    3.40    2.80
   3  12   5   -0.20    2.80
   4 -12   5   96.09    9.40
   4 -12   5   78.79    7.00
  -4 -12  -5  107.89    9.00
  -4  12  -5   99.29   13.50
   4  12   5   90.39    7.80
  -5 -12  -5   11.20    4.00
   5 -12   5    5.30    3.40
   5 -12   5    3.30    3.10
   5  12   5   -0.80    3.60
  -5  12  -5   -3.50    6.10
  -6 -12  -5   18.30    5.70
  -6  12  -5   21.20    5.50
   6  12   5   26.60    5.60
  -7 -12  -5   30.60    6.50
   7  12   5   16.80    5.60
  -9 -13   5   41.60    9.30
  -9  13   5   40.50    6.80
   9  13  -5   36.20    6.70
  -9  13   5   43.50    4.40
  -8 -13   5    0.40    4.30
  -8  13   5   -3.20    6.70
  -8  13   5    3.80    1.90
   8  13  -5    3.20    4.60
  -7 -13   5   35.50    6.40
  -7 -13   5   34.60    6.30
  -7  13   5   32.70    3.30
  -7  13   5   41.10    6.70
   7  13  -5   24.40    5.60
  -6 -13   5   66.49    9.70
  -6 -13   5   63.29    7.00
  -5 -13   5   42.00    6.00
  -5 -13   5   59.09    8.20
   4 -13  -5   19.20    4.80
  -4 -13   5   19.80    4.10
  -4 -13   5   26.20    6.20
  -3 -13   5  183.58   11.60
   3 -13  -5  166.58   12.50
  -3 -13   5  188.18   13.40
   2 -13  -5    1.60    3.00
  -2 -13   5    2.90    2.20
  -2 -13   5    1.10    3.20
  -2  13   5    0.80    1.90
   1 -13  -5  132.19    9.80
  -1 -13   5  138.99   10.90
  -1 -13   5  125.19    8.50
  -1  13   5  111.19    7.50
   0 -13  -5    2.30    2.70
   0 -13   5    1.80    1.90
   0 -13   5    4.70    3.60
   0  13   5    1.30    2.40
  -1 -13  -5   14.30    4.30
  -1 -13  -5   10.00    2.20
   1 -13   5   12.60    4.10
  -1  13  -5    8.80    3.10
   1  13   5   11.70    3.20
   2 -13   5    0.10    2.10
  -2 -13  -5    4.70    3.10
   2 -13   5   -2.70    2.50
  -2  13  -5    2.70    2.40
   2  13   5    0.80    2.70
   3 -13   5   20.30    5.50
  -3 -13  -5    5.20    3.80
   3 -13   5    7.90    3.10
   3  13   5   10.80    3.70
  -4 -13  -5    4.50    4.30
   4 -13   5   -0.40    2.80
   4 -13   5    3.60    3.70
   4  13   5    1.50    3.20
  -4  13  -5   -5.10    4.60
   5 -13   5    1.80    4.50
  -5 -13  -5   -2.70    3.70
   5 -13   5   -2.50    3.40
  -5  13  -5   -1.30    3.40
   5  13   5   -9.10    3.10
  -6 -13  -5    3.50    4.10
   6 -13   5   -2.50    5.10
   6  13   5    3.70    4.10
  -7 -13  -5    5.50    5.70
  -8 -14   5   -0.70    3.80
  -8  14   5    0.60    3.60
  -8  14   5    6.00    2.10
   8  14  -5    1.50    4.60
  -7 -14   5   25.20    6.40
  -7 -14   5   26.30    6.00
   7  14  -5   28.30    6.40
  -6 -14   5   -3.90    4.00
  -6 -14   5    2.80    3.30
  -5 -14   5   34.10    6.00
  -5 -14   5   31.60    6.80
   5 -14  -5   42.40    7.50
  -4 -14   5   13.40    5.10
  -4 -14   5    6.80    3.10
   4 -14  -5   12.60    4.40
   3 -14  -5   -0.70    2.80
  -3 -14   5    3.20    2.40
  -3 -14   5    5.00    3.00
  -2 -14   5   78.09    8.80
   2 -14  -5   62.19    7.60
  -2 -14   5   58.89    5.80
  -2  14   5   67.29    5.20
  -1 -14   5    8.50    2.80
   1 -14  -5    4.80    3.60
  -1 -14   5    7.50    4.80
  -1  14   5   10.70    2.70
   0 -14  -5  103.29    9.20
   0 -14   5  106.69    9.90
   0  14   5  106.79    7.20
  -1 -14  -5   94.99    8.50
   1 -14   5   84.69    9.10
   1  14   5   97.29    7.20
   2 -14   5   23.20    3.80
   2 -14   5   15.30    5.60
  -2 -14  -5   25.40    5.40
   2  14   5   15.90    4.20
  -2  14  -5   18.10    4.30
   3 -14   5   81.69    7.10
  -3 -14  -5  102.89    9.00
   3 -14   5   94.69    9.80
   3  14   5   79.99    7.40
   4 -14   5    0.70    4.30
   4 -14   5    7.60    3.90
  -4 -14  -5    1.00    4.00
  -4  14  -5   14.10    4.00
   4  14   5   -0.80    3.30
  -5 -14  -5   50.69    7.00
   5 -14   5   37.50    7.30
   5 -14   5   44.70    6.50
  -5  14  -5   33.30    5.80
   5  14   5   35.70    6.60
  -6 -14  -5   62.49    8.50
   6  14   5   37.90    6.20
  -8 -15   5   21.00    6.60
  -8 -15   5   20.90    5.90
  -8  15   5   28.30    5.60
   8  15  -5   26.00    6.10
  -7 -15   5   12.60    5.60
  -7 -15   5    3.70    4.80
  -6 -15   5  108.39   11.30
  -6 -15   5   97.59    9.40
  -5 -15   5    2.40    3.20
   5 -15  -5    8.60    4.80
  -4 -15   5  123.89   11.60
   4 -15  -5  122.19   10.70
  -4 -15   5  111.49    9.20
   3 -15  -5  121.79   10.90
  -3 -15   5  109.99    8.80
  -3 -15   5  136.39   11.60
  -2 -15   5    9.10    3.10
   2 -15  -5    4.90    3.60
  -2 -15   5    6.40    4.10
  -2  15   5    4.80    2.30
  -1 -15   5   -2.10    2.50
   1 -15  -5    1.40    3.20
  -1 -15   5   -1.60    2.20
  -1  15   5    2.30    2.20
   0 -15   5    7.20    3.40
   0 -15  -5   -0.90    3.50
   0  15   5    0.10    2.30
   1 -15   5    2.00    3.00
  -1 -15  -5    5.30    3.80
   1 -15   5    0.90    4.00
   1  15   5   12.70    3.20
   2 -15   5    3.20    3.30
  -2 -15  -5    3.00    3.60
   2 -15   5    0.70    2.60
  -2 -15  -5   -1.50    3.40
  -2  15  -5    1.30    3.10
   2  15   5    8.60    3.40
   3 -15   5    1.50    3.90
  -3 -15  -5    4.80    3.80
   3 -15   5    0.40    3.10
   3  15   5   -1.00    3.50
  -3  15  -5   -1.00    3.40
   4 -15   5    1.10    4.10
   4 -15   5   -6.60    4.50
  -4 -15  -5    3.60    4.30
  -4  15  -5   -3.50    3.40
   4  15   5   -0.70    3.10
  -5 -15  -5    5.00    4.60
   5 -15   5    1.80    3.80
   5  15   5   -0.90    4.10
  -7 -16   5    7.40    5.60
  -7 -16   5    5.20    4.70
  -6 -16   5    4.80    4.80
  -6 -16   5   19.30    5.70
  -5 -16   5   30.90    7.50
  -5 -16   5   18.10    5.40
   5 -16  -5   22.80    7.20
  -4 -16   5    6.50    4.80
   4 -16  -5    1.90    4.10
  -4 -16   5   -1.10    3.70
  -3 -16   5   -2.20    3.30
   3 -16  -5    0.70    3.10
  -2 -16   5    4.00    4.40
   2 -16  -5   11.10    4.60
  -2 -16   5   13.60    3.70
  -1 -16   5   88.99    9.90
   1 -16  -5   73.89    8.30
  -1  16   5  101.39    7.70
   0 -16   5    4.10    3.40
   0 -16   5   15.30    6.00
   0 -16  -5   17.50    4.80
  -1 -16  -5   50.19    7.00
   1 -16   5   39.30    5.50
   1  16   5   41.60    6.70
  -2 -16  -5   15.70    4.60
   2 -16   5    3.30    4.10
   2 -16   5    4.70    3.70
   2  16   5    0.80    3.20
  -3 -16  -5   20.80    5.50
   3 -16   5   26.50    7.30
   3 -16   5   22.10    6.00
  -3  16  -5   18.80    5.50
   3  16   5   13.10    4.40
  -4 -16  -5    4.10    5.40
   4 -16   5    1.40    3.70
   4  16   5    3.20    3.30
   5 -17  -5   32.60    8.20
  -5 -17   5   27.70    7.50
  -5 -17   5   23.20    6.00
  -4 -17   5   93.29   10.80
  -4 -17   5   70.99    8.10
   4 -17  -5   93.69   15.50
  -3 -17   5   -0.60    3.30
   3 -17  -5    3.10    4.70
  -3 -17   5    7.80    4.30
  -2 -17   5   22.40    5.90
   2 -17  -5   32.50    7.10
   1 -17  -5    5.50    4.20
  -1 -17   5    7.90    3.40
  -1 -17   5    8.30    4.70
  -1  17   5    8.00    2.90
   0 -17  -5   10.80    4.90
   0 -17   5   17.90    6.00
   0 -17   5    8.00    4.40
   0  17   5   13.40    3.70
  -1 -17  -5    1.00    4.10
   1 -17   5    6.40    4.20
   1 -17   5    7.80    4.70
   1  17   5    5.40    3.30
   2 -17   5    2.60    4.00
  -2 -17  -5   -0.50    4.40
   2  17   5    1.50    3.40
  -3 -17  -5   -4.00    3.90
   3 -17   5   -3.00    3.60
   3  17   5    2.00    3.50
   3 -18  -5    2.30    5.00
  -3 -18   5    4.30    5.00
   2 -18  -5   17.10    6.30
  -2 -18   5    5.60    3.40
  -1 -18   5   81.19   11.20
  -1  18   5   59.59    6.00
   0 -18   5   11.60    4.80
   0 -18  -5   10.80    5.60
   0  18   5   20.40    4.40
   1 -18   5   23.40    6.70
  -1 -18  -5   38.00    9.30
   1  18   5   14.30    4.00
 -13   0   6    7.50    4.50
 -12   0   6    8.90    4.30
  12   0  -6    1.60    5.70
 -12   0   6    6.70    4.90
 -11   0   6    1.10    3.60
 -11   0   6    1.60    3.60
  11   0  -6    0.20    4.00
 -10   0   6   50.69    5.20
 -10   0   6   28.70    4.80
  10   0  -6   31.00    4.30
  -9   0   6    0.50    2.20
  -9   0   6   -1.30    2.80
   9   0  -6   -3.70    2.00
  -8   0   6  120.89    7.30
  -8   0   6   97.09    7.80
  -7   0   6    1.10    1.40
  -7   0   6    1.10    2.00
   6   0  -6  113.19    7.30
  -6   0   6  108.59    7.40
  -6   0   6  117.19    6.80
  -5   0   6   -0.10    1.60
  -5   0   6   -2.00    1.10
   5   0  -6    0.70    1.30
  -4   0   6  230.38   12.10
  -4   0   6  254.57   11.80
   4   0  -6  233.28   11.90
  -3   0   6   -0.30    1.00
   3   0  -6   -0.10    1.00
  -3   0   6   -0.20    1.00
  -2   0   6    2.20    1.10
   2   0  -6    2.40    1.00
  -2   0   6    2.60    1.20
   1   0  -6    0.70    0.80
  -1   0   6    0.10    1.30
  -1   0   6    0.80    0.80
   1   0  -6   -0.30    1.00
   0   0  -6  308.57   13.20
   0   0   6  300.77   13.30
   0   0   6  309.97   14.70
   0   0  -6  290.37   14.50
   1   0   6    0.20    1.50
  -1   0  -6    1.10    0.60
  -1   0  -6   -0.10    0.80
  -1   0  -6    2.10    1.40
  -2   0  -6 1311.47   61.99
   2   0   6 1436.86   62.89
  -2   0  -6 1438.66   62.89
  -2   0  -6 1496.05   61.49
  -3   0  -6   -0.10    1.10
   3   0   6    3.70    1.90
  -3   0  -6   -1.20    1.40
  -3   0  -6   -0.90    1.70
  -4   0  -6  303.67   16.10
  -4   0  -6  329.87   15.70
   4   0   6  335.67   16.80
  -4   0  -6  336.17   18.10
  -5   0  -6    0.40    1.70
  -5   0  -6   -0.60    2.80
   5   0   6    0.30    2.60
  -5   0  -6    1.50    2.30
  -6   0  -6   62.09    6.80
  -6   0  -6   84.79    6.20
   6   0   6   99.39    7.50
  -6   0  -6   80.69    6.90
  -7   0  -6    0.00    2.90
   7   0   6    0.50    3.10
   8   0   6   70.29    7.70
  -8   0  -6   57.49    6.30
   9   0   6    0.90    5.10
  -9   0  -6   -2.10    3.70
  10   0   6    1.40    6.40
 -10   0  -6   -7.60    3.70
 -13  -1   6    1.90    4.30
 -13   1   6   -4.30    4.60
 -12  -1   6   12.90    4.70
 -12  -1   6    7.40    4.90
  12  -1  -6   -4.00    5.90
 -12   1   6   11.10    5.00
 -12   1   6   -0.60    4.00
  12   1  -6    1.80    5.90
 -11  -1   6   82.69    8.30
 -11  -1   6   71.69    7.70
  11  -1  -6   68.59    7.50
 -11   1   6   80.99    7.90
  11   1  -6   74.99    7.70
 -11   1   6   79.19    7.30
 -10  -1   6   36.20    5.40
  10  -1  -6   31.70    4.10
 -10  -1   6   54.29    7.90
 -10   1   6   44.40    6.90
  10   1  -6   36.00    4.60
 -10   1   6   35.10    4.40
  -9  -1   6  335.77   17.40
  -9   1   6  335.17   18.50
   9   1  -6  336.67   18.10
  -9   1   6  342.77   17.20
  -8  -1   6    5.40    2.50
  -8  -1   6    3.50    2.70
  -8   1   6    0.40    2.00
   8   1  -6    6.00    3.30
  -8   1   6    9.10    2.10
  -7  -1   6  144.49    9.50
  -7  -1   6  144.89    8.60
  -7   1   6  148.09    9.30
  -7   1   6  144.19    8.20
  -6  -1   6   47.00    3.90
   6  -1  -6   46.50    4.50
  -6  -1   6   52.79    4.80
  -6   1   6   48.70    3.90
   6   1  -6   46.00    4.40
  -6   1   6   49.99    4.60
   5  -1  -6  463.25   22.00
  -5  -1   6  484.35   22.50
  -5  -1   6  446.46   21.70
  -5   1   6  460.55   21.40
   5   1  -6  478.95   22.20
  -5   1   6  474.15   22.20
  -4  -1   6    1.10    1.20
   4  -1  -6    0.90    1.00
  -4  -1   6    1.10    1.40
   4   1  -6    1.60    1.50
  -4   1   6    1.00    1.20
  -4   1   6    1.10    1.30
  -3  -1   6   27.40    2.90
   3  -1  -6   25.90    2.40
  -3  -1   6   25.80    2.80
   3   1  -6   29.30    2.80
  -3   1   6   26.10    2.50
  -3   1   6   29.40    2.60
  -2  -1   6   31.60    2.70
  -2  -1   6   29.70    3.00
  -2   1   6   29.30    2.30
  -2   1   6   29.00    2.60
   2   1  -6   30.10    2.50
   1  -1  -6  176.48    8.90
  -1  -1   6  182.48    9.30
  -1  -1   6  176.08    8.60
   1   1  -6  176.48    8.50
  -1   1   6  173.28    9.10
  -1   1   6  174.18    8.00
   1   1  -6  184.38    9.20
   0  -1   6   18.40    1.80
   0  -1  -6   14.70    2.10
   0  -1   6   14.20    2.60
   0   1   6   14.90    2.40
   0   1  -6   16.40    2.40
   0   1  -6   15.60    1.60
  -1  -1  -6   10.20    2.00
   1  -1   6   10.80    2.30
  -1   1  -6    9.70    2.10
  -1   1  -6    9.20    1.70
   1   1   6    9.10    2.20
  -2  -1  -6    2.40    1.10
  -2  -1  -6    3.50    1.50
  -2  -1  -6    3.60    1.10
   2  -1   6    4.40    2.10
   2   1   6    3.40    2.20
  -2   1  -6    3.50    1.60
  -2   1  -6    2.90    1.70
   3  -1   6   10.00    2.70
  -3  -1  -6    3.50    2.70
  -3  -1  -6    7.30    1.80
  -3  -1  -6    6.00    1.60
   3   1   6    7.70    2.40
  -3   1  -6    7.10    1.90
  -3   1  -6    7.60    1.80
  -3   1  -6    5.40    2.30
  -4  -1  -6   -0.20    1.30
  -4  -1  -6    0.90    2.00
   4  -1   6    2.40    2.20
  -4  -1  -6    2.20    2.20
  -4   1  -6    2.30    2.20
  -4   1  -6    0.40    1.40
   4   1   6    4.00    2.50
  -4   1  -6    0.50    2.40
  -5  -1  -6    1.50    1.60
   5  -1   6   -0.20    2.40
  -5  -1  -6    1.20    2.60
  -5  -1  -6   -3.00    2.30
   5   1   6   -0.80    2.60
  -5   1  -6    0.90    1.70
  -5   1  -6   -1.40    2.90
  -5   1  -6   -0.70    2.30
  -6  -1  -6   16.20    3.40
   6  -1   6   15.50    3.70
  -6  -1  -6   12.00    3.90
  -6   1  -6   10.30    3.90
  -6   1  -6   13.60    3.60
  -6   1  -6   13.70    3.00
   6   1   6   15.70    4.30
  -7  -1  -6    6.30    3.10
   7  -1   6   12.50    4.10
  -7   1  -6   12.50    6.10
  -7   1  -6    7.40    6.50
   7   1   6    9.50    4.20
  -8  -1  -6    7.70    3.70
   8  -1   6    8.20    4.20
  -8   1  -6   12.50    3.70
   8   1   6   12.90    4.60
  -9  -1  -6   14.10    4.60
   9  -1   6   13.70    5.90
  -9   1  -6   19.10    4.80
   9   1   6    5.30    5.20
  10  -1   6   -9.50    6.10
 -10  -1  -6    8.40    4.80
  10   1   6    3.30    6.90
 -10   1  -6    6.30    4.40
 -13  -2   6   -0.60    4.10
 -13   2   6    6.20    3.70
 -12  -2   6    4.20    5.00
 -12   2   6    3.60    4.30
  12   2  -6   -2.00    6.10
 -12   2   6    2.80    4.60
 -11  -2   6   -1.40    4.20
 -11  -2   6    0.30    4.20
 -11   2   6   -2.50    3.30
 -11   2   6   -3.10    2.90
  11   2  -6   -1.60    5.70
 -10  -2   6    1.10    3.00
 -10  -2   6   -2.30    3.20
 -10   2   6   -1.00    2.70
  10   2  -6    2.60    3.20
 -10   2   6    4.70    4.10
  -9  -2   6   56.89    5.80
  -9  -2   6   43.90    6.70
  -9   2   6   54.69    5.00
   9   2  -6   47.80    5.20
  -9   2   6   35.10    5.70
  -8  -2   6   40.40    5.90
  -8  -2   6   41.80    4.90
   8   2  -6   48.80    4.50
  -8   2   6   48.90    5.40
  -8   2   6   43.40    4.40
  -7  -2   6   25.40    3.60
  -7  -2   6   24.20    5.90
  -7   2   6   32.20    5.00
  -7   2   6   18.50    3.30
  -6  -2   6   13.30    2.40
   6  -2  -6    9.20    2.60
  -6  -2   6    8.30    2.40
   6   2  -6    7.70    2.50
  -6   2   6   10.80    2.40
  -6   2   6   14.40    3.10
   5  -2  -6   22.00    3.00
  -5  -2   6   24.60    3.10
  -5  -2   6   24.90    3.50
  -5   2   6   21.40    2.80
  -5   2   6   28.80    3.70
  -4  -2   6    7.70    2.10
  -4  -2   6   10.20    2.20
   4  -2  -6    9.50    2.00
   4   2  -6    8.40    2.20
  -4   2   6    8.30    1.90
  -3  -2   6   15.30    2.50
  -3  -2   6   15.10    2.40
  -3   2   6   17.40    2.10
   3   2  -6   20.90    2.60
  -3   2   6   15.70    1.90
  -2  -2   6  422.26   19.80
  -2  -2   6  432.86   20.00
  -2   2   6  429.66   19.10
   2   2  -6  412.36   19.50
  -2   2   6  428.86   19.40
   1  -2  -6   17.40    1.90
  -1  -2   6   18.00    2.70
  -1  -2   6   16.40    2.50
  -1   2   6   18.20    1.40
  -1   2   6   20.80    2.30
   1   2  -6   17.90    2.10
   1   2  -6   17.90    2.40
  -1   2   6   17.60    1.50
   0  -2   6  303.97   14.90
   0  -2   6  314.87   15.20
   0  -2  -6  316.37   14.60
   0   2  -6  311.27   15.00
   0   2  -6  299.47   14.30
   0   2   6  303.17   14.80
   1  -2   6  211.58   10.90
  -1  -2  -6  225.38   10.50
   1  -2   6  199.38   10.40
   1   2   6  190.68   10.40
  -1   2  -6  189.28   10.00
  -1   2  -6  189.68   10.50
   2  -2   6    3.10    1.90
  -2  -2  -6    3.20    0.90
  -2  -2  -6    2.80    2.20
  -2  -2  -6    3.10    1.10
   2   2   6    6.10    2.20
  -2   2  -6    2.40    2.00
  -2   2  -6    1.60    1.50
   3  -2   6   88.79    6.40
  -3  -2  -6   86.49    6.10
  -3  -2  -6   82.29    5.40
   3   2   6   98.09    6.40
  -3   2  -6   81.29    5.80
  -3   2  -6   88.79    6.40
  -3   2  -6   90.79    5.40
   4  -2   6  207.08   11.60
  -4  -2  -6  195.28   11.40
  -4  -2  -6  209.68   10.40
  -4   2  -6  209.08   11.70
  -4   2  -6  191.68   11.30
  -4   2  -6  214.98   10.70
   4   2   6  194.08   11.40
   5  -2   6    6.10    2.70
  -5  -2  -6    4.80    1.90
  -5   2  -6   -0.60    2.50
  -5   2  -6   -0.20    2.90
  -5   2  -6    5.40    2.10
   5   2   6    1.70    2.70
   6  -2   6    3.70    3.10
  -6  -2  -6    4.00    2.50
   6   2   6    3.40    3.00
  -6   2  -6    2.30    3.20
  -6   2  -6   -0.20    2.30
  -7  -2  -6   16.40    3.90
   7  -2   6   10.40    4.20
  -7   2  -6   14.30    3.60
   7   2   6   10.40    4.30
  -7   2  -6   -3.40    4.00
   8  -2   6   23.80    4.60
  -8  -2  -6   15.20    3.90
   8   2   6   27.20    5.60
  -8   2  -6   18.50    4.30
  -9  -2  -6   36.20    6.20
   9  -2   6   40.80    6.60
  -9   2  -6   49.60    7.60
   9   2   6   53.19    7.80
 -10  -2  -6   11.70    4.90
  10  -2   6    1.20    6.20
  10   2   6    5.10    7.10
 -10   2  -6   16.20    5.10
 -12  -3   6    6.60    4.80
 -12  -3   6    5.30    7.00
 -12   3   6   11.70    6.90
 -12   3   6   11.70    4.50
  12   3  -6    8.40    7.90
 -11  -3   6    0.00    3.70
 -11  -3   6   -1.90    4.30
 -11   3   6   -4.40    2.60
 -11   3   6  -10.00    4.80
  11   3  -6    0.60    4.50
 -10  -3   6  135.19   10.40
  10   3  -6  130.49    9.20
 -10   3   6  141.69   10.20
 -10   3   6  123.79    8.50
  -9  -3   6    8.10    3.30
  -9  -3   6   14.30    3.50
  -9   3   6   10.20    3.10
   9   3  -6    5.50    2.80
  -9   3   6   15.20    2.60
  -8  -3   6  296.17   15.50
  -8  -3   6  307.17   16.90
  -8   3   6  283.37   14.60
  -8   3   6  297.37   16.20
  -7  -3   6   59.19    5.40
  -7  -3   6   58.39    6.00
  -7   3   6   64.19    6.20
  -7   3   6   61.09    4.40
  -6  -3   6  169.48    9.50
  -6  -3   6  173.18   10.40
  -6   3   6  161.88    8.50
  -6   3   6  161.18    9.70
  -5  -3   6    5.30    2.30
  -5  -3   6    6.20    2.00
  -5   3   6    5.90    1.70
  -5   3   6    3.70    1.30
   5   3  -6    2.20    1.80
  -4  -3   6    5.50    2.10
  -4  -3   6    8.70    1.90
   4   3  -6   10.20    2.20
  -4   3   6    7.80    1.80
  -3  -3   6    6.40    1.80
  -3  -3   6    8.80    2.40
  -3  -3   6    8.00    2.10
  -3   3   6    8.50    2.10
  -3   3   6    7.90    1.60
   3   3  -6    5.10    1.90
  -3   3   6    5.70    1.40
  -2  -3   6   95.19    5.90
  -2  -3   6   96.89    6.00
  -2   3   6   91.29    5.40
  -2   3   6   94.69    5.30
  -2   3   6   96.69    5.20
   2   3  -6   92.29    5.60
   1  -3  -6    0.60    0.90
  -1  -3   6    1.10    1.30
  -1  -3   6    3.80    1.50
  -1   3   6    3.70    1.00
  -1   3   6    3.50    0.80
  -1   3   6    2.10    1.20
   1   3  -6    2.60    1.30
   1   3  -6    3.60    1.50
   0  -3   6   75.49    4.70
   0  -3   6   69.89    5.00
   0  -3  -6   63.89    4.40
   0   3  -6   67.09    4.70
   0   3   6   67.19    4.60
   0   3  -6   69.59    4.50
  -1  -3  -6   25.50    2.90
   1  -3   6   25.20    3.40
   1  -3   6   26.60    2.80
   1   3   6   30.10    3.30
  -1   3  -6   30.90    3.10
  -1   3  -6   25.40    3.30
  -2  -3  -6   66.29    3.80
   2  -3   6   63.99    4.80
  -2  -3  -6   66.69    5.00
   2  -3   6   62.49    5.20
  -2   3  -6   65.89    4.90
  -2   3  -6   63.19    5.20
   2   3   6   68.29    3.50
   2   3   6   67.29    5.10
  -3  -3  -6    4.80    1.70
   3  -3   6    6.00    2.30
  -3  -3  -6   10.40    2.40
  -3   3  -6    9.00    2.90
  -3   3  -6    8.00    2.30
   3   3   6    6.40    2.50
   3   3   6    5.30    1.40
  -4  -3  -6    4.60    1.70
   4  -3   6    7.40    2.50
  -4   3  -6   11.80    3.00
  -4   3  -6    9.40    2.90
   4   3   6    7.90    1.90
  -4   3  -6    3.50    2.00
   4   3   6   12.90    3.50
   5  -3   6    8.30    3.00
  -5  -3  -6    5.40    2.00
  -5   3  -6   11.80    3.10
  -5   3  -6    8.60    3.40
   5   3   6    4.90    3.10
  -5   3  -6    7.20    2.70
   6  -3   6   15.30    4.00
  -6  -3  -6   13.40    3.20
   6   3   6   13.10    3.60
  -6   3  -6   15.40    6.20
  -6   3  -6   19.20    3.50
   7  -3   6    2.80    3.70
  -7  -3  -6    0.90    2.90
   7   3   6   -1.30    3.50
  -7   3  -6   -1.40    2.40
  -7   3  -6   -3.90    3.80
  -8  -3  -6    5.00    3.40
   8  -3   6   -4.60    3.50
   8   3   6    3.90    4.80
  -8   3  -6    8.20    3.20
  -8   3  -6    1.90    5.30
  -9  -3  -6    4.60    4.10
   9  -3   6  -11.30    4.60
   9   3   6    2.80    6.60
  -9   3  -6    1.90    3.80
 -10   3  -6   23.60    5.50
 -12  -4   6   11.80    5.30
 -12   4   6    4.10    4.80
 -12   4   6   -6.90    3.60
  12   4  -6    5.20    6.20
 -11  -4   6   13.10    5.40
 -11  -4   6   15.60    5.00
 -11   4   6   16.10    3.50
 -11   4   6   16.50    4.60
  11   4  -6   -9.40    6.30
 -10  -4   6    7.90    3.60
 -10  -4   6   10.20    4.30
 -10   4   6    1.00    2.40
 -10   4   6   -3.80    2.50
  -9  -4   6   -4.00    2.90
  -9  -4   6    5.80    3.70
  -9   4   6    3.30    2.40
   9   4  -6    3.50    3.30
  -9   4   6    6.60    3.00
  -8  -4   6    4.60    3.10
  -8  -4   6   10.40    3.10
  -8   4   6    8.40    2.50
   8   4  -6   11.80    3.30
  -8   4   6   12.60    3.40
  -7  -4   6   54.99    6.30
  -7   4   6   68.49    4.60
   7   4  -6   68.59    5.60
  -6  -4   6    4.50    2.40
  -6  -4   6    2.40    2.20
  -6   4   6    9.00    2.60
  -6   4   6    5.50    1.40
  -5  -4   6   12.70    2.80
  -5  -4   6   17.10    3.30
  -5   4   6   12.20    1.70
   5   4  -6   17.20    3.00
  -5   4   6   15.60    2.70
  -4  -4   6    2.70    1.90
  -4  -4   6    2.90    2.00
  -4  -4   6    3.90    2.10
  -4   4   6    3.70    1.30
  -4   4   6    3.30    1.70
   4   4  -6    4.30    2.00
  -3  -4   6  282.97   14.50
  -3  -4   6  286.87   14.30
  -3   4   6  284.37   12.90
  -3   4   6  288.47   13.50
  -3   4   6  266.57   14.00
   3   4  -6  284.07   14.10
  -2  -4   6   17.30    2.70
  -2  -4   6   18.70    3.10
   2   4  -6   13.40    2.10
  -2   4   6   14.50    1.80
  -2   4   6   12.50    2.20
  -2   4   6   15.90    1.80
  -1  -4   6  350.86   16.80
  -1  -4   6  351.06   16.80
   1  -4  -6  331.17   15.40
  -1   4   6  318.77   15.50
  -1   4   6  358.16   15.80
   1   4  -6  333.37   16.30
   1   4  -6  342.67   16.60
   0  -4  -6   13.00    1.80
   0  -4   6   15.90    2.40
   0  -4   6   13.00    2.60
   0   4   6   10.90    2.10
   0   4  -6   16.80    2.80
   0   4  -6   16.30    2.60
   0   4   6   13.90    1.40
  -1  -4  -6  617.64   29.00
  -1  -4  -6  647.34   30.00
   1  -4   6  664.03   30.70
   1  -4   6  690.03   30.70
   1   4   6  683.33   30.30
  -1   4  -6  667.83   30.50
  -1   4  -6  678.43   30.70
   1   4   6  666.63   28.90
  -2  -4  -6    6.80    1.60
   2  -4   6   10.90    2.40
   2  -4   6    9.60    2.50
  -2  -4  -6    6.30    2.00
  -2   4  -6    7.80    2.30
  -2   4  -6   12.60    2.80
   2   4   6   11.80    2.60
   2   4   6   11.30    1.90
   3  -4   6  278.87   14.90
  -3  -4  -6  282.97   13.60
   3   4   6  305.27   14.90
  -3   4  -6  276.87   15.00
  -3   4  -6  285.87   15.00
   3   4   6  281.37   13.40
  -4  -4  -6   15.20    2.60
   4  -4   6   14.00    3.30
  -4   4  -6   16.20    3.50
   4   4   6   12.30    3.30
   4   4   6   10.00    2.30
   5  -4   6   52.69    5.70
  -5  -4  -6   57.79    5.10
  -5   4  -6   66.59    5.40
   5   4   6   57.09    4.60
  -5   4  -6   56.99    6.30
  -5   4  -6   60.59    6.00
   5   4   6   71.99    6.40
   6  -4   6    6.60    3.10
  -6  -4  -6    4.00    2.60
   6   4   6    8.50    3.70
  -6   4  -6    5.90    3.00
  -6   4  -6    8.90    3.90
   6   4   6    6.50    2.40
   7  -4   6   36.60    5.40
  -7  -4  -6   36.80    5.20
  -7   4  -6   20.50    5.80
  -7   4  -6   33.10    5.10
   7   4   6   36.20    8.70
   8  -4   6   13.60    5.10
  -8  -4  -6   20.00    4.60
  -8   4  -6   19.80    4.50
  -8   4  -6    9.20    5.10
   8   4   6   20.20    5.50
  -9  -4  -6   44.50    6.10
   9  -4   6   37.20    6.70
  -9   4  -6   38.50    6.20
   9   4   6   21.80    6.60
 -12  -5   6   39.20    7.00
 -12   5   6   17.30    4.70
 -12   5   6   19.80    5.40
 -11  -5   6   29.20    6.10
 -11   5   6   35.50    5.20
  11   5  -6   33.40    6.00
 -11   5   6   36.00    6.60
 -10  -5   6   46.90    7.00
 -10  -5   6   41.60    6.20
 -10   5   6   32.20    5.30
  10   5  -6   41.30    5.80
 -10   5   6   34.20    4.30
  -9  -5   6    6.50    3.70
  -9  -5   6    6.40    3.90
   9   5  -6    6.80    3.00
  -9   5   6    3.70    2.10
  -9   5   6    6.20    3.30
  -8  -5   6  155.18   11.10
  -8  -5   6  147.59    9.90
  -8   5   6  153.98    8.40
   8   5  -6  157.58    9.60
  -8   5   6  141.89    9.90
  -7  -5   6  103.19    7.50
  -7  -5   6   98.79    8.40
  -7   5   6  104.49    7.60
   7   5  -6  108.29    7.30
  -7   5   6  102.49    5.80
  -6  -5   6  128.49    8.10
  -6   5   6  121.69    6.40
  -6   5   6  120.39    7.90
  -5  -5   6  107.79    7.60
  -5  -5   6   98.69    6.80
  -5   5   6   96.39    7.40
  -5   5   6  100.89    6.50
  -5   5   6   97.49    5.00
   5   5  -6   92.79    7.00
  -4  -5   6  232.18   12.10
  -4  -5   6  232.68   12.30
  -4  -5   6  239.58   12.80
  -4   5   6  215.78   12.40
   4   5  -6  222.68   12.20
  -4   5   6  221.08   11.50
  -3  -5   6  100.59    6.50
  -3  -5   6  105.89    7.20
  -3  -5   6  104.09    6.70
  -3   5   6   98.39    6.40
  -3   5   6  106.09    5.10
  -3   5   6   92.09    5.80
   3   5  -6  104.59    6.60
  -2  -5   6   77.69    5.50
  -2  -5   6   80.99    5.90
  -2   5   6   79.09    4.40
   2   5  -6   78.49    5.40
  -2   5   6   68.49    4.90
   1  -5  -6   53.19    3.40
  -1  -5   6   53.69    6.00
  -1  -5   6   60.19    4.70
  -1   5   6   57.99    3.90
   1   5  -6   51.89    4.30
  -1   5   6   54.99    3.80
   1   5  -6   53.39    4.50
   0  -5  -6   95.09    5.50
   0  -5  -6   99.29    5.50
   0  -5   6  117.99    7.00
   0  -5   6  107.59    6.80
   0   5   6  101.49    6.20
   0   5  -6  105.99    6.80
   0   5  -6  101.89    6.60
   0   5   6   98.19    6.00
   1  -5   6    7.20    2.20
  -1  -5  -6    7.60    1.90
  -1  -5  -6    8.20    1.60
   1  -5   6   13.10    2.70
  -1   5  -6    7.80    2.50
   1   5   6    7.40    2.30
  -1   5  -6    1.90    1.90
   2  -5   6   41.30    4.30
   2  -5   6   43.60    4.30
   2   5   6   41.90    3.10
  -2   5  -6   43.30    4.40
   2   5   6   38.70    4.30
  -2   5  -6   41.30    4.30
   3  -5   6    6.30    2.40
   3  -5   6   10.90    2.60
  -3  -5  -6    9.70    2.00
   3   5   6    8.00    2.90
  -3   5  -6    8.00    2.60
   3   5   6    6.30    1.80
  -4  -5  -6    3.70    1.80
   4  -5   6   -1.00    2.00
  -4   5  -6   -0.80    2.50
  -4   5  -6    3.30    2.70
   4   5   6   -2.20    2.10
   4   5   6   -1.20    1.60
  -5  -5  -6    5.80    2.70
   5  -5   6   -1.10    2.40
  -5   5  -6    1.50    2.00
  -5   5  -6    3.10    3.10
   5   5   6    1.10    2.90
   5   5   6    0.60    2.20
  -6  -5  -6    5.30    2.90
   6  -5   6    8.30    3.20
  -6   5  -6    5.00    3.40
  -6   5  -6    1.90    2.90
   6   5   6    2.20    2.50
   6   5   6    2.60    3.30
  -7  -5  -6    1.40    3.10
   7  -5   6    2.40    3.20
  -7   5  -6    1.20    3.20
  -7   5  -6    3.90    4.40
   7   5   6    1.80    3.70
   8  -5   6   21.20    5.50
  -8  -5  -6   16.90    4.70
  -8   5  -6   24.60    5.00
  -8   5  -6   20.00    5.40
   8   5   6   21.30    5.70
   9  -5   6    1.80    5.20
  -9  -5  -6    3.30    4.50
  -9   5  -6   -2.00    3.80
   9   5   6   -2.00    5.00
 -12  -6   6   11.10    4.90
 -12   6   6    7.00    4.20
  12   6  -6   -4.40    7.00
 -12   6   6    1.00    4.00
 -11  -6   6    6.30    5.60
 -11  -6   6   11.60    4.30
 -11   6   6   15.50    4.10
  11   6  -6    6.80    5.50
 -11   6   6   19.30    6.50
 -10  -6   6   12.90    4.60
 -10  -6   6   -0.90    3.90
 -10   6   6    1.60    3.30
  10   6  -6    5.30    3.90
 -10   6   6    1.00    2.60
  -9  -6   6   16.10    5.00
  -9  -6   6    8.70    4.10
  -9   6   6   13.90    3.60
  -9   6   6   15.70    3.00
   9   6  -6    8.10    3.40
  -8  -6   6    2.20    3.80
  -8  -6   6    8.70    3.50
  -8   6   6    8.90    2.50
  -8   6   6    7.00    3.20
   8   6  -6    9.50    3.30
  -7  -6   6   46.50    5.40
  -7  -6   6   34.90    5.80
  -7   6   6   42.10    5.10
  -7   6   6   40.60    3.40
   7   6  -6   46.40    5.10
  -6  -6   6   46.00    5.10
  -6  -6   6   51.39    5.80
  -6   6   6   47.30    4.90
  -6   6   6   57.39    3.30
  -5  -6   6   37.90    5.50
  -5  -6   6   35.90    4.40
  -5   6   6   25.50    4.50
  -5   6   6   33.30    2.10
  -5   6   6   30.70    3.60
  -4  -6   6   26.70    4.80
  -4  -6   6   22.40    3.40
  -4  -6   6   21.70    3.60
  -4   6   6   20.60    3.50
   4   6  -6   18.00    3.20
  -4   6   6   21.80    3.00
  -3  -6   6   43.70    5.40
  -3  -6   6   38.60    3.80
  -3  -6   6   33.80    3.80
  -3   6   6   28.40    3.50
   3   6  -6   37.80    4.10
  -3   6   6   36.40    2.30
  -2  -6   6   46.70    3.90
  -2  -6   6   43.30    4.50
  -2  -6   6   32.80    3.80
  -2   6   6   41.10    2.90
  -2   6   6   34.40    3.60
   2   6  -6   39.90    4.50
   1  -6  -6   74.19    4.90
  -1  -6   6   81.49    6.10
  -1  -6   6   68.99    5.30
   1  -6  -6   66.89    3.60
   1   6  -6   70.99    5.40
  -1   6   6   72.09    4.70
   1   6  -6   75.39    5.60
  -1   6   6   65.59    4.40
   0  -6  -6  511.85   24.00
   0  -6   6  552.84   26.00
   0  -6   6  542.95   25.50
   0  -6  -6  519.05   24.50
   0   6  -6  534.15   25.60
   0   6   6  559.34   24.50
   0   6   6  524.15   24.30
   0   6  -6  543.95   25.40
   1  -6   6  390.26   19.10
   1  -6   6  364.26   18.50
  -1  -6  -6  364.16   17.60
   1   6   6  376.06   18.00
   1   6   6  361.26   17.20
  -1   6  -6  387.16   18.80
  -1   6  -6  376.76   18.60
   2  -6   6   51.19    5.10
  -2  -6  -6   44.40    3.90
   2  -6   6   51.39    4.80
   2   6   6   55.19    3.80
  -2   6  -6   50.99    4.80
   2   6   6   60.99    5.10
  -2   6  -6   54.09    5.50
   3  -6   6   60.89    5.80
  -3  -6  -6   65.19    4.80
   3  -6   6   67.79    5.40
   3   6   6   73.39    5.70
   3   6   6   53.99    4.40
  -3   6  -6   66.79    5.70
  -3   6  -6   70.49    5.90
  -4  -6  -6   66.19    5.00
   4  -6   6   52.29    5.40
   4   6   6   55.39    4.60
  -4   6  -6   56.09    5.70
   5  -6   6   71.49    7.00
  -5  -6  -6   80.19    6.40
   5   6   6   86.59    8.30
  -5   6  -6   84.99    7.20
   5   6   6   76.59    7.10
   6  -6   6   39.00    7.60
  -6  -6  -6   35.50    5.10
  -6   6  -6   40.90    5.80
   6   6   6   39.10    5.80
   6   6   6   33.00    4.20
  -6   6  -6   49.99    5.40
  -7  -6  -6   16.00    7.00
   7  -6   6   19.60    5.70
  -7   6  -6   16.80    4.60
  -7   6  -6   16.20    4.90
   7   6   6    3.30    3.80
   8  -6   6   28.20    6.20
  -8  -6  -6   30.70    5.70
   8   6   6   23.10    5.80
  -8   6  -6   33.20    7.80
  -8   6  -6   31.50    5.20
   9  -6   6    1.00    5.60
  -9  -6  -6    0.80    4.40
  -9   6  -6    1.90    4.00
   9   6   6   12.20    5.80
 -12  -7   6    5.10    5.10
 -12   7   6    6.60    4.10
 -12   7   6   -3.00    4.70
  12   7  -6    0.20    7.40
 -11  -7   6   20.60    5.80
 -11  -7   6    0.20    7.40
  11   7  -6   -3.30    8.60
 -11   7   6   15.30    5.80
 -11   7   6    7.40    4.00
 -10  -7   6   -1.50    3.70
 -10  -7   6   -7.30    7.50
  10   7  -6   -5.20    3.90
 -10   7   6    4.30    3.30
 -10   7   6    7.70    3.60
  -9  -7   6   84.89    8.50
  -9  -7   6  100.29    9.00
  -9   7   6   95.29    6.30
  -9   7   6   99.79    8.30
   9   7  -6   93.09    8.00
  -8  -7   6   85.89    8.60
  -8  -7   6   78.79    7.10
  -8   7   6   85.89    7.50
  -8   7   6   80.99    5.60
   8   7  -6   86.69    7.50
  -7  -7   6  109.09    8.10
  -7  -7   6  120.79    9.50
  -7   7   6  106.69    7.90
  -7   7   6  103.79    5.90
  -6  -7   6  140.39    9.30
  -6  -7   6  151.88   10.60
  -6   7   6  144.09    7.00
  -5  -7   6  158.18    9.30
  -5   7   6  146.09    8.90
  -5   7   6  143.29    9.80
  -4  -7   6   12.40    2.70
  -4  -7   6   10.10    3.20
  -4  -7   6    7.30    2.60
  -4   7   6    7.30    2.20
  -4   7   6   13.40    2.70
  -3  -7   6   45.50    4.30
  -3  -7   6   43.90    4.70
  -3  -7   6   59.79    5.70
  -3   7   6   49.90    2.90
   3   7  -6   55.89    4.90
  -3   7   6   43.30    4.30
   2  -7  -6    0.40    1.50
  -2  -7   6    1.30    2.20
  -2  -7   6   -2.10    1.40
  -2  -7   6    1.40    1.70
  -2   7   6   -0.20    1.40
  -2   7   6    1.30    1.30
   2   7  -6   -0.20    2.00
  -1  -7   6   99.59    6.80
  -1  -7   6  100.69    7.50
   1  -7  -6  102.09    6.60
  -1   7   6   98.69    5.70
  -1   7   6  100.09    6.40
   1   7  -6  105.19    7.10
   1   7  -6  102.29    6.90
   0  -7   6    3.50    2.00
   0  -7  -6    4.70    1.60
   0   7  -6    1.60    1.80
   0   7  -6    6.10    2.70
   0   7   6    3.40    1.70
   0   7   6    4.40    1.70
  -1  -7  -6   85.09    5.80
   1  -7   6   89.49    6.90
   1  -7   6   78.49    6.10
   1   7   6   87.79    5.40
  -1   7  -6   85.09    6.20
  -1   7  -6   92.49    6.70
   1   7   6   91.79    6.10
   2  -7   6    7.80    2.20
   2  -7   6    6.00    2.60
  -2  -7  -6    4.70    1.80
  -2   7  -6    5.20    2.40
  -2   7  -6    8.40    2.60
   2   7   6    5.40    1.80
   3  -7   6    1.40    2.60
  -3  -7  -6    1.10    1.80
   3  -7   6    1.30    3.50
   3   7   6    2.20    2.60
  -3   7  -6    0.40    2.20
   3   7   6   -1.20    1.50
   4  -7   6    0.00    2.20
  -4  -7  -6    1.20    2.60
   4   7   6    1.60    3.00
   4   7   6   -1.10    1.90
  -4   7  -6    0.90    2.50
   5  -7   6    1.60    2.80
  -5  -7  -6    1.90    2.50
   5   7   6   -0.40    3.30
   5   7   6   -4.10    2.10
  -5   7  -6    0.10    2.70
   6  -7   6   -0.10    3.00
  -6  -7  -6    2.10    3.10
  -6   7  -6    4.50    3.50
   6   7   6    3.20    3.50
  -6   7  -6    3.10    3.00
   7  -7   6    1.50    3.70
  -7  -7  -6   11.70    4.30
  -7   7  -6    5.90    3.70
   7   7   6    2.40    3.80
  -7   7  -6    7.40    4.70
  -8  -7  -6   -0.10    4.00
   8  -7   6    0.50    4.40
  -8   7  -6   10.50    5.70
   8   7   6    2.20    4.90
  -8   7  -6    3.90    3.60
  -9  -7  -6    4.50    4.70
   9  -7   6   -2.30    6.70
   9   7   6    2.30    5.60
  -9   7  -6   -2.90    4.40
 -11  -8   6    0.00    4.10
 -11   8   6   -0.40    3.30
 -11   8   6   -6.90    3.60
  11   8  -6    0.80    5.20
 -10  -8   6   11.40    5.20
 -10  -8   6    2.30    5.30
 -10   8   6   12.40    3.40
  10   8  -6    9.50    4.80
 -10   8   6   15.30    4.50
  -9  -8   6    0.20    4.20
  -9  -8   6    7.80    4.20
  -9   8   6    5.50    3.40
   9   8  -6    5.50    3.60
  -9   8   6    5.00    2.60
  -8  -8   6    1.10    3.00
  -8  -8   6    3.90    5.00
  -8   8   6   -0.50    2.70
   8   8  -6    7.50    3.40
  -8   8   6    3.90    2.10
  -7  -8   6    8.00    4.00
  -7  -8   6    8.90    3.40
   7   8  -6    8.50    3.50
  -7   8   6    8.70    3.00
  -7   8   6   10.30    1.90
  -6  -8   6   55.19    5.30
  -6  -8   6   46.20    7.40
  -6   8   6   43.20    4.90
  -5  -8   6   55.69    6.10
  -5  -8   6   51.99    5.30
  -5  -8   6   43.40    5.20
  -5   8   6   46.20    4.70
  -4  -8   6  186.98   10.60
  -4  -8   6  188.58   10.90
  -4   8   6  161.78   10.60
  -3  -8   6  158.28   10.20
  -3  -8   6  170.28    9.90
  -3  -8   6  164.78   11.00
  -3   8   6  182.08    8.00
  -2  -8   6   58.29    4.90
   2  -8  -6   57.09    5.10
  -2  -8   6   60.99    6.20
  -2  -8   6   54.49    5.10
  -2   8   6   61.39    3.70
  -2   8   6   56.59    4.80
   2   8  -6   66.79    7.00
  -1  -8   6   15.20    3.00
  -1  -8   6   14.80    3.70
   1  -8  -6   15.10    3.10
  -1  -8   6   15.40    3.10
   1   8  -6    8.50    2.70
   1   8  -6   12.90    2.90
  -1   8   6   12.60    2.60
  -1   8   6   20.60    2.70
   0  -8   6  251.37   13.60
   0  -8  -6  255.27   13.40
   0  -8   6  266.27   14.70
   0   8   6  245.78   12.90
   0   8  -6  238.78   14.10
   0   8  -6  263.87   13.80
  -1  -8  -6   96.99    6.50
   1  -8   6   95.09    6.80
   1  -8   6   94.79    7.50
   1   8   6  103.39    6.50
   1   8   6   99.19    6.40
  -1   8  -6  102.49    7.20
  -1   8  -6   99.19    8.30
   2  -8   6  194.78   12.70
   2  -8   6  199.98   12.30
  -2  -8  -6  182.28   10.60
   2   8   6  208.38   11.00
   2   8   6  191.88   10.30
  -2   8  -6  198.38   11.40
   3  -8   6    1.60    2.40
   3  -8   6    0.20    2.60
  -3  -8  -6    7.80    2.40
   3   8   6    3.20    2.50
  -3   8  -6    2.50    2.60
   3   8   6    4.20    2.00
   4  -8   6   98.19    8.40
   4  -8   6   93.09    7.30
  -4  -8  -6   99.59    7.30
   4   8   6   92.99    7.50
  -4   8  -6   90.09    7.60
  -5  -8  -6    8.70    3.70
   5  -8   6    2.40    2.80
  -5   8  -6    7.30    3.30
   5   8   6    9.50    4.00
   5   8   6    9.80    2.80
  -6  -8  -6  118.79    8.80
   6  -8   6  108.69    8.30
   6   8   6  102.09    8.80
  -6   8  -6   83.39    8.70
  -6   8  -6  112.09    8.80
   7  -8   6    0.10    3.80
  -7  -8  -6   10.70    4.10
  -7   8  -6    7.10    3.40
  -7   8  -6    0.90    4.30
   7   8   6    3.50    4.40
  -8  -8  -6    3.60    5.10
   8  -8   6    7.70    5.60
  -8   8  -6    1.10    3.80
   8   8   6   -1.20    4.60
 -11  -9   6   27.70    7.70
 -11   9   6   28.00    6.00
  11   9  -6   10.80    6.20
 -11   9   6   31.80    5.90
 -10  -9   6   14.40    5.10
 -10   9   6   10.70    3.50
  10   9  -6    2.30    4.60
  -9  -9   6   93.59    9.60
  -9   9   6   98.79    6.40
   9   9  -6   88.79    8.20
  -9   9   6   82.59    8.10
  -8  -9   6   12.90    4.30
  -8  -9   6   10.20    4.20
   8   9  -6    5.10    3.40
  -8   9   6   11.30    2.50
  -8   9   6    7.20    3.10
  -7  -9   6   20.40    4.30
  -7  -9   6   26.30    5.90
   7   9  -6   28.20    5.00
  -7   9   6   22.90    2.60
  -7   9   6   25.00    4.80
  -6  -9   6   61.79    7.20
  -6  -9   6   41.40    5.70
  -6   9   6   55.89    5.40
  -5  -9   6  156.38   10.30
  -5  -9   6  186.38   11.20
  -5  -9   6  179.48   12.10
  -4  -9   6   31.70    4.70
  -4  -9   6   43.30    4.90
  -4  -9   6   45.30    6.40
   3  -9  -6  150.98    9.40
  -3  -9   6  132.19    8.90
  -3  -9   6  148.79   10.90
  -3  -9   6  128.49    8.60
  -3   9   6  132.39    9.00
   2  -9  -6   14.30    3.50
  -2  -9   6    9.50    3.00
  -2  -9   6    7.70    3.50
  -2  -9   6    9.60    2.70
  -2   9   6   12.10    1.90
  -1  -9   6   97.89    6.90
  -1  -9   6  104.39    7.50
   1  -9  -6  118.29    7.80
  -1  -9   6  122.59    9.00
  -1   9   6  117.79    7.50
  -1   9   6  108.09    6.30
   0  -9   6    3.00    2.20
   0  -9  -6    6.20    2.40
   0  -9   6    2.70    2.70
   0   9  -6    4.20    2.40
   0   9   6    6.70    2.20
   0   9   6    4.10    2.10
   1  -9   6   19.50    4.00
  -1  -9  -6   11.90    2.80
   1  -9   6   11.70    3.30
   1   9   6   13.10    2.80
  -1   9  -6   10.10    2.60
   1   9   6   14.10    2.90
  -2  -9  -6    5.20    2.60
   2  -9   6    1.80    2.10
   2  -9   6   -0.70    2.00
   2   9   6   -0.80    2.10
   2   9   6    3.30    2.00
  -2   9  -6    1.50    2.20
   3  -9   6    4.60    3.20
   3  -9   6    3.50    2.40
  -3  -9  -6    2.00    2.50
  -3   9  -6    2.10    2.50
   3   9   6    5.50    2.30
  -4  -9  -6    3.00    2.50
   4  -9   6   -0.10    2.30
   4  -9   6    5.00    3.10
  -4   9  -6    1.20    2.80
   4   9   6    0.90    2.30
   4   9   6    0.50    3.10
   5  -9   6    1.90    3.20
  -5  -9  -6    2.20    3.30
  -5   9  -6    5.20    3.40
   5   9   6    2.40    3.20
  -6  -9  -6    3.20    4.60
   6  -9   6    3.00    3.20
  -6   9  -6    1.90    3.60
   6   9   6   -2.20    3.70
  -7  -9  -6   14.00    5.30
   7  -9   6    7.00    4.50
  -7   9  -6   19.00    4.40
  -7   9  -6   12.50    5.50
   7   9   6    5.90    5.10
  -8  -9  -6    3.30    4.90
  -8   9  -6    2.60    3.90
   8   9   6   -2.40    4.50
 -11 -10   6    4.20    4.40
 -11  10   6    0.60    4.00
 -11  10   6    2.00    3.60
  11  10  -6    6.60    6.00
 -10 -10   6    4.30    4.60
  10  10  -6    7.30    5.40
 -10  10   6   12.00    4.40
 -10  10   6    8.20    2.70
  -9 -10   6    1.50    3.90
  -9  10   6    4.80    3.40
  -9  10   6    6.30    2.40
   9  10  -6   11.00    4.50
  -8 -10   6    9.40    4.30
  -8  10   6   15.50    4.30
   8  10  -6   20.80    4.50
  -8  10   6   14.50    2.70
  -7 -10   6    0.00    3.40
  -7  10   6    2.30    1.60
   7  10  -6    1.40    3.30
  -7  10   6    0.50    2.70
  -6 -10   6   68.29    7.10
  -6 -10   6   65.49    9.60
  -6  10   6   80.69    6.60
  -5 -10   6  116.09   10.00
  -5 -10   6  120.09    8.90
  -4 -10   6    4.30    3.20
  -4 -10   6    4.40    3.10
  -4 -10   6    3.60    2.60
  -3 -10   6   33.00    5.10
   3 -10  -6   32.70    5.00
  -3 -10   6   44.70    6.30
  -3  10   6   32.20    2.80
   2 -10  -6    7.20    2.80
  -2 -10   6    9.60    3.70
  -2 -10   6    6.40    2.30
  -2  10   6    7.80    1.70
  -2  10   6    1.80    2.30
  -1 -10   6    1.40    1.60
   1 -10  -6    4.10    2.50
  -1 -10   6    2.40    3.00
  -1  10   6    3.00    1.90
  -1  10   6    4.40    2.60
   0 -10   6   43.70    6.50
   0 -10  -6   46.60    5.10
   0  10   6   39.80    4.10
   0  10   6   35.90    4.70
   0  10  -6   41.00    4.70
   1 -10   6   41.70    6.50
   1 -10   6   49.50    5.10
  -1 -10  -6   46.20    5.10
   1  10   6   49.80    4.70
   1  10   6   45.50    5.40
  -1  10  -6   45.90    5.10
  -2 -10  -6   26.60    4.70
   2 -10   6   28.00    5.40
   2 -10   6   22.10    4.10
   2  10   6   19.70    3.50
   2  10   6   26.90    4.40
  -2  10  -6   23.70    4.20
   3 -10   6  131.49   10.10
   3 -10   6  109.59    7.90
  -3 -10  -6  121.09    8.50
  -3  10  -6  109.39    8.30
   3  10   6  112.09    8.10
   3  10   6  100.39    7.30
   4 -10   6   90.99    7.10
  -4 -10  -6   91.19    7.50
   4 -10   6   86.39    8.60
  -4  10  -6   84.69    7.60
   4  10   6   85.29    7.30
   5 -10   6   51.09    6.10
  -5 -10  -6   60.89    7.30
   5  10   6   64.69    7.00
  -5  10  -6   52.09    6.60
  -6 -10  -6    1.60    4.00
  -6  10  -6   -0.50    4.10
   6  10   6    1.10    3.40
  -7 -10  -6    1.30    4.60
   7  10   6    5.80    4.80
  -7  10  -6   -3.50    3.10
  -7  10  -6   13.90    6.50
  -8 -10  -6    3.50    5.20
   8  10   6    7.80    5.10
  -8  10  -6    1.10    3.90
 -10 -11   6   41.40    8.00
  10  11  -6   27.60    7.10
 -10  11   6   38.10    7.00
 -10  11   6   40.40    4.70
  -9 -11   6   28.30    6.70
   9  11  -6   43.90    6.80
  -9  11   6   46.00    7.30
  -9  11   6   48.10    4.40
  -8 -11   6  108.39   10.80
   8  11  -6  134.49   10.10
  -8  11   6  122.19    9.70
  -8  11   6  121.89    6.80
  -7 -11   6   65.09    9.90
  -7  11   6   65.39    6.60
  -7  11   6   61.19    3.90
  -6 -11   6   44.50    8.30
  -6 -11   6   22.20    4.70
  -6  11   6   30.50    5.40
  -5 -11   6    4.20    3.50
  -5 -11   6    0.60    3.20
  -4 -11   6  220.68   13.20
  -4 -11   6  216.88   14.40
  -3 -11   6   15.80    3.60
   3 -11  -6   22.10    5.10
  -3 -11   6   21.10    5.20
  -3  11   6   23.00    2.50
   2 -11  -6  342.17   18.20
  -2 -11   6  303.07   17.00
  -2 -11   6  336.77   18.90
  -2  11   6  310.87   15.10
  -1 -11   6   30.90    4.50
   1 -11  -6   30.90    5.10
  -1 -11   6   28.00    5.80
  -1  11   6   27.40    4.70
  -1  11   6   27.40    3.50
   0 -11   6    4.40    2.60
   0 -11   6    3.70    2.00
   0 -11  -6    5.40    2.40
   0  11   6    5.70    2.70
   0  11  -6    0.50    2.30
   0  11   6    5.40    2.40
   1 -11   6    3.40    2.90
   1 -11   6    2.90    2.40
  -1 -11  -6    1.60    2.50
   1  11   6    2.30    2.60
   1  11   6   -0.10    2.40
  -1  11  -6    3.20    2.60
   2 -11   6   15.50    4.50
  -2 -11  -6   19.70    4.10
   2 -11   6    7.60    3.00
   2  11   6    7.30    3.00
   2  11   6   15.60    3.60
  -2  11  -6   14.00    3.60
  -3 -11  -6   -0.40    2.80
   3 -11   6   -1.20    2.00
   3 -11   6    4.80    3.80
  -3  11  -6    1.30    2.90
   3  11   6    1.10    2.70
  -4 -11  -6    0.20    3.30
   4 -11   6    3.40    2.50
   4 -11   6    1.30    3.30
  -4  11  -6   -0.20    3.30
   4  11   6    1.90    3.00
   5 -11   6   26.30    5.60
  -5 -11  -6   18.70    4.60
   5  11   6   16.40    4.60
  -5  11  -6   11.20    4.30
   6 -11   6    0.70    5.00
  -6 -11  -6   15.50    5.00
   6  11   6   10.50    4.20
  -6  11  -6    8.50    4.80
   7 -11   6   -3.90    5.40
  -7 -11  -6    5.70    4.80
  -7  11  -6   -4.50    5.60
   7  11   6    6.00    4.70
 -10 -12   6    5.40    4.90
 -10  12   6    1.20    2.80
  10  12  -6   -5.60    5.80
 -10  12   6    0.60    3.90
  -9 -12   6   14.00    6.00
  -9  12   6    9.30    3.90
  -9  12   6    7.70    2.30
   9  12  -6   16.30    5.70
  -8  12   6    2.70    1.70
   8  12  -6    2.30    4.20
  -8  12   6    5.80    4.80
  -7 -12   6   33.50    5.90
  -7 -12   6   25.40    6.20
  -7  12   6   29.60    2.70
  -7  12   6   35.50    5.60
  -6 -12   6   12.50    4.60
  -6 -12   6    4.40    3.50
  -5 -12   6   44.30    7.10
  -5 -12   6   58.59    6.50
   4 -12  -6    4.40    3.40
  -4 -12   6    3.30    4.20
  -4 -12   6    4.00    2.80
  -3 -12   6  153.58   10.20
  -3 -12   6  144.09   11.70
   3 -12  -6  150.18   11.00
  -3  12   6  156.78    8.00
  -2 -12   6    8.10    2.70
  -2 -12   6    3.60    3.60
   2 -12  -6    0.10    2.90
  -2  12   6    5.20    1.90
  -1 -12   6   74.19   10.60
   1 -12  -6   68.89    6.70
  -1 -12   6   61.39    7.40
  -1  12   6   56.39    5.10
   0 -12   6   24.00    4.10
   0 -12  -6   25.40    4.80
   0 -12   6   27.30    5.90
   0  12   6   27.10    4.00
  -1 -12  -6   13.00    4.10
   1 -12   6   11.90    4.00
   1 -12   6   12.00    3.10
   1  12   6    7.90    3.00
  -1  12  -6   10.20    3.30
   2 -12   6    4.40    2.60
   2 -12   6   -0.50    2.30
  -2 -12  -6   -0.30    2.80
   2  12   6    1.20    2.80
  -2  12  -6   -3.90    2.70
   3 -12   6  122.39   10.00
   3 -12   6   95.49    7.80
  -3  12  -6  117.79    8.90
   3  12   6  100.79    8.10
  -4 -12  -6   -1.50    3.40
   4 -12   6    0.50    3.50
   4  12   6    5.80    2.90
  -4  12  -6    0.30    3.20
  -5 -12  -6  152.48   11.30
   5 -12   6  168.08   12.60
   5 -12   6  127.79   10.50
   5  12   6  152.28   10.80
  -5  12  -6  147.59   11.20
   6 -12   6   14.70    5.50
  -6 -12  -6   19.10    5.20
   6  12   6   14.00    5.10
  -7 -12  -6   12.10    5.50
  -7  12  -6    0.50    4.80
  -9 -13   6    4.60    4.20
  -9  13   6   -0.80    3.00
  -9  13   6   -0.80    1.90
   9  13  -6    0.50    5.40
  -8 -13   6   53.49    7.90
  -8 -13   6   45.10    8.20
  -8  13   6   62.99    4.10
  -7 -13   6   39.70    6.50
  -7 -13   6   46.30   10.00
  -7  13   6   39.40    6.70
  -6 -13   6  127.29   10.40
  -6 -13   6  128.29   11.60
  -5 -13   6    2.70    4.10
  -5 -13   6   -0.60    3.00
  -4 -13   6   47.50    7.70
   4 -13  -6   38.70    6.50
  -4 -13   6   37.80    6.20
  -3 -13   6    1.20    2.70
   3 -13  -6    1.00    3.00
  -3 -13   6    3.50    3.40
  -3  13   6    1.40    1.60
  -2 -13   6   71.89   10.00
   2 -13  -6   64.39    7.10
  -2 -13   6   55.39    5.80
  -2  13   6   56.69    4.60
  -1 -13   6   -0.40    3.40
  -1 -13   6   -1.20    1.70
   1 -13  -6    1.40    2.80
  -1  13   6   -0.70    1.90
   0 -13   6   13.50    3.40
   0 -13   6   19.30    5.00
   0 -13  -6   13.30    4.30
   0  13   6   16.00    3.30
   1 -13   6    0.40    2.80
   1 -13   6   -2.10    2.00
  -1 -13  -6    5.70    3.50
  -1  13  -6    0.60    2.90
   1  13   6    1.20    2.80
   2 -13   6   -2.70    2.90
  -2 -13  -6    0.00    3.20
   2 -13   6    1.60    2.60
  -2  13  -6    0.00    3.00
   2  13   6    2.00    2.80
  -3 -13  -6    3.60    3.60
   3 -13   6    3.10    3.20
  -3  13  -6    3.70    3.20
   3  13   6   -0.50    2.90
  -4 -13  -6    2.20    3.80
   4 -13   6    8.80    4.10
   4 -13   6   -1.70    3.60
   4  13   6    2.80    3.60
  -4  13  -6    2.20    3.20
  -5 -13  -6    8.30    4.50
   5 -13   6    6.20    3.70
   5 -13   6    4.90    4.50
  -5  13  -6   -1.00    3.30
   5  13   6    9.60    4.80
  -6 -13  -6    0.60    4.30
   6  13   6    0.60    4.40
  -8 -14   6   10.50    5.50
  -8 -14   6    1.30    5.00
  -8  14   6    1.50    3.90
  -7 -14   6   13.50    5.50
  -7 -14   6   19.70    7.10
  -7  14   6   15.10    5.30
  -6 -14   6   21.50    5.20
  -5 -14   6    3.30    4.40
  -5 -14   6   -4.50    3.00
   4 -14  -6   12.20    4.10
  -4 -14   6    7.80    4.30
  -4 -14   6    7.20    3.50
  -3 -14   6   63.09    9.30
   3 -14  -6   62.19    7.30
  -3 -14   6   42.80    5.60
  -3  14   6   44.00    4.10
  -2 -14   6   10.10    3.40
   2 -14  -6   18.90    4.40
  -2 -14   6   16.80    5.70
  -2  14   6   12.60    2.80
   1 -14  -6    1.20    4.00
  -1 -14   6    0.70    2.30
  -1 -14   6    8.50    4.30
  -1  14   6    2.80    2.40
   0 -14  -6   41.70    6.50
   0 -14   6   27.00    4.60
   0 -14   6   40.70    7.60
   0  14   6   37.20    4.80
   1 -14   6  101.49    8.20
   1 -14   6  112.59   10.50
  -1 -14  -6  103.79    9.30
   1  14   6  119.89    8.10
   2 -14   6   13.10    4.40
  -2 -14  -6    8.30    3.90
   2  14   6   11.90    3.80
  -2  14  -6    9.50    3.70
  -3 -14  -6   46.50    6.90
   3 -14   6   33.00    5.40
   3 -14   6   56.39    8.90
  -3  14  -6   39.80    6.00
   3  14   6   39.30    5.90
   4 -14   6    5.00    4.60
   4 -14   6   -6.20    3.80
  -4 -14  -6   -1.50    4.50
  -4  14  -6    3.40    3.40
   5 -14   6   19.00    5.00
  -5 -14  -6    9.30    4.60
   5  14   6    7.00    4.40
  -7 -15   6   35.00    8.20
  -7 -15   6   17.00    6.10
  -7  15   6   48.90    7.70
  -6 -15   6   -2.10    3.90
  -6 -15   6    2.10    5.00
  -5 -15   6   46.50    6.90
  -5 -15   6   55.19    8.40
  -4 -15   6    1.50    2.80
   4 -15  -6    0.00    3.20
  -4 -15   6    2.30    4.40
   3 -15  -6   25.10    5.20
  -3 -15   6   12.40    3.40
  -3 -15   6   20.80    6.30
   2 -15  -6    3.70    3.90
  -2 -15   6   11.70    3.40
  -2 -15   6    3.80    4.00
  -2  15   6    8.10    2.60
   1 -15  -6   64.39    8.90
  -1 -15   6   41.50    5.50
  -1 -15   6   51.79    8.30
  -1  15   6   48.40    5.00
   0 -15   6   12.20    4.20
   0 -15  -6    8.00    4.20
   0 -15   6    2.70    2.70
   0  15   6    7.90    3.00
  -1 -15  -6    2.80    3.70
   1 -15   6   10.50    4.60
   1  15   6    8.40    3.80
   2 -15   6    0.00    3.00
  -2 -15  -6    6.40    3.80
   2 -15   6    1.70    3.30
  -2  15  -6    4.90    3.50
   3 -15   6   10.50    5.40
   3 -15   6    2.00    3.70
  -3 -15  -6    4.70    4.50
   3  15   6   -3.60    3.20
  -3  15  -6    0.30    3.50
   4 -15   6    7.50    4.40
  -4 -15  -6   -3.60    3.90
   4  15   6   -1.40    3.80
  -6 -16   6    4.90    4.50
  -6 -16   6    2.10    4.70
  -5 -16   6    8.10    4.20
  -5 -16   6   -0.10    3.60
  -4 -16   6   40.30    8.30
  -4 -16   6   29.60    5.60
   4 -16  -6   42.90    8.40
   3 -16  -6    1.90    3.40
  -3 -16   6   -2.50    4.70
  -3 -16   6    0.00    3.70
  -2 -16   6   25.90    4.70
  -2 -16   6   33.50    7.40
   2 -16  -6   35.70    6.00
  -2  16   6   36.10    4.20
  -1 -16   6    0.40    3.20
  -1 -16   6   15.00    8.20
   1 -16  -6    8.60    4.20
  -1  16   6    1.80    2.50
   0 -16   6   93.69   14.20
   0 -16  -6   86.39    8.70
   0  16   6   81.79    6.90
  -1 -16  -6    6.90    4.20
   1 -16   6    9.20    3.50
   1 -16   6   11.70    4.80
   1  16   6    6.70    3.50
   2 -16   6   57.49    7.30
  -2 -16  -6   74.69    8.20
   2 -16   6   55.09    8.70
   2  16   6   42.60    6.30
  -3 -16  -6    1.90    4.60
   3 -16   6    0.50    3.90
   3  16   6   -5.10    3.30
  -5 -17   6   28.60    6.90
  -5 -17   6   19.90    6.10
  -4 -17   6   11.00    6.40
  -4 -17   6    0.50    5.10
   3 -17  -6   20.20    5.80
  -3 -17   6   15.90    6.30
  -3 -17   6    7.30    4.20
  -2 -17   6   -6.00    3.10
   2 -17  -6   -3.40    4.30
  -2 -17   6   -2.60    3.20
  -2  17   6   -1.10    2.40
   1 -17  -6   39.50    7.20
  -1 -17   6   27.90    6.80
  -1  17   6   22.90    4.00
   0 -17   6    2.60    4.20
   0 -17   6    1.80    3.40
   0 -17  -6    2.20    4.90
   0  17   6    3.00    2.40
  -1 -17  -6   16.10    5.40
   1 -17   6   12.20    5.40
   1  17   6   12.10    3.70
  -2 -17  -6    4.30    4.20
   2  17   6   -1.40    3.50
   2 -18  -6   10.90    6.40
  -2 -18   6   18.70    5.50
  -1 -18   6    6.30    4.30
   1 -18  -6    7.20    6.10
  -1  18   6    6.40    2.50
 -13   0   7   10.00    5.20
 -12   0   7    7.60    4.70
 -12   0   7  -10.10    4.00
 -11   0   7   18.20    5.70
 -11   0   7   22.90    4.60
 -10   0   7   -4.00    2.50
 -10   0   7    5.20    3.30
  -9   0   7   26.70    4.00
  -9   0   7   11.90    3.50
  -8   0   7   -0.50    2.60
  -8   0   7    2.90    2.20
  -7   0   7   60.99    5.20
  -7   0   7   66.99    6.20
   6   0  -7    0.00    2.00
  -6   0   7   -1.10    1.70
  -6   0   7   -2.00    1.60
  -5   0   7  221.78   10.70
  -5   0   7  199.38   11.20
   5   0  -7  194.08   10.80
  -4   0   7    1.30    1.40
  -4   0   7   -1.40    1.10
   4   0  -7    0.80    1.40
   3   0  -7   76.89    4.60
  -3   0   7   70.89    4.90
  -3   0   7   72.19    4.70
  -2   0   7   -0.10    0.90
   2   0  -7    0.60    0.90
  -2   0   7    0.00    1.50
  -1   0   7  127.29    7.20
  -1   0   7  108.69    6.00
   1   0  -7  131.59    5.90
   1   0  -7  137.09    9.10
   0   0   7    6.30    2.00
  -1   0  -7    0.70    1.60
  -1   0  -7    3.10    0.60
   1   0   7    1.00    1.70
   2   0   7    0.50    1.60
  -2   0  -7    1.10    0.80
  -2   0  -7    0.80    1.10
  -2   0  -7    1.00    1.80
  -3   0  -7  250.07   12.30
  -3   0  -7  249.88   11.90
  -3   0  -7  243.28   13.40
   3   0   7  251.47   13.60
  -4   0  -7    1.60    1.60
   4   0   7    3.40    2.40
  -4   0  -7    1.10    2.10
  -4   0  -7   -2.70    2.10
  -5   0  -7   32.20    4.80
  -5   0  -7   38.80    4.00
   5   0   7   41.70    5.50
   6   0   7    3.20    3.30
  -6   0  -7   -0.70    2.10
  -6   0  -7   -4.30    3.50
  -7   0  -7   37.90    5.30
   7   0   7   38.30    6.20
   8   0   7   -0.10    4.50
  -8   0  -7   -3.50    3.20
  -9   0  -7    9.70    4.60
   9   0   7   16.30    6.50
 -12  -1   7   12.30    5.20
 -12  -1   7   15.00    5.60
 -12   1   7   11.00    4.30
 -12   1   7   13.20    4.50
 -11  -1   7    5.70    4.30
 -11  -1   7    9.80    4.10
 -11   1   7   13.30    4.20
 -11   1   7    9.30    3.90
 -10  -1   7   26.60    4.80
 -10  -1   7   31.30    5.60
 -10   1   7   35.10    4.80
 -10   1   7   33.00    5.20
  -9  -1   7  176.68   10.20
  -9  -1   7  153.98   11.10
  -9   1   7  165.38   11.10
  -9   1   7  168.48    9.80
  -8  -1   7  535.15   25.20
  -8  -1   7  516.75   26.50
  -8   1   7  521.85   24.90
  -8   1   7  542.65   26.40
  -7  -1   7  284.07   14.80
  -7  -1   7  289.07   17.10
  -7   1   7  294.37   14.60
  -7   1   7  298.87   15.70
  -6  -1   7  189.18   11.10
   6  -1  -7  185.48   10.60
  -6  -1   7  191.88   10.30
  -6   1   7  198.18   10.90
  -6   1   7  189.78   10.00
   6   1  -7  185.38   10.70
  -5  -1   7   59.89    4.40
  -5  -1   7   58.19    4.90
   5  -1  -7   55.39    4.40
  -5   1   7   61.79    4.70
  -5   1   7   53.09    4.10
   5   1  -7   49.30    5.00
  -4  -1   7  235.28   12.20
   4  -1  -7  248.78   12.20
  -4  -1   7  235.88   12.30
  -4  -1   7  248.08   12.50
  -4   1   7  243.28   12.00
  -4   1   7  250.57   12.30
   4   1  -7  244.48   12.30
  -3  -1   7  186.48    9.60
  -3  -1   7  178.38    9.70
   3  -1  -7  178.88    9.10
  -3   1   7  186.28    9.40
   3   1  -7  185.78    9.40
  -3   1   7  182.58    9.20
  -2  -1   7   55.69    3.70
   2  -1  -7   53.99    3.90
  -2  -1   7   47.70    4.00
   2  -1  -7   51.19    3.60
   2   1  -7   41.70    4.60
  -2   1   7   49.99    3.20
  -2   1   7   53.89    3.90
   2   1  -7   51.79    3.40
  -1  -1   7   34.90    2.60
  -1  -1   7   36.50    3.50
   1  -1  -7   41.00    3.30
  -1   1   7   30.20    1.80
   1   1  -7   35.30    3.20
  -1   1   7   24.30    3.20
   1   1  -7   31.40    2.70
   0  -1  -7   21.00    2.80
   0  -1   7   24.60    3.20
   0  -1   7   21.30    2.00
   0   1  -7   20.10    1.80
   0   1  -7   25.80    2.90
   0   1   7   16.90    2.90
   1  -1   7   18.40    3.30
  -1  -1  -7   16.50    2.90
   1   1   7   17.30    3.00
  -1   1  -7   14.00    2.90
  -1   1  -7   19.20    2.00
  -2  -1  -7   47.20    2.90
   2  -1   7   51.89    4.60
  -2  -1  -7   51.39    2.80
  -2  -1  -7   48.70    4.40
  -2   1  -7   49.80    3.60
  -2   1  -7   51.39    5.40
   2   1   7   49.10    4.70
   3  -1   7   13.20    3.10
  -3  -1  -7   15.60    2.30
  -3  -1  -7   11.90    3.10
   3   1   7   21.40    3.70
  -3   1  -7   18.20    2.20
  -3   1  -7   16.60    3.20
  -3   1  -7   16.10    2.60
  -4  -1  -7   22.40    3.10
  -4  -1  -7   20.60    3.20
   4  -1   7   20.20    4.10
  -4   1  -7   25.80    2.90
  -4   1  -7   24.40    3.60
  -4   1  -7   19.30    3.60
   4   1   7   21.80    4.20
  -5  -1  -7   29.00    4.10
   5  -1   7   36.00    5.30
  -5  -1  -7   34.10    3.90
  -5   1  -7   33.20    5.70
  -5   1  -7   32.40    4.80
   5   1   7   41.50    5.60
  -5   1  -7   34.70    4.10
   6  -1   7    8.60    3.90
  -6  -1  -7    0.60    2.40
  -6  -1  -7    0.50    3.50
   6   1   7    3.60    3.00
  -6   1  -7    2.60    3.80
  -6   1  -7   -1.20    2.00
   7  -1   7    1.20    3.80
  -7  -1  -7   -3.10    2.80
  -7   1  -7    7.60    5.30
   7   1   7    1.70    3.80
  -8  -1  -7    5.30    4.10
   8  -1   7    3.80    4.80
  -8   1  -7   10.50    4.00
   8   1   7   11.60    5.10
   9  -1   7    3.40    5.90
  -9  -1  -7    1.00    4.00
  -9   1  -7   10.00    3.90
   9   1   7   -1.00    6.00
 -12  -2   7   -4.40    5.10
 -12  -2   7   -1.80    4.10
  12   2  -7   -6.80    6.10
 -12   2   7   -1.30    3.80
 -12   2   7   -9.80    3.70
 -11  -2   7   -3.10    3.90
 -11  -2   7   -6.90    4.20
  11   2  -7   -1.30    4.30
 -11   2   7   -2.90    3.40
 -11   2   7    0.80    3.80
 -10  -2   7   18.10    4.60
 -10  -2   7   23.70    4.40
 -10   2   7   17.90    4.20
  -9  -2   7   18.20    3.40
  -9  -2   7   13.70    4.30
  -9   2   7   16.10    4.10
  -9   2   7   22.90    3.70
  -8  -2   7   53.89    6.40
  -8  -2   7   57.99    5.60
  -8   2   7   65.59    4.90
  -8   2   7   57.59    6.00
  -7  -2   7   28.20    4.00
  -7   2   7   34.00    3.50
  -7   2   7   24.80    4.00
  -6  -2   7   61.99    5.80
  -6  -2   7   74.39    5.50
   6  -2  -7   69.39    5.40
  -6   2   7   75.29    4.70
  -6   2   7   62.59    5.30
   6   2  -7   63.09    5.40
  -5  -2   7   66.99    5.00
  -5  -2   7   54.19    5.10
   5  -2  -7   55.49    4.60
  -5   2   7   65.29    4.20
   5   2  -7   61.89    5.70
  -5   2   7   67.59    4.90
   4  -2  -7  191.98   10.00
  -4  -2   7  196.58   10.60
  -4  -2   7  211.68   10.40
  -4  -2   7  187.08   10.40
  -4   2   7  197.08    9.80
  -4   2   7  190.38   10.00
   4   2  -7  192.98   10.40
  -3  -2   7    1.30    1.50
  -3  -2   7    4.00    1.40
  -3   2   7    5.20    1.50
  -3   2   7    3.80    1.30
   3   2  -7    5.50    1.80
  -2  -2   7    5.60    1.70
  -2  -2   7    4.40    1.80
   2   2  -7    4.00    1.60
  -2   2   7    3.90    1.10
  -2   2   7    5.50    1.60
   2   2  -7    8.00    1.80
  -2   2   7    7.70    1.60
  -1  -2   7   90.29    5.90
   1  -2  -7   84.59    5.10
  -1  -2   7   81.89    5.20
  -1   2   7   85.99    5.50
   1   2  -7   85.99    5.60
   1   2  -7   88.79    5.00
   0  -2  -7   69.49    4.70
   0  -2   7   73.19    5.20
   0   2  -7   66.19    4.90
   0   2   7   68.49    5.10
   0   2  -7   65.39    4.20
  -1  -2  -7   84.69    5.70
   1  -2   7   89.79    6.10
   1  -2   7   86.19    5.20
  -1   2  -7   90.59    6.10
   1   2   7   86.59    5.90
  -1   2  -7   85.09    5.20
   2  -2   7  118.99    7.60
  -2  -2  -7  120.79    7.20
  -2  -2  -7  108.39    5.30
  -2   2  -7  123.49    7.80
  -2   2  -7  110.69    6.60
   2   2   7  112.09    7.40
  -3  -2  -7  223.58   12.10
  -3  -2  -7  219.18   11.90
   3  -2   7  267.57   13.70
   3   2   7  266.77   13.50
  -3   2  -7  273.07   12.30
  -3   2  -7  249.38   12.90
  -3   2  -7  257.67   15.50
   4  -2   7    7.00    2.60
  -4  -2  -7   10.90    2.60
  -4  -2  -7   11.00    2.00
   4   2   7    9.70    3.30
  -4   2  -7   13.80    3.80
  -4   2  -7    8.50    2.70
  -4   2  -7    9.40    2.20
   5  -2   7  240.48   14.00
  -5  -2  -7  242.48   13.00
  -5  -2  -7  252.57   12.70
   5   2   7  250.87   14.20
  -5   2  -7  259.77   13.00
  -5   2  -7  211.88   13.60
  -5   2  -7  260.57   14.10
  -6  -2  -7   35.10    5.10
   6  -2   7   36.80    5.60
  -6  -2  -7   44.80    4.80
  -6   2  -7   36.70    4.70
   6   2   7   41.80    6.40
   7  -2   7    0.70    3.60
  -7  -2  -7    1.90    2.80
   7   2   7   -1.70    3.80
  -7   2  -7    2.20    3.10
  -8  -2  -7    6.90    3.80
   8  -2   7    8.50    4.90
  -8   2  -7   11.20    4.10
   8   2   7   18.40    8.30
  -9  -2  -7    5.70    4.20
   9  -2   7   -9.00    5.40
  -9   2  -7   -0.30    3.50
   9   2   7   -3.80    6.00
 -12  -3   7    0.30    4.40
  12   3  -7    1.80    6.40
 -12   3   7    7.20    4.90
 -12   3   7   -2.90    3.80
 -11  -3   7   23.80    8.30
 -11  -3   7   32.40    6.50
 -11   3   7   23.90    4.90
 -11   3   7   27.00    4.20
  11   3  -7   17.50    7.20
 -10  -3   7   65.59    7.60
 -10  -3   7   64.79    6.80
 -10   3   7   67.19    7.10
 -10   3   7   57.19    5.60
  10   3  -7   57.99    6.60
  -9  -3   7   75.99    6.90
  -9  -3   7   81.99    8.00
  -9   3   7   82.49    5.90
  -9   3   7   73.49    7.30
  -8  -3   7   66.59    6.40
  -8  -3   7   69.89    7.10
  -8   3   7   84.89    6.90
  -8   3   7   81.59    5.40
  -7  -3   7  643.24   30.90
  -7  -3   7  622.54   29.80
  -7   3   7  624.74   31.30
  -7   3   7  638.54   28.70
  -6  -3   7   67.59    6.10
  -6  -3   7   65.09    5.50
  -6   3   7   65.69    4.40
  -6   3   7   62.99    5.30
  -5  -3   7  188.18   10.50
  -5  -3   7  170.58    9.90
   5   3  -7  168.48   10.00
  -5   3   7  180.98    8.80
  -5   3   7  172.58    9.70
  -4  -3   7   90.89    6.50
  -4  -3   7   89.29    5.90
  -4  -3   7   85.99    6.10
  -4   3   7   92.39    5.20
  -4   3   7   90.59    5.60
   4   3  -7   92.49    6.10
  -3  -3   7  431.86   20.30
  -3  -3   7  417.16   20.20
  -3   3   7  416.46   19.20
  -3   3   7  412.76   19.30
  -3   3   7  425.26   19.80
   3   3  -7  423.26   19.90
  -2  -3   7   69.99    4.90
  -2  -3   7   61.99    5.00
  -2   3   7   63.39    4.30
   2   3  -7   64.69    4.90
  -2   3   7   68.49    3.80
   2   3  -7   66.29    4.50
  -1  -3   7   36.80    3.50
  -1  -3   7   41.50    3.80
   1  -3  -7   34.30    2.70
   1   3  -7   38.20    3.50
  -1   3   7   37.60    2.10
   1   3  -7   37.50    3.30
  -1   3   7   36.20    2.00
  -1   3   7   35.40    3.30
   0  -3   7    2.40    1.50
   0  -3   7    1.90    1.60
   0  -3  -7    3.50    1.40
   0   3  -7    3.70    1.70
   0   3   7    4.00    2.00
   0   3  -7    2.30    1.80
  -1  -3  -7   67.59    5.10
   1  -3   7   75.89    5.20
   1  -3   7   72.89    5.60
   1   3   7   74.39    5.40
  -1   3  -7   75.89    5.70
  -1   3  -7   79.69    5.10
   2  -3   7    1.40    2.00
  -2  -3  -7    4.00    1.00
  -2   3  -7    5.10    2.30
   2   3   7    3.70    2.40
  -2   3  -7    3.00    1.70
   3  -3   7   11.20    3.20
  -3  -3  -7   12.30    2.10
  -3   3  -7    9.40    3.00
  -3   3  -7    9.80    2.20
  -3   3  -7    9.90    2.90
   3   3   7   11.50    3.20
   4  -3   7    0.70    2.10
  -4  -3  -7   -2.20    1.50
   4   3   7    1.90    2.60
  -4   3  -7    0.60    2.70
  -4   3  -7    1.00    2.30
  -4   3  -7    1.80    1.70
  -5  -3  -7   -1.00    2.00
   5  -3   7    3.80    3.20
   5   3   7    2.90    3.10
  -5   3  -7    5.30    2.30
  -5   3  -7    2.70    3.20
  -5   3  -7    4.10    3.10
  -6  -3  -7    1.90    2.60
   6  -3   7   -3.10    2.70
  -6   3  -7   -1.60    3.30
   6   3   7    4.10    3.90
  -6   3  -7   -0.10    2.60
   7  -3   7    8.90    3.80
  -7  -3  -7    7.40    3.10
  -7   3  -7    1.80    3.00
   7   3   7    0.10    3.80
   8  -3   7    2.80    4.60
  -8  -3  -7    2.20    3.50
   8   3   7   -1.70    4.80
  -8   3  -7    0.50    3.50
   9  -3   7    2.70    5.60
  -9  -3  -7    9.80    4.40
   9   3   7    3.70    5.30
  -9   3  -7    1.50    4.00
 -12  -4   7    9.00    4.50
 -12   4   7    1.80    3.60
  12   4  -7   21.90    6.90
 -12   4   7    9.70    4.20
 -11  -4   7    7.40    4.70
 -11  -4   7   -3.20    4.60
 -11   4   7    3.60    3.70
  11   4  -7   -2.20    4.60
 -10  -4   7   18.10    5.20
 -10  -4   7    3.50    4.40
 -10   4   7   10.20    2.90
 -10   4   7    7.90    3.70
  10   4  -7    8.00    3.80
  -9  -4   7    4.50    3.00
  -9  -4   7    3.00    3.70
  -9   4   7   -1.70    2.30
  -9   4   7    6.50    2.70
  -8  -4   7   11.40    4.00
  -8  -4   7   14.30    5.30
  -8   4   7   10.80    2.60
  -8   4   7   17.90    4.30
  -7  -4   7    2.70    2.80
  -7  -4   7    5.60    2.70
  -7   4   7   -2.10    2.30
  -7   4   7    7.00    1.90
  -6  -4   7  101.99    7.90
  -6  -4   7  111.69    7.40
  -6   4   7  120.39    6.10
  -6   4   7   90.19    7.70
  -6   4   7  102.69    7.00
  -5  -4   7    1.70    1.80
  -5  -4   7    2.00    1.80
  -5  -4   7   -0.50    2.10
   5   4  -7    0.10    1.90
  -5   4   7    0.00    1.30
  -5   4   7   -0.70    1.00
  -4  -4   7   31.60    3.70
  -4  -4   7   26.80    4.10
  -4  -4   7   24.50    3.60
  -4   4   7   30.80    3.60
  -4   4   7   26.20    2.90
  -4   4   7   29.70    2.60
  -3  -4   7  106.69    7.00
  -3  -4   7  125.59    7.50
  -3  -4   7   95.69    6.70
   3   4  -7   99.99    6.60
  -3   4   7   98.99    6.50
  -3   4   7  109.99    6.00
  -3   4   7  111.99    5.80
  -2  -4   7   25.40    3.40
  -2  -4   7   24.20    3.20
  -2   4   7   26.40    2.80
   2   4  -7   25.30    3.20
  -2   4   7   21.50    2.50
  -2   4   7   32.30    3.90
   1  -4  -7   50.29    3.30
  -1  -4   7   50.79    4.30
  -1  -4   7   47.70    4.40
  -1   4   7   53.09    2.90
  -1   4   7   50.29    3.90
   1   4  -7   51.69    4.10
   1   4  -7   48.80    4.30
  -1   4   7   52.39    3.10
   0  -4  -7  196.88   10.50
   0  -4   7  215.88   11.60
   0  -4   7  221.48   11.50
   0   4   7  215.78   11.10
   0   4  -7  217.68   11.60
   0   4  -7  217.78   11.20
   1  -4   7   28.30    3.20
   1  -4   7   19.60    3.50
   1   4   7   18.90    3.30
  -1   4  -7   27.70    3.40
  -1   4  -7   20.00    2.80
  -2  -4  -7  400.16   19.00
   2  -4   7  444.96   20.80
   2  -4   7  443.86   21.30
  -2   4  -7  403.26   20.70
   2   4   7  446.46   20.90
  -2   4  -7  433.96   21.10
   3  -4   7   82.59    6.50
  -3   4  -7   81.29    6.80
   3   4   7   82.39    6.50
  -3   4  -7   75.19    6.00
   3   4   7   83.79    4.70
  -4  -4  -7  109.19    6.60
   4  -4   7   90.39    7.70
  -4   4  -7  124.99    7.40
   4   4   7  123.59    8.40
  -4   4  -7  102.79    7.90
  -4   4  -7  122.79   10.30
  -5  -4  -7   18.10    3.30
   5  -4   7   11.80    3.90
  -5   4  -7   20.20    4.70
   5   4   7   22.40    5.40
  -5   4  -7   21.30    4.70
  -5   4  -7   23.40    3.70
   6  -4   7   85.19    7.80
  -6  -4  -7   84.19    6.80
   6   4   7   86.89    8.00
  -6   4  -7   74.39    8.00
   7  -4   7    0.70    3.50
  -7  -4  -7    4.30    3.00
  -7   4  -7   -0.30    2.90
   7   4   7    4.00    4.30
  -8  -4  -7   11.00    4.40
   8  -4   7    2.30    4.80
  -8   4  -7    1.10    3.60
   8   4   7    4.50    4.70
  -9  -4  -7   10.60    4.90
   9  -4   7   16.20    5.60
   9   4   7    2.80    5.70
  -9   4  -7    7.60    4.00
 -12  -5   7   18.90    6.30
  12   5  -7   11.90    6.70
 -12   5   7   12.90    4.40
 -12   5   7   11.60    4.50
 -11  -5   7   57.99   11.30
 -11  -5   7   47.10    6.60
 -11   5   7   52.29    8.20
 -11   5   7   47.30    5.50
 -10  -5   7    4.50    3.90
 -10  -5   7    2.70    4.50
 -10   5   7    9.80    2.80
 -10   5   7   18.20    5.10
  10   5  -7   10.70    5.20
  -9  -5   7   18.90    4.20
  -9  -5   7   24.40    5.60
  -9   5   7   14.50    2.90
  -9   5   7   18.80    4.40
   9   5  -7   16.80    3.90
  -8  -5   7   42.70    5.70
  -8  -5   7   57.49    8.20
  -8   5   7   34.30    4.70
  -8   5   7   37.10    3.70
  -7  -5   7   69.89    6.60
  -7  -5   7   80.29    7.60
  -7   5   7   88.59    5.10
  -7   5   7   80.09    6.40
  -6  -5   7   44.90    5.00
  -6   5   7   38.60    4.20
  -6   5   7   37.90    3.00
  -5  -5   7  242.88   13.60
  -5  -5   7  225.08   12.70
  -5  -5   7  235.88   12.80
  -5   5   7  231.38   12.20
  -5   5   7  238.68   10.90
  -5   5   7  223.28   12.90
  -4  -5   7    6.10    2.10
  -4  -5   7    0.40    1.80
  -4  -5   7    4.50    1.90
  -4   5   7   -0.50    1.90
  -4   5   7    2.40    1.00
  -4   5   7    1.80    1.40
   4   5  -7    0.20    1.90
  -3  -5   7   31.50    4.10
  -3  -5   7   24.30    3.50
  -3  -5   7   32.20    4.50
  -3   5   7   31.40    3.40
  -3   5   7   24.50    2.50
  -3   5   7   27.30    2.80
   3   5  -7   34.80    4.50
  -2  -5   7   76.39    5.70
  -2  -5   7   71.89    5.60
  -2   5   7   74.59    4.50
  -2   5   7   69.49    4.80
   2   5  -7   81.19    5.40
  -2   5   7   72.09    4.60
   1  -5  -7    2.40    1.10
  -1  -5   7    2.10    1.90
  -1  -5   7   -0.10    1.70
   1   5  -7    4.00    2.00
   1   5  -7    3.40    1.90
  -1   5   7    3.10    1.70
   0  -5   7  131.49    8.10
   0  -5   7  124.79    8.20
   0   5  -7  134.39    8.00
   0   5  -7  133.39    8.10
   0   5   7  131.99    6.30
   0   5   7  127.49    7.60
   1  -5   7   48.30    4.70
   1  -5   7   53.59    4.80
  -1  -5  -7   48.90    3.10
  -1   5  -7   50.99    4.90
   1   5   7   49.90    3.00
   1   5   7   58.59    4.80
  -1   5  -7   58.09    4.90
  -2  -5  -7    3.20    1.40
   2  -5   7    5.80    2.20
   2  -5   7    2.90    2.20
   2   5   7    4.80    2.70
  -2   5  -7    1.20    2.30
   2   5   7    3.80    1.90
  -2   5  -7    3.60    2.40
   3  -5   7    5.30    2.50
  -3  -5  -7    4.40    1.70
  -3   5  -7   14.60    3.10
  -3   5  -7    8.20    2.80
   3   5   7    9.30    4.70
   3   5   7    6.30    1.70
   4  -5   7    5.60    2.80
  -4  -5  -7    5.70    2.60
  -4   5  -7    1.00    2.80
  -4   5  -7    7.70    3.70
   4   5   7    6.00    2.00
   4   5   7    4.50    2.90
   5  -5   7   11.60    3.50
  -5  -5  -7   10.00    3.00
   5   5   7    7.90    3.70
   5   5   7    8.20    2.50
  -5   5  -7   13.60    6.00
  -5   5  -7   13.10    3.40
   6  -5   7    2.70    3.30
  -6  -5  -7    6.30    3.20
  -6   5  -7    0.60    3.90
  -6   5  -7    3.60    3.20
   6   5   7    4.10    3.80
   6   5   7   -2.40    2.60
  -7  -5  -7    2.10    3.00
   7  -5   7   -1.80    3.60
  -7   5  -7    3.30    4.70
   7   5   7   -1.30    4.10
  -7   5  -7   -1.00    3.00
  -8  -5  -7    5.50    4.00
   8  -5   7   -3.50    4.40
  -8   5  -7   -0.20    3.50
   8   5   7    3.90    4.80
   9  -5   7    0.70    6.00
  -9  -5  -7   -1.60    5.00
  -9   5  -7    1.60    4.00
   9   5   7    9.10    6.50
 -12  -6   7   19.60    5.60
  12   6  -7    2.60    7.80
 -12   6   7   19.40    5.10
 -12   6   7   16.40    4.30
 -11  -6   7   -7.40    3.30
 -11  -6   7   12.60    5.60
 -11   6   7    3.30    5.30
  11   6  -7   -3.70    4.80
 -11   6   7   -4.70    3.40
 -10  -6   7   -0.70    3.40
 -10  -6   7   -2.60    4.30
  10   6  -7   -8.80    4.00
 -10   6   7   -2.40    2.70
 -10   6   7   -3.10    2.60
  -9  -6   7    4.40    4.20
  -9  -6   7    0.10    3.70
  -9   6   7   10.30    3.30
   9   6  -7    8.80    3.60
  -9   6   7    5.30    2.30
  -8  -6   7   27.50    4.50
  -8  -6   7   29.60    5.60
  -8   6   7   28.00    3.40
  -8   6   7   22.40    4.30
  -7  -6   7    7.20    3.30
  -7  -6   7   10.30    3.60
  -7   6   7    8.90    2.70
  -7   6   7    6.70    1.80
  -6  -6   7   20.30    4.40
  -6  -6   7   20.20    3.90
  -6   6   7   17.30    3.30
  -6   6   7   18.40    2.10
  -5  -6   7   16.30    3.60
  -5  -6   7   17.80    4.50
  -5  -6   7   17.50    3.60
  -5   6   7   14.40    3.20
  -5   6   7   19.00    3.10
  -5   6   7   16.40    1.80
  -4  -6   7   19.40    3.30
  -4  -6   7   23.50    4.20
  -4  -6   7   21.00    3.70
  -4   6   7   23.40    1.90
   4   6  -7   22.50    3.80
  -4   6   7   20.90    3.00
  -4   6   7   15.60    3.30
  -3  -6   7   13.90    3.10
  -3  -6   7   14.80    3.50
  -3  -6   7   12.70    2.60
  -3   6   7   18.00    2.50
  -3   6   7   17.40    2.60
  -3   6   7   16.70    1.90
   3   6  -7   13.70    3.00
  -2  -6   7  151.78    9.40
  -2  -6   7  176.18   10.20
   2   6  -7  168.68   10.40
  -2   6   7  165.68    8.20
  -2   6   7  147.09    8.70
  -1  -6   7  136.19    8.80
  -1  -6   7  144.09    8.70
  -1   6   7  148.59    7.60
   1   6  -7  127.59    8.30
  -1   6   7  133.49    7.40
   1   6  -7  131.49    8.40
   0  -6  -7   52.09    3.90
   0  -6   7   56.89    5.20
   0  -6   7   55.59    4.90
   0   6  -7   51.99    4.70
   0   6  -7   54.69    4.90
   0   6   7   53.49    3.60
   0   6   7   50.19    4.30
   1  -6   7  217.58   12.10
   1  -6   7  216.28   12.30
  -1  -6  -7  210.78   10.60
   1   6   7  210.48   10.40
   1   6   7  234.58   12.20
  -1   6  -7  201.48   11.90
  -2  -6  -7  187.78   10.30
   2  -6   7  191.18   11.20
   2  -6   7  210.68   12.00
  -2   6  -7  183.18   11.20
  -2   6  -7  198.08   11.40
   2   6   7  181.18    9.40
   2   6   7  205.98   11.10
   3  -6   7   18.70    4.10
  -3  -6  -7   17.80    2.70
   3  -6   7   17.40    3.50
   3   6   7   22.40    2.70
   3   6   7   15.80    3.60
  -3   6  -7   15.70    3.80
  -3   6  -7   15.60    3.50
  -4  -6  -7  121.39    7.70
   4  -6   7  123.99    8.70
   4   6   7  122.89    8.60
  -4   6  -7  131.09    8.70
   4   6   7  119.09    7.00
   5  -6   7  130.79    9.40
  -5  -6  -7  137.09    8.60
   5   6   7  140.69    9.60
  -5   6  -7  120.09    9.80
  -5   6  -7  141.59    9.30
   5   6   7  120.19    7.70
   6  -6   7   89.79    7.80
  -6  -6  -7  100.09    7.60
   6   6   7   77.59    6.90
   6   6   7   86.29    8.40
  -6   6  -7   87.89    8.60
  -6   6  -7   95.99    7.90
   7  -6   7    3.10    4.30
  -7  -6  -7    8.70    4.10
  -7   6  -7    3.30    3.50
   7   6   7    7.30    4.30
  -7   6  -7    1.30    4.90
  -8  -6  -7   13.00    4.90
   8  -6   7   14.30    5.40
   8   6   7    7.30    5.50
  -8   6  -7   16.30    4.60
 -12  -7   7   14.90    5.80
 -12   7   7   18.30    5.30
 -12   7   7   26.30    6.30
  12   7  -7    9.00    9.20
 -11  -7   7    6.50    5.10
 -11   7   7   -0.20    3.60
  11   7  -7    1.60    5.20
 -11   7   7    0.10    4.10
 -10  -7   7   20.30    6.10
 -10  -7   7   32.80    7.10
 -10   7   7   29.70    6.20
 -10   7   7   26.60    3.80
  10   7  -7   24.40    5.30
  -9  -7   7    4.20    3.90
  -9  -7   7    2.70    4.10
  -9   7   7    7.60    3.40
   9   7  -7    3.30    4.10
  -9   7   7    6.90    2.70
  -8  -7   7   10.10    4.20
  -8  -7   7    9.40    4.00
  -8   7   7   11.30    2.30
  -8   7   7   14.50    3.60
  -7  -7   7   58.79    6.10
  -7  -7   7   52.79    7.20
  -7   7   7   53.59    5.40
  -7   7   7   52.49    3.60
  -6  -7   7  180.78   11.60
  -6  -7   7  151.58   10.10
  -5  -7   7   34.20    5.20
  -5  -7   7   29.90    4.10
  -5  -7   7   29.50    4.30
  -5   7   7   32.60    3.80
  -5   7   7   28.70    4.50
  -4  -7   7    4.10    2.30
  -4  -7   7    3.30    2.20
  -4  -7   7    6.30    3.00
  -4   7   7    4.50    1.80
  -4   7   7    6.60    2.90
  -3  -7   7    1.30    2.30
  -3  -7   7    4.00    2.10
  -3  -7   7    4.80    2.50
  -3   7   7    3.20    1.20
  -3   7   7    3.00    1.90
   3   7  -7    2.30    2.30
  -2  -7   7   90.79    6.50
  -2  -7   7   86.99    6.90
  -2  -7   7   65.89    5.70
  -2   7   7   88.59    4.90
  -2   7   7   75.29    5.50
   2   7  -7   75.69    6.20
   1  -7  -7   15.60    2.70
  -1  -7   7   15.30    3.50
  -1  -7   7   17.50    3.60
  -1   7   7   17.00    2.60
   1   7  -7   16.80    3.20
   1   7  -7   16.80    3.10
  -1   7   7   17.10    3.40
   0  -7   7  101.69    7.50
   0  -7  -7   94.59    5.90
   0  -7   7   95.19    6.90
   0   7   7   96.59    5.80
   0   7  -7   85.99    6.70
   0   7  -7   97.99    7.20
   0   7   7   95.49    6.30
   1  -7   7   13.80    2.80
  -1  -7  -7   13.90    2.60
   1  -7   7   18.10    3.70
  -1   7  -7   22.70    3.70
   1   7   7   16.50    2.50
   1   7   7   17.50    3.30
  -1   7  -7   16.10    3.30
  -2  -7  -7    3.30    1.90
   2  -7   7    6.00    2.40
   2  -7   7    3.70    2.70
  -2   7  -7   -1.60    2.60
   2   7   7    3.50    1.70
  -2   7  -7    5.00    2.60
   2   7   7    5.00    2.50
  -3  -7  -7    0.20    2.00
   3  -7   7   -2.00    2.40
   3  -7   7    0.60    2.40
   3   7   7   -1.00    1.80
  -3   7  -7    0.60    2.50
   3   7   7    2.20    2.60
  -4  -7  -7    4.70    2.60
   4  -7   7    7.00    2.90
   4   7   7    1.30    3.00
   4   7   7    1.30    2.00
  -4   7  -7    2.00    2.70
  -5  -7  -7    4.00    3.20
   5  -7   7    4.60    3.30
   5   7   7    6.30    4.40
  -5   7  -7    6.80    3.00
   5   7   7    6.70    3.80
  -5   7  -7    3.90    3.10
   6  -7   7    3.50    3.30
  -6  -7  -7   15.50    4.00
   6   7   7   11.40    4.20
   6   7   7    2.50    3.40
  -6   7  -7    6.60    3.70
  -7  -7  -7   15.40    7.80
   7  -7   7   10.50    4.50
   7   7   7   12.00    4.80
  -7   7  -7   12.70    3.90
  -7   7  -7    9.40    5.20
   8  -7   7    6.10    7.80
  -8  -7  -7   11.60    5.10
   8   7   7   11.00    4.80
  -8   7  -7   12.40    4.60
 -11  -8   7   -4.60    4.70
 -11   8   7    1.90    3.70
  11   8  -7  -12.50    5.10
 -11   8   7   -4.80    4.10
 -10  -8   7  -12.30    4.70
  10   8  -7   -1.60    4.70
 -10   8   7    2.30    3.60
 -10   8   7   -0.20    2.70
  -9  -8   7   12.50    4.40
  -9  -8   7    3.80    4.50
   9   8  -7    3.60    4.20
  -9   8   7    9.20    3.30
  -9   8   7    9.50    2.60
  -8  -8   7    0.50    6.10
  -8  -8   7    2.00    3.80
  -8   8   7    0.40    1.90
  -8   8   7    2.60    2.40
  -7  -8   7   22.30    5.40
  -7  -8   7   27.50    4.60
  -7   8   7   27.80    2.70
  -7   8   7   26.40    4.60
  -6  -8   7    4.50    3.60
  -6  -8   7    5.80    2.90
  -6  -8   7   -2.50    2.60
  -6   8   7    4.10    2.20
  -5  -8   7   23.50    4.40
  -5  -8   7   22.10    4.50
  -5  -8   7   30.50    4.50
  -5   8   7   23.30    3.70
  -4  -8   7   39.40    4.50
  -4  -8   7   50.29    7.20
  -4  -8   7   31.90    4.60
  -4   8   7   28.60    4.70
  -4   8   7   28.40    4.00
  -3  -8   7  178.58   11.00
  -3  -8   7  196.88   11.00
  -3  -8   7  205.38   12.20
  -3   8   7  165.18   11.20
  -2  -8   7    1.60    2.00
   2  -8  -7    2.80    2.20
  -2  -8   7    3.80    2.90
  -2   8   7    7.50    1.90
  -2   8   7    7.50    2.40
  -1  -8   7  183.68   11.10
   1  -8  -7  171.08    9.70
  -1  -8   7  165.78   10.10
  -1   8   7  171.88    8.90
   1   8  -7  165.68   10.20
  -1   8   7  154.88    9.40
   0  -8  -7    4.80    2.30
   0  -8   7    2.60    2.20
   0  -8   7    3.70    2.70
   0   8   7    7.20    2.30
   0   8   7    1.70    2.10
   0   8  -7    5.30    2.40
   1  -8   7   57.49    6.10
  -1  -8  -7   50.29    4.60
   1  -8   7   53.29    5.10
   1   8   7   58.59    5.10
  -1   8  -7   54.29    5.30
   1   8   7   54.79    4.30
  -2  -8  -7   12.90    2.40
   2  -8   7   10.20    3.00
   2  -8   7   11.70    3.80
  -2   8  -7   12.80    3.30
   2   8   7   11.20    2.50
   2   8   7   13.80    3.50
  -3  -8  -7  192.78   11.10
   3  -8   7  223.48   14.10
   3  -8   7  200.28   12.00
  -3   8  -7  205.98   12.20
   3   8   7  203.28   11.80
   3   8   7  194.68   10.50
   4  -8   7   17.30    3.80
  -4  -8  -7   20.20    3.80
   4  -8   7   17.50    4.00
  -4   8  -7   19.20    3.90
   4   8   7   12.10    3.70
   4   8   7   22.80    3.10
   5  -8   7   86.69    8.10
  -5  -8  -7   85.89    7.30
  -5   8  -7   80.29    7.80
   5   8   7   82.69    7.70
   5   8   7   76.39    6.20
  -6  -8  -7   -2.00    3.20
   6  -8   7    1.90    7.10
  -6   8  -7    6.40    3.20
  -6   8  -7    4.00    4.10
   6   8   7   -1.40    3.40
  -7  -8  -7   68.79    7.50
   7  -8   7   49.60    7.20
  -7   8  -7   35.70    7.60
  -7   8  -7   65.29    7.20
   7   8   7   68.19    7.80
   8  -8   7    1.10    5.90
  -8  -8  -7    0.50    4.80
  -8   8  -7   -3.10    4.30
   8   8   7   -2.80    4.20
 -11  -9   7    7.30    4.90
 -11   9   7    7.80    4.50
 -11   9   7   14.10    4.10
  11   9  -7   10.00    6.10
 -10  -9   7   52.89    8.90
  10   9  -7   47.50    6.90
 -10   9   7   49.60    5.30
  -9  -9   7   35.90    7.50
  -9  -9   7   24.00    9.10
  -9   9   7   28.10    5.20
  -9   9   7   33.00    3.70
  -8  -9   7  127.89   10.30
  -8  -9   7  139.49   11.70
  -8   9   7  146.99    7.60
  -8   9   7  148.49   10.10
  -7  -9   7   54.99    8.80
  -7  -9   7   38.00    5.60
  -7   9   7   48.80    5.50
  -6  -9   7  223.28   13.00
  -6  -9   7  200.38   13.90
  -6  -9   7  206.68   12.50
  -6   9   7  208.58   12.40
  -5  -9   7   14.80    3.80
  -5  -9   7   13.50    3.50
  -5  -9   7   13.80    4.20
  -4  -9   7  154.58    9.90
  -4  -9   7  140.69    9.30
  -4  -9   7  152.48   11.00
  -3  -9   7   38.40    5.00
  -3  -9   7   37.10    5.00
  -3  -9   7   51.79    7.00
  -3   9   7   36.80    5.00
  -3   9   7   38.00    3.00
  -2  -9   7    0.00    1.90
  -2  -9   7   -1.10    3.30
  -2  -9   7    5.10    2.60
   2  -9  -7    2.40    2.40
  -2   9   7    0.50    2.50
  -2   9   7    2.90    1.70
  -1  -9   7    8.90    2.60
  -1  -9   7   13.40    2.90
   1  -9  -7   14.60    3.00
   1   9  -7   15.80    3.10
  -1   9   7   11.20    2.70
  -1   9   7   12.40    2.60
   0  -9  -7   19.20    3.30
   0  -9   7   17.80    3.50
   0   9   7   20.20    3.40
   0   9   7   22.10    3.40
   0   9  -7   18.40    3.50
   1  -9   7    0.20    2.20
   1  -9   7    2.80    2.60
  -1  -9  -7    1.10    2.20
   1   9   7    2.40    2.30
  -1   9  -7   -0.40    2.20
   1   9   7    1.30    1.80
   2  -9   7    6.70    3.00
   2  -9   7    7.70    3.50
  -2  -9  -7    7.20    2.60
  -2   9  -7    9.80    2.90
   2   9   7    8.70    3.20
   2   9   7   10.70    2.40
   3  -9   7   -3.80    2.30
   3  -9   7    3.80    3.20
  -3  -9  -7    2.50    2.90
  -3   9  -7    2.00    2.70
   3   9   7    2.70    3.00
   3   9   7   -2.50    1.90
   4  -9   7    5.20    3.10
  -4  -9  -7    0.40    2.60
   4  -9   7   -0.30    4.40
   4   9   7    1.00    2.50
   4   9   7    5.30    3.50
  -4   9  -7   -6.10    2.90
  -5  -9  -7    2.20    3.40
   5  -9   7   -2.60    2.70
   5   9   7    0.70    3.90
   5   9   7    2.10    3.20
  -5   9  -7    5.70    4.20
  -6  -9  -7    0.40    4.00
   6  -9   7    2.30    3.50
  -6   9  -7   -1.50    3.20
  -6   9  -7   -0.90    3.80
   6   9   7   -0.30    4.10
   7  -9   7   -2.90    4.00
  -7  -9  -7  -11.20    4.30
  -7   9  -7   -2.10    4.10
   7   9   7   -7.50    4.40
 -11  10   7    5.90    4.00
 -10 -10   7    7.20    3.90
 -10  10   7    5.50    3.70
 -10  10   7    4.50    2.70
  10  10  -7   13.40    5.60
  -9  10   7   10.70    3.80
  -9  10   7    9.50    2.40
  -8 -10   7    8.90    4.10
  -8  10   7    3.70    3.30
  -8  10   7   10.70    1.90
  -7 -10   7   19.40    5.40
  -7 -10   7   15.00    4.60
  -7  10   7   20.50    4.20
  -6 -10   7    6.80    4.20
  -6 -10   7    5.40    3.40
  -6  10   7    4.40    2.70
  -5 -10   7  163.28   11.80
  -5 -10   7  148.89   10.90
  -5  10   7  173.28   10.50
  -4 -10   7  199.78   12.30
  -4 -10   7  203.38   13.50
  -3 -10   7   30.50    4.80
  -3 -10   7   39.70    6.70
  -3  10   7   31.20    2.90
  -3  10   7   25.30    4.60
  -2 -10   7  142.89   10.60
  -2 -10   7  144.39    9.10
   2 -10  -7  129.79    9.10
  -2  10   7  140.49    7.30
  -2  10   7  115.99    8.50
  -1 -10   7   81.29    6.70
   1 -10  -7   88.69    6.90
  -1 -10   7   91.39    8.00
  -1  10   7   92.39    5.90
  -1  10   7   80.59    7.30
   0 -10   7   -0.70    1.80
   0 -10  -7    1.50    2.60
   0 -10   7    1.10    2.90
   0  10   7    1.10    2.00
   0  10  -7   -2.30    2.00
   0  10   7    1.10    2.50
  -1 -10  -7    1.40    2.50
   1 -10   7   -1.30    2.20
   1 -10   7    0.40    2.50
   1  10   7    3.80    2.20
  -1  10  -7    3.50    2.40
   1  10   7   -0.60    2.50
   2 -10   7   84.49    8.10
   2 -10   7   84.69    8.50
  -2 -10  -7   89.69    7.00
   2  10   7   83.59    6.80
  -2  10  -7   79.69    6.80
  -3 -10  -7   98.99    7.50
   3 -10   7   88.99    7.30
   3 -10   7  102.79    9.30
   3  10   7   77.59    6.60
   3  10   7   93.99    7.50
  -3  10  -7   90.69    7.80
  -4 -10  -7   26.30    4.40
   4 -10   7   22.20    5.20
   4 -10   7   21.40    4.00
   4  10   7   23.50    4.60
  -4  10  -7   19.90    4.80
   4  10   7   17.90    3.80
   5 -10   7   16.40    4.70
  -5 -10  -7   24.10    4.70
  -5  10  -7    9.90    4.40
   5  10   7   22.30    5.00
   6 -10   7   -6.40    3.90
  -6 -10  -7    4.10    4.20
  -6  10  -7    0.80    4.50
   6  10   7    3.90    4.10
  -7 -10  -7   37.40    6.60
   7 -10   7   37.30    6.80
   7  10   7   37.30    7.00
  -7  10  -7   52.19    7.70
 -10 -11   7    7.30    5.20
 -10  11   7    3.50    3.80
 -10  11   7    7.70    2.60
  -9 -11   7   40.80    7.70
  -9  11   7   63.39    8.90
  -9  11   7   52.09    4.20
  -8 -11   7   71.19   10.60
  -8  11   7   62.59    7.00
  -7 -11   7   35.50    7.30
  -7 -11   7   30.30    5.90
  -7  11   7   31.30    5.50
  -6 -11   7   33.20    5.50
  -6 -11   7   42.80    8.10
  -6  11   7   38.10    5.40
  -5 -11   7   65.59    7.00
  -5 -11   7   58.59    8.10
  -4 -11   7  133.69   10.10
  -4 -11   7  144.39   11.50
   3 -11  -7   39.00    5.50
  -3 -11   7   35.10    5.10
  -3 -11   7   33.00    6.40
  -3  11   7   30.00    3.20
  -2 -11   7   55.49    5.80
   2 -11  -7   56.79    6.10
  -2 -11   7   67.69    7.10
  -2  11   7   53.99    4.30
  -1 -11   7    3.00    2.80
   1 -11  -7    3.40    2.70
  -1 -11   7    4.00    2.50
  -1  11   7    1.60    2.10
  -1  11   7   -1.10    2.70
   0 -11  -7   34.70    5.40
   0 -11   7   38.80    5.20
   0 -11   7   52.79    7.20
   0  11  -7   36.30    5.40
   0  11   7   29.20    3.90
   0  11   7   37.60    4.30
   1 -11   7    6.40    3.10
   1 -11   7    4.60    3.30
  -1 -11  -7    8.40    2.80
   1  11   7    8.00    2.90
  -1  11  -7    1.70    2.60
   1  11   7    2.40    2.50
   2 -11   7    1.60    2.50
   2 -11   7    0.40    2.70
  -2 -11  -7    0.90    2.60
   2  11   7    1.20    2.60
  -2  11  -7    0.10    2.60
   2  11   7   -0.30    2.60
   3 -11   7    6.30    3.20
  -3 -11  -7    4.30    3.70
   3 -11   7   11.30    4.40
  -3  11  -7    3.60    3.00
   3  11   7   12.10    3.70
   3  11   7    0.70    3.50
   4 -11   7   -1.50    3.40
   4 -11   7   -2.50    3.10
  -4 -11  -7   -0.50    3.10
   4  11   7    0.40    3.20
  -4  11  -7    1.40    3.50
  -5 -11  -7   -0.30    4.50
   5 -11   7    2.20    3.70
  -5  11  -7    1.10    4.10
   5  11   7   -2.00    3.30
  -6 -11  -7   -4.80    3.90
   6 -11   7   -4.30    4.70
   6  11   7   -6.80    3.90
  -7 -11  -7    0.00    4.80
  -7  11  -7    8.50    4.60
  -9 -12   7    0.80    4.70
  -9  12   7    0.50    1.80
  -9  12   7   -6.50    3.30
  -8 -12   7    6.50    4.70
  -8 -12   7    2.70    3.90
  -8  12   7    4.90    3.90
  -7 -12   7   -0.10    4.00
  -7 -12   7   -2.30    3.50
  -7  12   7   -0.80    3.10
  -6 -12   7   26.70    5.70
  -6 -12   7   35.70    7.10
  -6  12   7   42.90    6.60
  -5 -12   7   -3.40    3.30
  -5 -12   7    4.90    3.70
  -4 -12   7   54.99    7.40
  -4 -12   7   64.59    9.00
   3 -12  -7   11.30    4.20
  -3 -12   7   19.00    5.50
  -3 -12   7   12.60    3.50
  -3  12   7   12.50    2.20
  -2 -12   7   60.59    6.10
  -2 -12   7   65.99    7.90
  -2  12   7   55.69    4.40
  -1 -12   7   22.70    4.30
   1 -12  -7   33.20    5.70
  -1 -12   7   39.50    6.60
  -1  12   7   32.10    3.90
   0 -12   7   17.20    4.80
   0 -12   7   17.50    3.70
   0 -12  -7   15.90    4.40
   0  12  -7   11.70    3.60
   0  12   7   19.80    3.40
   1 -12   7    5.20    2.80
   1 -12   7    8.10    3.40
  -1 -12  -7    3.50    3.30
  -1  12  -7    7.60    3.20
   1  12   7    5.80    2.90
  -2 -12  -7   21.00    4.40
   2 -12   7   21.40    5.40
   2 -12   7   19.40    4.40
  -2  12  -7   13.70    4.00
   2  12   7   30.30    4.70
   3 -12   7   23.40    6.10
  -3 -12  -7   15.70    4.30
   3 -12   7   10.70    3.90
  -3  12  -7   12.80    4.30
   3  12   7    8.70    3.90
   4 -12   7   36.00    6.50
  -4 -12  -7   36.40    6.60
   4 -12   7   39.00    6.00
   4  12   7   38.20    6.10
  -4  12  -7   28.50    5.20
   5 -12   7    0.00    4.70
  -5 -12  -7    5.60    4.20
   5  12   7    2.60    4.30
  -5  12  -7   -8.50    6.10
  -6 -12  -7   30.60    6.00
   6  12   7   21.00    5.40
  -9 -13   7   42.90    9.10
  -9 -13   7   28.10    7.00
  -9  13   7   44.30    7.90
  -8 -13   7    3.00    4.10
  -8 -13   7   -2.90    4.30
  -7 -13   7   65.09    8.60
  -7 -13   7   47.80    9.50
  -7  13   7   61.29    7.40
  -6 -13   7   14.20    5.10
  -6 -13   7   29.30    7.30
  -6  13   7   17.20    4.50
  -5 -13   7   31.80    7.10
  -5 -13   7   16.30    4.50
  -4 -13   7   12.80    3.40
  -4 -13   7    8.00    4.00
  -3 -13   7  186.88   12.50
   3 -13  -7  207.58   13.60
  -3 -13   7  232.38   15.10
  -3  13   7  192.78   10.10
  -2 -13   7   10.40    3.20
   2 -13  -7   17.10    4.60
  -2 -13   7    8.30    4.20
  -2  13   7   10.40    2.30
   1 -13  -7   21.50    4.80
  -1 -13   7   27.40    6.70
  -1 -13   7   22.80    4.10
  -1  13   7   24.70    3.60
   0 -13  -7   45.60    6.70
   0 -13   7   42.50    7.10
   0 -13   7   25.80    5.30
   0  13   7   34.00    4.70
   1 -13   7   88.79    7.20
   1 -13   7  116.69    9.90
  -1 -13  -7  111.99    9.60
   1  13   7   85.79    7.20
  -1  13  -7   82.39    8.00
  -2 -13  -7    6.20    3.60
   2 -13   7    6.80    3.60
   2 -13   7    9.30    3.90
   2  13   7    4.40    2.90
  -2  13  -7    5.50    3.50
   3 -13   7    3.00    3.30
  -3 -13  -7    3.10    3.70
   3 -13   7   -2.20    3.00
   3  13   7    2.00    3.30
  -3  13  -7   -2.20    3.30
  -4 -13  -7   -1.60    4.10
   4 -13   7   -2.60    3.50
  -4  13  -7    5.10    3.70
   5 -13   7    8.20    6.10
  -5 -13  -7    7.40    4.60
   5 -13   7   13.20   10.30
   5  13   7   15.90    4.70
  -8 -14   7   -4.10    5.40
  -8  14   7    2.00    4.40
  -7 -14   7    6.40    5.60
  -7 -14   7    2.90    5.00
  -7  14   7    2.20    3.70
  -6 -14   7   11.70    5.60
  -6 -14   7    7.80    4.00
  -5 -14   7   33.30    6.60
  -5 -14   7   43.10    7.40
  -4 -14   7   23.90    6.30
  -4 -14   7    9.00    3.90
  -3 -14   7   12.90    4.10
  -3 -14   7   14.40    5.80
   3 -14  -7   13.40    4.50
  -3  14   7   12.50    2.30
   2 -14  -7   29.60    5.90
  -2 -14   7   31.00    6.40
  -2 -14   7   30.60    5.10
  -2  14   7   25.00    3.50
   1 -14  -7   35.50    5.50
  -1 -14   7   26.60    5.10
  -1 -14   7   35.30    7.00
  -1  14   7   33.50    4.20
   0 -14  -7   21.50    5.10
   0 -14   7    9.30    3.60
   0 -14   7   12.40    5.10
   0  14   7   13.70    3.40
   1 -14   7    5.50    3.30
  -1 -14  -7   -1.60    3.60
   1 -14   7    2.30    2.80
   1  14   7    1.70    3.20
  -1  14  -7   -1.70    3.40
   2 -14   7   74.89   10.20
   2 -14   7   65.59    6.80
  -2 -14  -7   68.69    7.90
  -2  14  -7   56.39    7.30
   3 -14   7   21.10    5.50
  -3 -14  -7   24.60    5.20
  -3  14  -7   17.60    4.50
   3  14   7   11.70    4.60
   4 -14   7    5.00    5.20
  -4 -14  -7   18.20    5.40
   4 -14   7   28.40    6.60
   4  14   7   15.50    5.60
  -5 -14  -7   32.60    7.00
   5 -14   7   32.40    7.70
   5  14   7   21.10    5.80
  -7 -15   7   66.69   11.20
  -7 -15   7   56.39    8.30
  -7  15   7   76.29   10.10
  -6 -15   7   40.70    8.30
  -6 -15   7   28.10    6.70
  -5 -15   7    6.50    4.10
  -5 -15   7    1.00    4.10
   4 -15  -7   59.49    7.90
  -4 -15   7   80.49   15.20
  -4 -15   7   64.89    7.10
  -3 -15   7   17.60    4.60
   3 -15  -7   33.90    6.90
  -3 -15   7   43.90    8.30
  -3  15   7   28.60    3.60
  -2 -15   7   27.20    5.00
   2 -15  -7   44.20    7.00
  -2 -15   7   45.00    9.30
  -2  15   7   42.40    4.20
   1 -15  -7   22.20    5.50
  -1 -15   7   19.60    5.60
  -1 -15   7   17.80    4.40
   0 -15  -7   47.10    7.20
   0 -15   7   49.99    6.70
   0 -15   7   47.20    8.70
   0  15   7   29.30    5.60
   1 -15   7   -0.50    3.00
   1 -15   7   -0.90    2.50
  -1 -15  -7    0.20    3.70
   1  15   7    0.60    3.10
   2 -15   7    0.80    4.80
  -2 -15  -7   -6.40    3.60
   2  15   7    4.40    3.30
   3 -15   7    2.70    3.90
  -3 -15  -7    8.80    4.70
   3 -15   7    2.70    4.20
   3  15   7    3.80    4.20
  -4 -15  -7    4.90    4.60
   4 -15   7    6.60    4.60
   4  15   7    4.70    4.70
  -6 -16   7   -8.10    4.70
  -6 -16   7    4.70    5.70
  -5 -16   7   16.10    5.90
  -5 -16   7    1.80    4.20
   4 -16  -7    2.60    4.60
  -4 -16   7    3.30    3.90
  -4 -16   7    4.60    4.40
   3 -16  -7    5.70    4.70
  -3 -16   7    6.50    4.90
  -3 -16   7    3.90    3.80
  -2 -16   7    4.60    4.40
   2 -16  -7    6.30    4.30
  -2  16   7   -3.60    2.00
   1 -16  -7   58.49    8.40
  -1 -16   7   44.60    6.10
  -1 -16   7   45.10    8.70
  -1  16   7   35.70    5.10
   0 -16   7    0.70    3.80
   0 -16   7   -2.30    3.10
   0 -16  -7   -2.00    4.00
   0  16   7    3.00    3.00
   1 -16   7   38.20    7.80
  -1 -16  -7   38.70    6.60
   1  16   7   43.60    6.00
  -2 -16  -7   -0.60    4.50
   2 -16   7    2.70    4.20
   2  16   7    2.50    3.50
  -4 -17   7    8.80    5.00
  -4 -17   7   -2.90    4.40
  -3 -17   7   19.90    5.80
   3 -17  -7   31.40    7.60
  -3 -17   7   15.70    6.00
  -2 -17   7   30.00    7.00
   2 -17  -7   29.70    6.60
  -2 -17   7   16.00    5.10
  -2  17   7   19.80    3.40
   1 -17  -7   21.60    6.70
  -1 -17   7   11.80    5.00
  -1 -17   7   21.50    6.50
  -1  17   7   14.50    3.40
   0 -17   7   25.40    7.20
   0 -17  -7   26.20    6.10
   0  17   7   14.90    4.20
   1 -17   7    2.10    4.70
  -1 -17  -7   -4.50    4.40
   1  17   7    6.90    3.60
 -12   0   8    7.20    4.40
 -12   0   8    8.60    4.30
 -11   0   8    1.50    3.70
 -11   0   8    1.80    3.50
 -10   0   8   10.20    3.40
 -10   0   8    7.40    4.10
  -9   0   8   -1.30    3.10
  -9   0   8    1.30    2.30
  -8   0   8   86.99    6.20
  -8   0   8   71.39    6.80
  -7   0   8   -0.50    1.80
  -7   0   8   -2.00    2.50
   6   0  -8  112.09    7.40
  -6   0   8  129.39    7.40
  -6   0   8  101.69    7.50
  -5   0   8   -0.80    1.60
  -5   0   8   -2.30    1.40
  -5   0   8   -1.60    1.60
   5   0  -8   -1.40    1.70
  -4   0   8  299.47   15.20
   4   0  -8  310.17   14.90
  -4   0   8  313.57   15.20
  -3   0   8    1.20    1.40
   3   0  -8   -0.60    1.20
  -3   0   8   -1.40    1.10
  -2   0   8  306.77   15.40
   2   0  -8  304.07   15.70
   2   0  -8  353.26   15.10
  -2   0   8  346.77   16.20
   1   0  -8    0.10    0.70
  -1   0   8    1.50    0.90
  -1   0   8   -2.10    1.50
   1   0  -8    0.20    1.50
   0   0  -8   15.70    2.70
   0   0   8   14.80    3.00
  -1   0  -8   -1.30    1.80
   1   0   8   -0.60    1.90
  -2   0  -8  113.99    6.00
  -2   0  -8  125.39    5.90
   2   0   8  129.09    8.10
  -3   0  -8    2.70    1.70
  -3   0  -8    1.20    1.50
   3   0   8    6.10    2.70
  -4   0  -8 1034.70   44.20
  -4   0  -8  927.91   44.50
   4   0   8 1026.60   46.20
  -5   0  -8   -0.10    2.00
  -5   0  -8   -1.60    3.10
   5   0   8    0.50    3.20
   6   0   8   10.50    4.30
  -6   0  -8   14.50    3.30
  -6   0  -8    2.30    4.10
   7   0   8    0.10    4.50
  -7   0  -8   -1.90    3.00
   8   0   8   19.40    9.20
  -8   0  -8    8.30    4.10
 -12  -1   8   -6.80    3.60
 -12  -1   8    1.00    5.20
 -12   1   8    1.20    4.20
 -11  -1   8   13.00    4.40
 -11  -1   8   24.70    5.60
 -11   1   8   17.30    5.30
 -11   1   8   12.90    3.90
 -10  -1   8   10.40    3.40
 -10  -1   8   14.90    4.40
 -10   1   8    7.90    3.80
 -10   1   8    2.70    3.20
  -9  -1   8   77.89    8.00
  -9  -1   8   91.59    6.70
  -9   1   8   82.19    6.70
  -9   1   8  100.09    7.90
  -8  -1   8    6.00    2.70
  -8  -1   8    5.40    3.40
  -8   1   8    3.90    2.60
  -8   1   8    7.00    2.70
  -7  -1   8  103.99    7.00
  -7   1   8  108.79    7.70
  -7   1   8  104.69    6.90
  -6  -1   8    4.20    2.30
   6  -1  -8    5.20    2.70
  -6  -1   8    4.80    2.00
   6   1  -8    4.40    2.30
  -6   1   8    6.70    2.20
  -6   1   8    7.10    2.50
   5  -1  -8  675.23   31.10
  -5  -1   8  679.13   31.60
  -5  -1   8  695.63   31.30
  -5  -1   8  680.23   31.10
  -5   1   8  670.53   30.70
  -5   1   8  671.93   30.90
  -5   1   8  675.93   31.40
  -4  -1   8   86.59    5.90
  -4  -1   8   84.69    5.80
   4  -1  -8   84.89    5.50
  -4   1   8   86.49    5.60
  -4   1   8   90.19    5.70
   4   1  -8   87.39    5.70
  -3  -1   8  345.87   15.80
  -3  -1   8  322.87   16.00
   3  -1  -8  316.37   15.10
  -3   1   8  316.17   15.60
  -3   1   8  328.67   15.40
   3   1  -8  313.67   15.40
  -2  -1   8    1.20    1.30
  -2  -1   8   -0.50    1.70
   2  -1  -8    0.90    1.50
   2   1  -8    1.80    1.50
   2   1  -8    1.50    1.20
  -2   1   8   -1.40    1.60
  -2   1   8    2.60    1.00
  -1  -1   8   82.29    4.70
   1  -1  -8   75.09    5.20
  -1  -1   8   93.79    6.10
  -1   1   8   85.79    5.70
   1   1  -8   78.49    4.70
   1   1  -8   81.39    5.60
   0  -1  -8   41.20    3.90
   0  -1   8   43.40    2.80
   0  -1   8   41.80    4.30
   0   1  -8   45.20    4.00
   0   1  -8   39.50    2.60
   0   1   8   41.90    4.30
   1  -1   8    3.10    2.30
  -1   1  -8    1.60    1.00
  -1   1  -8    2.80    0.90
   1   1   8    1.00    2.00
  -1   1  -8    0.70    2.00
   2  -1   8    1.90    2.00
   2   1   8    1.90    2.20
  -2   1  -8   -1.70    2.30
  -2   1  -8    1.50    1.20
  -2   1  -8    0.50    1.40
  -3  -1  -8    6.60    1.60
   3  -1   8    3.60    3.00
   3   1   8    7.10    3.10
  -3   1  -8   11.40    1.90
  -3   1  -8    5.90    2.30
  -4  -1  -8   12.30    3.20
  -4  -1  -8   10.50    2.80
   4  -1   8   20.40    4.50
  -4   1  -8   15.50    3.10
   4   1   8   20.20    4.40
  -4   1  -8   21.40    3.20
  -5  -1  -8    4.30    2.10
  -5  -1  -8    6.70    3.30
   5  -1   8   -1.70    3.10
   5   1   8   -1.40    3.40
  -5   1  -8   -1.30    2.30
  -5   1  -8    4.50    3.50
   6  -1   8   -2.00    3.60
  -6  -1  -8    2.80    4.50
  -6  -1  -8   -0.70    2.50
  -6   1  -8   -7.50    3.90
  -6   1  -8    2.70    2.70
   6   1   8    1.50    3.60
  -7  -1  -8   -1.80    2.80
   7  -1   8   -0.80    4.00
  -7   1  -8    0.00    5.80
   7   1   8   -4.80    4.20
  -8  -1  -8   -1.20    3.80
   8  -1   8    3.20    5.20
   8   1   8   -2.00    4.90
  -8   1  -8    1.00    3.60
 -12  -2   8   21.60    5.80
 -12  -2   8   13.20    5.10
 -12   2   8   17.00    5.00
 -11  -2   8   13.70    4.80
 -11  -2   8   14.50    5.20
 -11   2   8   18.60    4.30
 -11   2   8    9.50    3.50
 -10  -2   8   12.00    4.20
 -10  -2   8   10.40    3.90
 -10   2   8   14.00    2.90
 -10   2   8   10.80    3.40
  -9  -2   8    2.30    3.10
  -9  -2   8   -0.40    3.20
  -9   2   8    1.70    2.60
  -9   2   8    2.70    2.70
  -8  -2   8    7.50    3.30
  -8  -2   8    4.50    3.00
  -8   2   8    2.60    2.50
  -8   2   8    4.80    2.30
  -7  -2   8   68.49    7.10
  -7  -2   8  100.29    6.90
  -7   2   8   82.09    7.40
  -7   2   8   99.99    6.20
   6  -2  -8   36.80    4.50
  -6  -2   8   47.10    4.50
  -6  -2   8   45.60    5.00
  -6   2   8   50.09    4.00
  -6   2   8   47.40    4.60
  -5  -2   8   21.20    3.60
  -5  -2   8   33.50    4.00
  -5  -2   8   38.90    3.90
   5  -2  -8   28.10    3.60
   5   2  -8   37.30    3.90
  -5   2   8   38.40    3.20
  -5   2   8   34.20    3.70
  -5   2   8   32.40    3.20
  -4  -2   8   84.79    6.10
  -4  -2   8   91.49    6.20
  -4   2   8   81.79    5.50
   4   2  -8   95.89    6.00
  -4   2   8   87.79    5.60
  -3  -2   8  180.58    9.80
  -3  -2   8  177.78   10.00
   3   2  -8  177.48    9.40
  -3   2   8  176.58    9.10
  -3   2   8  187.18    9.40
   2  -2  -8   13.40    2.00
  -2  -2   8   16.00    3.20
  -2  -2   8   15.00    2.60
  -2   2   8   20.30    2.00
  -2   2   8   14.80    1.70
   2   2  -8   14.50    2.50
   2   2  -8   22.80    2.50
  -2   2   8   19.90    2.70
  -1  -2   8    9.00    2.00
   1  -2  -8    7.20    1.70
  -1  -2   8    9.00    1.80
   1   2  -8    8.30    1.70
  -1   2   8    5.10    2.30
   1   2  -8    4.80    2.10
   0  -2   8   71.99    5.50
   0   2  -8   63.99    4.10
   0   2  -8   67.09    5.10
   0   2   8   67.89    5.30
   1  -2   8   70.69    5.80
  -1   2  -8   67.79    4.60
  -1   2  -8   73.39    5.80
   1   2   8   69.79    5.60
   2  -2   8   91.29    6.90
  -2   2  -8   85.99    5.50
   2   2   8   85.39    6.70
  -2   2  -8   81.59    5.00
  -2   2  -8   96.69    6.60
   3  -2   8   58.89    5.80
  -3  -2  -8   52.69    3.30
  -3  -2  -8   41.70    3.50
  -3   2  -8   61.89    4.10
  -3   2  -8   51.19    5.60
   3   2   8   61.49    5.80
  -3   2  -8   50.19    4.60
   4  -2   8   10.50    3.60
  -4  -2  -8    6.40    2.40
  -4  -2  -8   11.70    2.40
  -4   2  -8   15.30    2.60
   4   2   8   19.20    4.40
  -4   2  -8   11.00    3.10
  -5  -2  -8   34.20    4.90
   5  -2   8   43.50    5.80
  -5  -2  -8   38.40    4.10
  -5   2  -8   38.30    5.70
  -5   2  -8   44.90    4.40
   6  -2   8   13.90    5.00
  -6  -2  -8   20.30    3.50
   6   2   8   17.50    4.90
  -6   2  -8   12.30    3.50
   7  -2   8    6.30    4.50
  -7  -2  -8    4.70    3.00
  -7   2  -8    5.50    3.50
   7   2   8    2.80    4.20
   8  -2   8   13.40    6.10
  -8  -2  -8   29.90    5.10
   8   2   8   15.90    6.10
  -8   2  -8   28.60    5.00
 -12  -3   8   10.30    4.90
 -12   3   8   12.70    4.30
 -12   3   8    8.90    4.70
 -11  -3   8   28.90    6.40
 -11  -3   8   16.70    5.20
 -11   3   8   17.00    4.90
 -11   3   8   12.30    3.70
 -10  -3   8   50.29    6.20
 -10  -3   8   51.59    8.30
 -10   3   8   47.70    7.00
 -10   3   8   47.50    5.20
  -9  -3   8   23.70    4.50
  -9  -3   8   30.30    5.80
  -9   3   8   27.10    3.70
  -9   3   8   24.40    4.30
  -8  -3   8   56.09    6.10
  -8  -3   8   54.69    6.10
  -8   3   8   45.70    5.50
  -8   3   8   56.99    4.30
  -7  -3   8   11.60    3.20
  -7  -3   8    6.80    3.20
  -7   3   8    8.00    2.30
  -7   3   8   14.10    5.40
  -6  -3   8  430.76   20.80
  -6  -3   8  420.76   21.40
  -6   3   8  407.66   20.60
  -6   3   8  426.56   19.60
  -5  -3   8   46.40    4.60
  -5  -3   8   43.00    4.40
  -5  -3   8   41.70    4.40
  -5   3   8   36.70    4.00
  -5   3   8   40.10    5.40
   5   3  -8   47.90    4.50
  -4  -3   8  263.87   13.60
  -4  -3   8  252.97   13.40
  -4  -3   8  246.38   13.10
   4   3  -8  250.17   13.00
  -4   3   8  247.98   12.60
  -4   3   8  257.37   12.40
  -3  -3   8   36.70    4.00
  -3  -3   8   36.70    3.90
   3   3  -8   34.50    3.60
  -3   3   8   37.50    3.00
  -3   3   8   38.30    3.40
  -3   3   8   40.10    3.50
  -2  -3   8    8.40    2.20
  -2  -3   8    7.60    2.40
   2   3  -8    8.60    2.20
  -2   3   8    8.20    1.70
   2   3  -8   10.90    2.10
  -2   3   8    5.60    1.50
  -2   3   8    9.90    1.50
  -1  -3   8   12.40    2.30
  -1  -3   8   16.20    3.10
   1   3  -8   14.20    2.50
   1   3  -8   14.00    2.30
  -1   3   8   15.10    2.70
   0  -3   8   74.29    4.90
   0  -3   8   60.59    5.40
   0   3  -8   73.59    5.60
   0   3  -8   70.19    4.70
   0   3   8   62.19    5.20
   1  -3   8   -1.40    1.80
   1  -3   8    1.30    1.60
  -1   3  -8    0.30    1.90
  -1   3  -8    1.90    1.70
   1   3   8   -0.50    2.20
   2  -3   8   28.00    4.40
   2   3   8   32.10    4.40
  -2   3  -8   28.50    3.80
  -2   3  -8   26.10    4.10
  -3  -3  -8   17.80    2.10
  -3  -3  -8   21.80    2.20
   3  -3   8   22.30    4.10
   3   3   8   17.50    3.90
  -3   3  -8   17.00    4.00
  -3   3  -8   19.20    3.50
  -3   3  -8   19.50    2.80
  -4  -3  -8    8.90    2.20
  -4  -3  -8    6.20    2.20
   4  -3   8    4.70    3.30
  -4   3  -8    7.70    2.30
  -4   3  -8    7.00    4.20
  -4   3  -8    3.20    3.20
   4   3   8    4.20    3.10
   5  -3   8    3.10    3.60
  -5  -3  -8    1.40    2.90
  -5  -3  -8    1.00    2.40
  -5   3  -8    6.30    3.30
  -5   3  -8    5.50    2.60
   5   3   8    5.00    3.50
   6  -3   8   -0.80    3.20
  -6  -3  -8    4.00    2.50
  -6  -3  -8  -12.30    5.60
  -6   3  -8    3.20    2.90
   6   3   8    0.20    4.00
   7  -3   8   -1.80    4.10
  -7  -3  -8    7.10    3.30
  -7   3  -8    0.90    3.00
   7   3   8   -2.40    4.00
  -8  -3  -8    2.10    3.90
   8  -3   8   -7.90    5.20
   8   3   8    4.10    5.20
  -8   3  -8   -4.30    3.40
 -12  -4   8   10.20    4.80
 -12   4   8    0.10    4.20
 -12   4   8   10.80    4.10
 -11  -4   8   27.50    5.90
 -11   4   8   28.70    4.90
 -11   4   8   19.30    4.30
 -10  -4   8   13.30    5.00
 -10  -4   8    9.60    4.80
 -10   4   8    9.60    3.40
 -10   4   8    8.70    3.10
  -9  -4   8    2.10    4.60
  -9  -4   8   15.70    5.30
  -9   4   8   15.50    3.00
  -9   4   8   10.10    3.00
  -8  -4   8    7.10    3.30
  -8  -4   8    6.60    3.70
  -8   4   8    6.60    2.90
  -8   4   8   -0.60    2.00
  -7  -4   8    9.10    3.80
  -7  -4   8   11.00    2.90
  -7   4   8   12.00    3.70
  -7   4   8    6.90    2.30
  -6  -4   8   28.30    3.90
  -6  -4   8   13.10    3.70
  -6   4   8   16.30    3.60
  -6   4   8   29.80    2.80
  -6   4   8   22.60    3.30
  -5  -4   8   74.39    5.90
  -5  -4   8   68.29    6.10
  -5  -4   8   79.19    5.90
   5   4  -8   71.09    5.60
  -5   4   8   70.19    5.20
  -5   4   8   50.99    4.90
  -4  -4   8    0.20    2.30
  -4  -4   8    2.70    2.20
  -4  -4   8    1.50    1.70
  -4   4   8    1.80    1.40
  -4   4   8    1.70    1.50
   4   4  -8   -0.10    1.90
  -4   4   8   -0.60    1.70
  -3  -4   8   88.59    6.30
  -3  -4   8   83.59    6.30
  -3   4   8   94.09    5.40
   3   4  -8   89.79    6.00
  -3   4   8   82.39    5.10
  -3   4   8   79.69    5.50
  -2  -4   8    3.30    1.80
  -2  -4   8    4.60    2.00
  -2   4   8    8.00    1.40
  -2   4   8    6.30    2.60
  -2   4   8    4.70    1.90
   2   4  -8    3.70    1.70
   2   4  -8    5.90    2.20
  -1  -4   8   95.39    6.30
  -1  -4   8   96.29    6.80
   1   4  -8   84.49    5.90
  -1   4   8  100.79    6.00
   1   4  -8   97.29    6.70
   0  -4   8   32.70    3.60
   0  -4   8   29.30    4.10
   0   4   8   29.60    3.70
   0   4  -8   26.20    3.70
   0   4  -8   33.60    3.50
   1  -4   8  224.98   12.70
   1  -4   8  233.68   12.20
  -1   4  -8  222.78   12.60
   1   4   8  238.68   12.30
  -1   4  -8  209.58   11.70
   2  -4   8    1.40    2.40
   2  -4   8    1.90    2.00
  -2   4  -8   -0.40    2.20
  -2   4  -8    0.80    2.10
   3  -4   8   52.79    5.70
  -3  -4  -8   54.39    3.60
  -3  -4  -8   54.19    3.70
  -3   4  -8   62.69    5.70
   3   4   8   57.09    5.70
  -3   4  -8   62.69    6.00
  -4  -4  -8    0.60    1.80
   4  -4   8   -0.70    2.80
  -4  -4  -8    2.10    2.10
  -4   4  -8   -1.00    1.80
   4   4   8    4.30    3.00
  -4   4  -8   -2.40    3.20
  -4   4  -8   -0.90    3.00
  -5  -4  -8  138.69    8.00
   5  -4   8  127.59    9.80
  -5   4  -8  132.79    8.60
   5   4   8  126.89    9.50
   6  -4   8    2.20    3.60
  -6  -4  -8   -5.30    6.10
  -6  -4  -8    6.50    3.10
   6   4   8    1.30    4.20
  -6   4  -8    3.60    3.30
   7  -4   8   58.19    7.40
  -7  -4  -8   42.40   10.00
  -7  -4  -8   53.29    6.40
  -7   4  -8   52.49    6.30
   7   4   8   56.99    8.10
   8  -4   8   -9.90    5.50
  -8  -4  -8   -5.50    4.20
  -8   4  -8   -1.00    3.60
   8   4   8   -7.30    4.70
 -12  -5   8   54.99    7.90
 -12   5   8   52.29    6.40
 -12   5   8   41.00    6.30
 -11  -5   8    6.80    4.40
 -11  -5   8    0.60    5.30
 -11   5   8   -6.90    3.40
 -11   5   8    3.60    6.40
 -10  -5   8   41.30    6.60
 -10  -5   8   42.90    6.20
 -10   5   8   41.00    6.50
 -10   5   8   41.00    4.70
  -9  -5   8   36.00    6.60
  -9  -5   8   25.20    5.00
  -9   5   8   30.80    4.90
  -9   5   8   31.80    3.80
  -8  -5   8  109.69    8.50
  -8  -5   8  103.49    9.40
  -8   5   8  110.79    8.30
  -8   5   8  113.39    6.70
  -7  -5   8   18.10    3.80
  -7  -5   8   18.20    4.50
  -7   5   8   17.40    2.70
  -7   5   8   16.90    3.60
  -6  -5   8   85.89    6.90
  -6  -5   8   85.89    6.90
  -6  -5   8   79.39    7.50
  -6   5   8   84.09    6.30
  -6   5   8   87.09    5.10
  -5  -5   8  104.19    7.40
  -5  -5   8  105.29    7.50
  -5  -5   8  114.69    8.20
  -5   5   8  101.49    7.50
  -5   5   8  106.29    5.80
  -5   5   8  109.49    6.90
  -4  -5   8  104.69    7.30
  -4  -5   8  115.89    7.80
  -4  -5   8  103.39    7.40
  -4   5   8  102.39    6.50
  -4   5   8  116.99    6.40
  -4   5   8  107.59    7.10
   4   5  -8  104.79    7.10
  -3  -5   8    4.30    2.10
  -3  -5   8    3.20    2.50
  -3  -5   8    5.40    1.70
  -3   5   8    6.60    2.00
  -3   5   8    4.40    1.60
  -3   5   8    2.40    1.60
   3   5  -8    6.70    3.00
  -2  -5   8  318.97   15.40
  -2  -5   8  276.97   15.00
  -2   5   8  276.47   13.80
   2   5  -8  293.07   14.70
  -2   5   8  277.67   13.30
  -2   5   8  290.67   13.90
  -1  -5   8   -0.50    1.80
  -1  -5   8    3.20    2.10
   1   5  -8    1.90    2.00
  -1   5   8    1.10    0.80
   1   5  -8    0.60    1.90
  -1   5   8    0.30    1.00
  -1   5   8    2.30    1.80
   0  -5   8   18.40    3.40
   0  -5   8   18.30    3.70
   0   5  -8   20.40    3.70
   0   5  -8   19.70    2.90
   1  -5   8    6.50    2.90
   1  -5   8   11.00    2.70
   1   5   8    7.80    2.50
  -1   5  -8    6.80    2.80
  -1   5  -8   14.50    2.90
   2  -5   8   17.80    3.50
   2  -5   8   16.90    3.60
  -2   5  -8   14.30    3.50
  -2   5  -8   22.30    3.50
   2   5   8   16.00    3.60
   3  -5   8    0.80    2.10
  -3  -5  -8    1.20    1.50
  -3   5  -8   -0.10    2.60
   3   5   8    0.60    2.70
  -3   5  -8    4.80    2.70
   4  -5   8    1.60    3.00
  -4  -5  -8    4.70    2.30
  -4   5  -8    2.90    2.10
   4   5   8   -0.50    3.10
  -4   5  -8    0.90    3.30
  -4   5  -8    1.30    3.00
   5  -5   8    1.10    2.90
  -5  -5  -8    5.50    2.90
  -5   5  -8   -5.40    4.80
   5   5   8    3.90    3.80
  -5   5  -8   -2.10    2.60
  -6  -5  -8    2.10    3.10
   6  -5   8   -2.50    3.10
   6   5   8    2.10    4.20
  -6   5  -8    1.50    2.90
  -7  -5  -8    4.00    3.70
   7  -5   8  -10.90    3.90
   7   5   8    3.50    4.90
  -7   5  -8   -0.80    3.30
  -8  -5  -8    8.20    4.60
   8  -5   8    2.50    5.40
  -8   5  -8   -0.50    3.90
   8   5   8    3.80    5.10
 -12  -6   8   12.70    5.60
 -12   6   8   -1.80    4.30
 -12   6   8    2.90    3.70
 -11  -6   8    4.40    8.20
 -11  -6   8    3.50    4.90
 -11   6   8    6.30    3.70
 -11   6   8   -0.40    3.50
 -10  -6   8   -0.10    4.30
 -10  -6   8    9.70    4.90
 -10   6   8    3.80    2.90
 -10   6   8    3.50    3.00
  -9  -6   8   -3.50    4.00
  -9  -6   8    4.20    3.80
  -9   6   8    3.20    2.30
  -9   6   8   -2.70    2.40
  -8  -6   8    6.30    3.90
  -8  -6   8   11.40    3.90
  -8   6   8    3.20    2.70
  -8   6   8    5.10    2.20
  -7  -6   8    5.20    3.20
  -7  -6   8   10.30    3.40
  -7   6   8    8.30    2.00
  -7   6   8    6.90    2.80
  -6  -6   8    6.30    3.00
  -6  -6   8    3.70    3.20
  -6  -6   8    5.50    3.40
  -6   6   8    9.90    1.70
  -6   6   8    3.80    2.30
  -5  -6   8   25.90    4.20
  -5  -6   8   28.90    4.40
  -5  -6   8   26.00    4.90
  -5   6   8   33.80    3.70
  -5   6   8   26.70    2.50
  -5   6   8   21.80    3.80
  -4  -6   8    8.90    2.80
  -4  -6   8    5.40    2.80
  -4  -6   8    1.70    2.30
  -4   6   8    9.20    2.70
  -4   6   8    2.20    1.40
  -4   6   8    4.10    1.80
  -3  -6   8   16.00    3.30
  -3  -6   8   11.90    2.80
  -3  -6   8   17.00    3.20
  -3   6   8   14.10    2.40
  -3   6   8   11.60    2.50
   3   6  -8   17.90    3.40
  -3   6   8   14.20    3.40
  -2  -6   8   45.20    5.10
  -2  -6   8   42.90    4.90
  -2   6   8   36.10    3.70
  -2   6   8   48.00    3.30
  -2   6   8   47.80    4.10
   2   6  -8   57.29    4.90
  -1  -6   8   98.79    7.20
  -1  -6   8   95.19    7.20
  -1   6   8   99.99    6.10
  -1   6   8   89.29    5.40
   1   6  -8   92.69    6.80
   0  -6   8   40.40    4.90
   0  -6   8   44.10    5.00
   0   6   8   43.30    2.90
   0   6   8   49.90    4.50
   0   6  -8   46.40    4.70
   1  -6   8   68.69    5.90
   1  -6   8   70.49    6.00
  -1  -6  -8   64.09    3.70
  -1   6  -8   77.49    6.40
   1   6   8   71.19    5.70
   1   6   8   61.89    3.60
  -1   6  -8   71.59    6.80
  -2  -6  -8   77.09    4.60
   2  -6   8   80.99    6.80
   2  -6   8   77.59    6.60
   2   6   8   71.09    4.70
   2   6   8   85.49    6.50
  -2   6  -8   76.19    6.60
  -2   6  -8   82.79    6.50
  -3  -6  -8    2.40    2.20
   3  -6   8    0.40    2.50
   3  -6   8    1.70    2.80
  -3   6  -8   -0.60    2.80
   3   6   8    1.60    1.50
  -3   6  -8   -0.60    2.60
   3   6   8    1.20    3.10
  -4  -6  -8   39.20    4.20
   4  -6   8   34.30    5.20
   4   6   8   37.40    3.80
   4   6   8   44.70    5.80
  -4   6  -8   50.79    6.20
  -5  -6  -8   60.79    5.40
   5  -6   8   57.69    6.60
   5   6   8   57.59    5.00
  -5   6  -8   64.89    6.30
  -5   6  -8   63.49    8.00
   5   6   8   59.59    7.00
   6  -6   8   21.60    4.60
  -6  -6  -8   26.20    4.40
  -6   6  -8   32.40    5.40
   6   6   8   32.10    5.80
  -7  -6  -8   46.80    6.30
   7  -6   8   42.10    7.00
  -7   6  -8   47.40    6.70
   7   6   8   43.00    7.30
  -8  -6  -8    9.60    5.40
   8  -6   8   13.10    5.80
  -8   6  -8   11.20    4.30
   8   6   8    3.60    4.60
 -11  -7   8   32.00    6.50
 -11   7   8   16.10    4.10
 -11   7   8   11.30    4.00
 -10  -7   8   -6.10    4.80
 -10  -7   8    8.70    4.10
 -10   7   8    1.00    3.00
 -10   7   8   -6.40    3.10
  -9  -7   8   61.49    8.70
  -9  -7   8   56.79    7.20
  -9   7   8   55.99    4.60
  -9   7   8   64.39    6.70
  -8  -7   8   31.60    7.10
  -8  -7   8   23.60    4.70
  -8   7   8   35.00    5.40
  -8   7   8   30.50    3.30
  -7  -7   8  189.08   11.80
  -7  -7   8  204.48   13.40
  -7   7   8  196.18    9.50
  -7   7   8  197.58   11.80
  -6  -7   8   94.29    7.80
  -6  -7   8   98.79    7.50
  -6  -7   8   92.29    8.20
  -6   7   8   92.69   10.10
  -6   7   8   90.29    4.80
  -6   7   8   89.69    4.80
  -5  -7   8   63.69    5.70
  -5  -7   8   52.79    6.40
  -5  -7   8   53.39    6.00
  -5   7   8   55.29    5.70
  -5   7   8   56.89    3.40
  -5   7   8   53.89    5.10
  -4  -7   8   24.70    4.80
  -4  -7   8   28.20    4.40
  -4  -7   8   29.90    4.30
  -4   7   8   29.80    3.60
  -4   7   8   32.60    2.70
  -3  -7   8   67.49    6.00
  -3  -7   8   73.99    6.30
  -3  -7   8   53.19    5.10
  -3   7   8   66.29    4.20
  -3   7   8   61.59    4.60
  -3   7   8   55.49    5.10
  -2  -7   8   66.19    6.00
  -2  -7   8   75.59    6.50
  -2   7   8   72.09    5.30
   2   7  -8   76.19    6.20
  -2   7   8   78.19    5.00
  -1  -7   8   84.39    6.80
  -1  -7   8   86.89    7.10
   1   7  -8   95.59    6.90
  -1   7   8   86.69    5.80
   1   7  -8   84.49    6.60
  -1   7   8   79.59    5.30
   0  -7   8    0.60    2.20
   0  -7   8    2.10    2.50
   0   7  -8   -0.80    2.50
   0   7  -8    1.40    2.40
   0   7   8   -0.10    1.90
   0   7   8    0.20    1.40
  -1  -7  -8    2.70    2.40
   1  -7   8   -0.50    1.90
   1  -7   8    3.30    3.00
   1   7   8    1.90    2.20
  -1   7  -8    7.00    2.90
  -1   7  -8    2.50    4.30
   1   7   8    1.60    1.30
   2  -7   8   -2.50    2.00
  -2  -7  -8    4.50    2.20
   2  -7   8   -0.30    2.30
   2   7   8    0.50    1.40
  -2   7  -8    0.00    3.60
   2   7   8    0.50    2.60
   3  -7   8   26.40    4.60
   3  -7   8   29.80    5.20
  -3  -7  -8   30.70    3.60
   3   7   8   29.90    3.10
  -3   7  -8   40.90    5.40
   3   7   8   33.10    5.10
  -4  -7  -8    1.20    2.20
   4  -7   8    1.70    2.80
   4   7   8   -0.20    3.10
   4   7   8    3.20    2.20
  -4   7  -8   -4.30    3.50
   5  -7   8    1.10    3.30
  -5  -7  -8    3.50    2.90
   5   7   8   -0.90    3.80
   5   7   8    4.20    2.90
  -5   7  -8   -3.30    2.60
  -5   7  -8    8.50    4.00
  -6  -7  -8   -4.10    3.40
   6  -7   8    0.90    3.70
  -6   7  -8    2.10    3.40
   6   7   8   -3.60    3.10
   6   7   8   -0.50    4.10
  -7  -7  -8   -0.80    4.30
   7  -7   8    3.30    5.10
  -7   7  -8    8.90    4.20
   7   7   8   11.00    5.00
 -11  -8   8    1.90    5.40
 -11   8   8    0.10    3.90
 -11   8   8   -0.30    3.50
 -10  -8   8   13.70    5.40
 -10  -8   8    4.00    5.20
 -10   8   8   16.10    4.40
 -10   8   8   11.40    3.40
  -9  -8   8   -3.20    5.30
  -9  -8   8    2.70    4.20
  -9   8   8   -1.20    2.20
  -9   8   8    1.30    3.30
  -8  -8   8   15.50    4.70
  -8  -8   8   21.80    5.30
  -8   8   8   11.50    2.10
  -8   8   8   12.30    3.80
  -7  -8   8   12.00    4.00
  -7  -8   8    6.70    4.10
  -7  -8   8   14.90    4.40
  -7   8   8    7.10    2.90
  -6  -8   8   10.80    3.00
  -6  -8   8    7.30    3.20
  -6  -8   8    7.30    3.80
  -6   8   8   10.80    2.90
  -5  -8   8   -2.40    2.70
  -5  -8   8    3.00    3.50
  -5  -8   8    3.70    2.80
  -5   8   8    4.60    2.30
  -4  -8   8   19.40    4.00
  -4  -8   8   21.70    4.40
  -4  -8   8   19.40    3.50
  -4   8   8   20.40    3.10
  -4   8   8   18.90    2.10
  -4   8   8   11.80    3.30
  -3  -8   8   52.89    5.30
  -3  -8   8   63.49    6.10
  -3   8   8   67.09    4.90
  -3   8   8   63.19    4.10
  -3   8   8   52.39    5.30
  -2  -8   8  157.58   10.00
  -2  -8   8  148.39    9.60
  -2  -8   8  176.38   11.00
  -2   8   8  173.18    8.50
  -2   8   8  132.09    8.90
  -1  -8   8    7.90    2.30
  -1  -8   8    1.20    2.70
   1   8  -8    1.40    2.30
  -1   8   8    9.00    2.50
  -1   8   8    3.00    2.20
   0  -8  -8  150.28    8.40
   0  -8   8  138.19    9.50
   0  -8   8  162.68   10.60
   0   8   8  142.89    8.00
   0   8  -8  133.49   10.70
   0   8   8  153.28    8.70
   1  -8   8    3.90    2.80
   1  -8   8    5.70    3.40
  -1  -8  -8   14.20    2.50
   1   8   8   10.10    2.30
   1   8   8   10.50    3.10
   2  -8   8   14.00    4.30
  -2  -8  -8   10.00    2.60
   2  -8   8   11.90    3.30
   2   8   8    7.10    1.90
   2   8   8   11.70    3.50
   3  -8   8   -3.40    2.80
   3  -8   8    0.70    3.20
  -3  -8  -8   -0.50    2.50
  -3   8  -8    3.40    3.00
   3   8   8   -0.30    2.00
   3   8   8    2.00    3.20
  -4  -8  -8   98.09    6.90
   4  -8   8  105.89    8.40
  -4   8  -8  101.89    8.70
   4   8   8  119.19    8.50
   4   8   8   95.99    6.50
   5  -8   8   42.30    6.20
  -5  -8  -8   37.60    5.00
  -5   8  -8   24.50    6.10
   5   8   8   33.60    6.10
   5   8   8   45.80    6.10
  -6  -8  -8   30.10    4.80
   6   8   8   29.00    6.40
   6   8   8   20.40    5.00
  -6   8  -8   39.10    6.00
  -6   8  -8   22.10    5.70
   7  -8   8    4.20    4.20
   7   8   8    1.40    5.00
  -7   8  -8   -0.80    3.80
 -11  -9   8   35.60    7.70
 -11   9   8   41.40    6.50
 -11   9   8   29.10    5.00
 -10  -9   8    4.80    4.80
 -10   9   8    6.30    3.00
  -9  -9   8   72.19    9.10
  -9  -9   8   80.09    9.00
  -9   9   8   75.19    5.30
  -9   9   8   78.59    7.80
  -8  -9   8    0.70    4.10
  -8  -9   8    8.20    4.10
  -8   9   8    3.30    2.90
  -7  -9   8   86.29    8.10
  -7  -9   8   54.89    7.00
  -7  -9   8   75.99    8.60
  -7   9   8   79.29    7.10
  -6  -9   8   -1.10    3.10
  -6  -9   8    0.10    3.30
  -6  -9   8   -3.40    2.80
  -6   9   8    4.00    2.50
  -5  -9   8   33.40    4.90
  -5  -9   8   47.00    7.00
  -5  -9   8   40.30    5.10
  -4  -9   8    6.60    3.30
  -4  -9   8    4.10    2.70
  -4  -9   8   -3.50    2.60
  -4   9   8    2.10    1.30
  -4   9   8    4.00    2.20
  -4   9   8    3.80    3.20
  -3  -9   8  162.38   10.30
  -3  -9   8  172.38   11.30
  -3  -9   8  131.49    9.30
  -3   9   8  148.19    9.30
  -3   9   8  158.48    7.90
  -2  -9   8   -2.60    2.60
  -2  -9   8    0.40    1.90
  -2  -9   8   -1.40    2.30
  -2   9   8   -1.20    1.80
  -2   9   8    3.10    2.30
  -1  -9   8  216.78   12.80
  -1  -9   8  234.68   13.90
   1  -9  -8  228.18   12.00
  -1   9   8  205.68   11.50
  -1   9   8  207.68   11.30
   1   9  -8  216.38   12.70
   0  -9   8    4.50    2.80
   0  -9   8    7.90    3.60
   0  -9  -8   10.30    2.80
   0   9   8    7.60    2.30
   0   9  -8   14.20    4.00
   0   9   8    8.80    2.80
   1  -9   8    0.20    2.40
  -1  -9  -8    1.00    2.20
   1  -9   8   -0.70    2.10
   1   9   8   -1.10    1.80
   1   9   8    6.00    2.60
   2  -9   8   36.80    5.60
   2  -9   8   44.60    6.70
  -2  -9  -8   33.30    4.10
   2   9   8   34.30    3.80
   2   9   8   34.50    5.20
  -3  -9  -8    6.60    2.90
   3  -9   8    1.80    3.60
   3  -9   8    1.60    2.90
   3   9   8    6.10    2.80
   3   9   8    3.30    2.30
  -3   9  -8    0.50    6.20
   4  -9   8   -1.50    3.10
  -4  -9  -8    2.10    2.90
   4  -9   8   -0.50    3.10
   4   9   8    3.90    2.90
  -4   9  -8   -3.80    3.50
   4   9   8   -0.90    2.90
   5  -9   8   -1.70    3.60
  -5  -9  -8   -2.00    3.10
  -5   9  -8   -4.30    4.10
   5   9   8   -2.10    2.90
   5   9   8   -1.10    3.60
   6  -9   8   -3.50    3.90
  -6  -9  -8   -1.90    3.90
   6   9   8    0.10    4.20
  -6   9  -8    1.40    3.90
   7  -9   8    5.40    9.00
  -7  -9  -8    5.10    5.40
   7   9   8  -13.90    5.00
  -7   9  -8    4.10    4.10
 -10 -10   8    7.20    5.80
 -10  10   8    6.50    2.70
 -10  10   8   -2.90    3.70
  -9 -10   8    3.40    4.70
  -9  10   8    2.40    3.90
  -9  10   8    6.70    2.10
  -8 -10   8    4.80    4.10
  -8 -10   8   10.70    4.60
  -8  10   8    5.70    3.90
  -7 -10   8    8.70    4.30
  -7 -10   8   -1.90    3.30
  -7  10   8    1.90    3.00
  -6 -10   8   14.00    5.00
  -6 -10   8   11.20    4.10
  -6  10   8   16.10    4.10
  -5 -10   8   14.90    5.00
  -5 -10   8    9.10    3.40
  -5  10   8   13.90    3.40
  -4 -10   8  117.89   10.10
  -4 -10   8  124.49    9.10
  -3 -10   8   65.99    7.20
  -3 -10   8   65.19    6.40
  -3  10   8   64.69    6.20
  -3  10   8   62.79    4.30
  -2 -10   8   14.70    4.20
  -2 -10   8   15.60    3.90
   2 -10  -8   22.10    4.20
  -2  10   8   19.10    2.70
  -2  10   8   18.80    3.40
  -1 -10   8   13.20    3.60
  -1 -10   8   12.20    3.50
   1 -10  -8    5.10    2.90
  -1  10   8    8.60    2.90
  -1  10   8    5.70    2.50
   0 -10   8   40.60    5.50
   0 -10   8   40.90    6.60
   0 -10  -8   44.50    5.20
   0  10   8   38.40    4.40
   0  10  -8   49.00    6.60
   0  10   8   37.40    4.50
   1 -10   8   28.20    5.00
  -1 -10  -8   23.70    4.00
   1 -10   8   37.70    6.10
   1  10   8   27.20    3.60
   1  10   8   29.10    4.40
   2 -10   8    7.50    3.30
  -2 -10  -8    4.70    2.80
   2 -10   8    4.00    2.90
   2  10   8    1.80    2.50
   2  10   8    7.10    3.10
  -3 -10  -8   47.70    5.30
   3 -10   8   39.80    6.60
   3 -10   8   35.40    5.30
   3  10   8   38.00    5.70
   3  10   8   32.40    6.30
   4 -10   8   15.20    4.60
  -4 -10  -8   19.30    3.90
   4 -10   8   18.70    4.40
   4  10   8   17.00    3.50
   4  10   8   18.40    4.20
  -4  10  -8   17.80    5.50
   5 -10   8    7.30    5.80
  -5 -10  -8   12.90    4.00
  -5  10  -8    7.60    4.50
   5  10   8   10.50    4.70
   6 -10   8   17.30    6.70
  -6 -10  -8   12.40    7.50
  -6  10  -8   30.50    6.50
   6  10   8   24.00    5.80
 -10 -11   8   43.10    8.20
 -10  11   8   62.69    4.60
 -10  11   8   64.99    8.50
  -9 -11   8   13.20    5.20
  -9  11   8   18.10    5.50
  -8 -11   8   28.40    5.50
  -8 -11   8   42.20    8.60
  -8  11   8   34.30    6.10
  -7 -11   8    0.30    4.40
  -7 -11   8    1.60    3.50
  -7  11   8    2.90    3.00
  -6 -11   8   98.29    9.70
  -6 -11   8   87.59    8.60
  -6  11   8   78.39    7.40
  -5 -11   8  209.58   13.60
  -5 -11   8  216.28   14.70
  -5  11   8  216.18   12.80
  -4 -11   8  129.59    9.50
  -4 -11   8  136.49   11.10
  -4  11   8  117.89    6.20
  -3 -11   8   22.50    5.70
  -3 -11   8   16.30    4.00
  -3  11   8   15.60    2.40
  -2 -11   8  122.29    9.10
  -2 -11   8  157.28   11.20
   2 -11  -8  128.09    9.00
  -2  11   8  129.79    7.30
  -2  11   8  121.79    8.80
   1 -11  -8    3.90    3.00
  -1 -11   8    5.40    3.00
  -1 -11   8    6.60    3.60
  -1  11   8    3.50    2.90
  -1  11   8    2.80    2.40
   0 -11  -8   56.59    5.90
   0 -11   8   50.19    5.80
   0 -11   8   48.20    7.60
   0  11   8   40.10    5.00
   0  11  -8   38.20    6.30
   0  11   8   45.70    4.60
   1 -11   8   10.40    4.40
  -1 -11  -8   13.80    3.30
   1 -11   8    5.90    2.90
   1  11   8   11.80    3.30
   1  11   8    8.60    2.90
   2 -11   8   -1.80    2.80
   2 -11   8    5.10    3.10
  -2 -11  -8    6.30    3.20
   2  11   8    9.60    3.20
   2  11   8    4.10    2.80
   3 -11   8    4.30    3.40
   3 -11   8   10.70    4.40
  -3 -11  -8   15.20    3.80
   3  11   8    5.90    3.10
   3  11   8    5.40    4.00
   4 -11   8   -1.50    6.10
   4 -11   8   -4.80    3.50
  -4 -11  -8    1.20    3.70
   4  11   8   -3.20    5.30
   4  11   8   -4.70    3.50
  -4  11  -8   -6.40    4.60
  -5 -11  -8   -5.00    3.60
   5 -11   8    0.60    4.20
   5  11   8   -1.20    4.50
   6 -11   8    0.40    5.20
  -6 -11  -8   -7.00    4.40
   6  11   8   -4.10    4.40
  -6  11  -8   -5.80    4.10
  -9 -12   8    7.10    4.80
  -9 -12   8   16.70    5.60
  -9  12   8    0.70    3.80
  -8 -12   8   -1.30    3.80
  -8 -12   8    0.80    5.20
  -8  12   8    0.30    3.40
  -7 -12   8    4.60    4.30
  -7 -12   8   14.80    5.30
  -7  12   8   11.20    4.10
  -6 -12   8    3.50    3.60
  -6 -12   8    5.50    4.20
  -6  12   8    6.00    3.60
  -5 -12   8   41.30    7.40
  -5 -12   8   36.20    5.70
  -4 -12   8    1.50    2.90
  -4 -12   8    2.50    3.50
  -4  12   8    3.10    1.40
  -3 -12   8  101.99    9.60
  -3 -12   8   95.09    8.30
  -3  12   8  103.39    6.00
   2 -12  -8    3.80    3.30
  -2 -12   8    8.00    3.30
  -2 -12   8    5.20    2.80
  -2  12   8    5.90    2.40
   1 -12  -8   51.59    6.20
  -1 -12   8   52.19    7.80
  -1 -12   8   39.20    6.00
  -1  12   8   43.00    4.30
   0 -12   8    2.10    2.90
   0 -12  -8    1.70    3.30
   0 -12   8    3.90    2.50
   0  12   8    3.20    2.80
   0  12  -8   -7.50    3.00
  -1 -12  -8  156.98   10.30
   1 -12   8  150.48   10.10
   1 -12   8  162.68   12.00
   1  12   8  143.29    9.70
   1  12   8  142.99   10.00
   2 -12   8   14.70    5.10
   2 -12   8    8.30    3.60
  -2 -12  -8   11.00    3.80
   2  12   8   15.80    3.80
   3 -12   8    9.50    4.50
  -3 -12  -8    3.80    3.40
   3 -12   8    2.00    3.80
   3  12   8    2.50    3.50
   4 -12   8    2.00    4.40
  -4 -12  -8    4.70    4.30
   4 -12   8    1.20    3.90
  -5 -12  -8   27.20    5.60
   5 -12   8   18.00    6.00
   5  12   8   16.60    5.20
  -8 -13   8   51.49    8.00
  -8 -13   8   64.39    9.80
  -7 -13   8   36.00    8.60
  -7 -13   8   52.79    9.70
  -7  13   8   47.20    7.20
  -6 -13   8   79.89    8.60
  -6 -13   8  100.99   10.20
  -6  13   8   78.39    7.80
  -5 -13   8    3.00    4.10
  -5 -13   8    2.40    4.20
  -4 -13   8  134.89   10.00
  -4 -13   8  138.89   11.80
  -4  13   8  113.79    6.30
  -3 -13   8    1.20    3.60
   3 -13  -8    0.10    2.90
  -3 -13   8    0.70    2.70
  -3  13   8    0.90    1.90
   2 -13  -8    6.60    4.00
  -2 -13   8    7.80    4.50
  -2 -13   8   12.50    3.40
  -2  13   8    8.50    2.90
   1 -13  -8    1.40    3.60
  -1 -13   8    2.50    3.40
  -1 -13   8    4.70    2.80
  -1  13   8    1.10    2.00
   0 -13   8    7.00    3.50
   0 -13  -8    1.80    3.80
   0 -13   8    2.10    4.20
   0  13   8    2.00    2.70
   1 -13   8    4.60    4.50
  -1 -13  -8    0.60    3.80
   1  13   8    0.80    3.20
  -1  13  -8   -7.80    3.60
   2 -13   8   29.40    7.00
   2 -13   8   25.00    4.90
  -2 -13  -8   25.40    6.00
   2  13   8   28.30    5.50
   3 -13   8   -0.10    3.40
   3 -13   8    0.90    4.00
  -3 -13  -8    5.00    5.00
   3  13   8    0.90    3.60
   4 -13   8    3.70    4.40
  -4 -13  -8    0.40    4.70
   4 -13   8   -4.70    4.40
   4  13   8    3.90    3.70
  -5 -13  -8   -1.10    5.00
   5  13   8   -5.50    4.20
  -8 -14   8    1.70    5.90
  -8 -14   8    3.40    5.00
  -7 -14   8    7.30    5.20
  -7 -14   8   14.00    8.70
  -7  14   8    9.90    4.10
  -6 -14   8   -0.60    3.80
  -6 -14   8    5.10    4.90
  -6  14   8   -2.00    3.30
  -5 -14   8    8.20    4.00
  -4 -14   8    2.80    4.60
  -4 -14   8    8.20    3.90
  -3 -14   8   17.80    3.90
  -3 -14   8   18.00    6.60
   3 -14  -8   29.10    5.40
  -3  14   8   24.70    3.10
  -2 -14   8   29.20    6.10
  -2 -14   8   26.00    4.90
   2 -14  -8   37.90    6.40
  -2  14   8   30.50    4.10
  -1 -14   8   15.70    5.80
   1 -14  -8   20.30    5.00
  -1 -14   8   14.90    3.90
  -1  14   8   14.00    3.30
   0 -14   8   21.70    4.80
   0 -14   8   27.00    6.10
   0 -14  -8   31.60    6.20
   1 -14   8   -1.00    3.00
  -1 -14  -8    9.00    4.10
   1 -14   8    7.30    4.00
  -1  14  -8   -1.40    4.20
   1  14   8   -0.90    2.90
   2 -14   8    2.50    4.00
   2 -14   8    1.90    3.60
  -2 -14  -8   -2.80    3.80
   2  14   8   -0.20    3.40
  -3 -14  -8   55.49    7.10
   3 -14   8   39.40    6.60
   3  14   8   54.09    7.20
   4 -14   8   13.00    6.00
  -4 -14  -8    3.00    4.70
   4  14   8   -0.60    4.10
  -7  15   8   19.90    5.30
  -6 -15   8   -0.40    4.80
  -6 -15   8    7.90    5.90
  -6  15   8    2.10    4.40
  -5 -15   8   22.90    6.40
  -5 -15   8   15.90    6.20
  -4 -15   8    8.20    4.00
  -4 -15   8   15.80    6.00
  -3 -15   8    4.50    5.60
   3 -15  -8    0.80    4.60
  -3 -15   8    1.90    2.90
  -3  15   8   -0.50    2.30
   2 -15  -8    1.50    4.00
  -2 -15   8    1.40    3.30
  -2  15   8   -1.10    2.50
   1 -15  -8   58.39    7.80
  -1 -15   8   41.70    6.10
  -1 -15   8   48.90   12.10
  -1  15   8   35.10    5.00
   0 -15  -8    5.90    4.70
   0  15   8    5.00    3.10
   1 -15   8   19.30    5.90
  -1 -15  -8   29.60    6.10
   1 -15   8   21.70    4.90
   1  15   8   15.50    4.30
  -2 -15  -8    1.60    4.30
   2 -15   8    7.50    5.10
   2 -15   8   -7.10    4.50
   2  15   8    4.30    3.70
   3 -15   8    3.90    5.50
  -3 -15  -8    0.80    4.50
   3  15   8    1.90    4.00
  -5 -16   8    9.00    5.90
  -5 -16   8    6.50    5.30
  -4 -16   8    4.40    3.90
  -4 -16   8   -2.00    4.90
   3 -16  -8    2.20    4.60
  -3 -16   8    3.70    4.40
  -3 -16   8    2.90    3.90
  -3  16   8    0.40    1.90
   2 -16  -8   58.79    8.30
  -2 -16   8   43.00    6.10
  -2 -16   8   47.50    8.10
  -2  16   8   54.99    5.30
  -1 -16   8    9.70    4.80
   1 -16  -8   -2.40    4.10
  -1 -16   8   -2.20    4.20
  -1  16   8    3.10    3.10
   0 -16   8   19.50    6.30
   0 -16  -8   26.50    5.90
   0 -16   8   16.80    5.70
   0  16   8   22.60    4.70
  -1 -16  -8   -2.00    4.20
   1 -16   8   -6.50    3.70
   1 -16   8   -0.30    5.10
   1  16   8   -2.80    2.90
 -12   0   9    3.10    4.20
 -12   0   9   -2.40    4.10
 -11   0   9    2.10    4.10
 -11   0   9    4.10    4.20
 -10   0   9   -1.20    2.90
 -10   0   9    1.20    3.20
  -9   0   9   38.90    5.80
  -9   0   9   42.60    5.00
  -8   0   9    1.50    2.60
  -8   0   9    0.90    2.80
  -7   0   9   49.80    5.00
  -6   0   9    0.50    2.00
  -6   0   9   -1.50    2.40
  -6   0   9    1.60    2.10
   5   0  -9   77.49    6.40
  -5   0   9   81.79    5.90
  -5   0   9   80.29    6.10
  -5   0   9   84.79    5.90
  -4   0   9    0.80    1.60
   4   0  -9   -2.20    1.50
  -4   0   9   -1.50    1.50
   3   0  -9  204.88    9.90
  -3   0   9  189.18   10.20
  -3   0   9  207.18   11.10
  -2   0   9   -1.60    1.20
  -2   0   9    1.80    2.10
  -1   0   9  190.88   10.70
   0   0   9   -1.50    1.60
   1   0   9   54.79    5.30
   2   0   9   -2.90    2.20
  -3   0  -9   32.30    2.70
   3   0   9   27.00    4.90
  -4   0  -9    1.50    1.80
   4   0   9   -1.70    3.20
  -4   0  -9    2.70    2.80
  -5   0  -9   18.20    4.00
   5   0   9   27.20    7.70
  -5   0  -9   19.20    2.90
  -6   0  -9   -9.00    5.10
   6   0   9    2.30    3.90
  -6   0  -9   -0.70    2.60
  -7   0  -9    1.90    3.50
   7   0   9    2.10    4.80
  -8   0  -9    5.90    4.80
   8   0   9    0.50    5.60
 -12  -1   9   24.20    5.90
 -12  -1   9   33.70    6.00
 -12   1   9   17.80    8.20
 -12   1   9   34.70    6.30
 -11  -1   9    1.60    4.00
 -11  -1   9   -0.40    3.90
 -11   1   9   -2.60    3.90
 -11   1   9    4.10    4.70
 -10  -1   9   67.79    6.60
 -10  -1   9   58.79    7.20
 -10   1   9   58.59    6.70
 -10   1   9   58.09    7.00
  -9  -1   9    1.60    3.30
  -9  -1   9   -6.40    2.40
  -9   1   9    4.00    2.80
  -9   1   9    2.20    3.00
  -8  -1   9   17.90    4.20
  -8  -1   9   21.30    3.80
  -8   1   9   17.60    3.60
  -8   1   9   13.50    3.30
  -7  -1   9  293.17   17.60
  -7  -1   9  285.07   15.00
  -7   1   9  300.57   19.60
  -6  -1   9  281.37   14.90
  -6  -1   9  261.67   14.20
  -6  -1   9  269.87   13.90
   6  -1  -9  252.67   14.10
  -6   1   9  273.67   13.80
  -6   1   9  290.57   14.60
   6   1  -9  250.07   14.20
  -6   1   9  278.87   13.80
   5  -1  -9   97.49    6.70
  -5  -1   9  109.49    7.10
  -5  -1   9  101.19    6.70
  -5  -1   9  103.29    7.20
  -5   1   9  110.89    7.00
  -5   1   9  102.29    6.50
   5   1  -9   97.49    7.60
   4  -1  -9  210.08   10.90
  -4  -1   9  222.78   11.60
  -4  -1   9  206.78   11.60
   4   1  -9  214.38   11.00
  -4   1   9  217.98   11.20
  -3  -1   9   71.79    5.70
  -3  -1   9   69.09    4.90
   3  -1  -9   67.49    4.30
   3   1  -9   71.59    4.60
  -3   1   9   63.29    5.20
  -3   1   9   72.79    4.60
  -2  -1   9  293.57   14.80
  -2  -1   9  278.37   13.60
   2   1  -9  275.07   13.30
  -2   1   9  292.57   14.50
  -2   1   9  283.87   13.00
  -1  -1   9   40.10    3.10
  -1  -1   9   37.70    4.50
   1   1  -9   45.40    2.80
  -1   1   9   40.80    4.60
   0  -1   9    2.90    2.10
   0   1   9    2.70    2.10
   0   1  -9    2.60    0.80
   1  -1   9    1.20    2.50
   1   1   9   -0.50    2.40
  -1   1  -9    1.60    0.90
  -1   1  -9    2.00    0.90
   2  -1   9   37.50    5.10
  -2   1  -9   36.00    2.60
   2   1   9   31.70    4.80
  -3  -1  -9   12.40    1.40
   3  -1   9    8.90    3.80
  -3   1  -9   12.60    2.50
  -3   1  -9   13.60    2.20
   4  -1   9   17.30    4.30
  -4  -1  -9   14.00    2.80
  -4  -1  -9   15.60    2.30
   4   1   9   15.80    4.00
  -4   1  -9   15.90    2.70
  -4   1  -9   14.70    3.40
  -5  -1  -9   -3.10    3.10
   5  -1   9    1.30    3.50
  -5  -1  -9    1.60    2.30
   5   1   9   -2.80    3.50
  -5   1  -9    5.20    2.50
  -5   1  -9   -1.40    3.60
  -6  -1  -9    6.50    5.80
   6  -1   9    5.20    5.10
  -6  -1  -9   -2.10    2.60
  -6   1  -9    1.30    2.60
  -6   1  -9    3.40    4.70
   6   1   9    3.70    4.10
  -7  -1  -9   19.70    4.10
  -7  -1  -9   18.60   11.90
   7  -1   9   13.60    5.60
  -7   1  -9   12.30    4.10
   7   1   9   10.60    5.30
  -8  -1  -9    9.10    4.80
   8  -1   9   -4.00    5.90
   8   1   9    3.70    5.60
  -8   1  -9    5.80    4.40
 -12  -2   9    6.80    4.30
 -12   2   9    9.20    4.30
 -12   2   9    8.10    4.00
 -11  -2   9    5.20    4.70
 -11  -2   9    2.80    4.60
 -11   2   9   13.20    4.40
 -11   2   9   12.30    4.10
 -10  -2   9    2.70    3.80
 -10  -2   9   -1.10    3.40
 -10   2   9    6.40    3.40
 -10   2   9    5.20    3.20
  -9  -2   9   22.60    4.70
  -9  -2   9   36.60    6.20
  -9   2   9   30.80    5.00
  -9   2   9   24.10    3.60
  -8  -2   9    8.60    3.20
  -8  -2   9    1.40    2.70
  -8   2   9   -0.60    2.00
  -8   2   9   -0.10    2.10
  -7  -2   9    1.80    2.70
  -7  -2   9    5.20    2.90
  -7   2   9    7.90    4.20
  -7   2   9   10.20    2.50
  -6  -2   9   71.69    5.90
  -6  -2   9   80.49    6.00
   6  -2  -9   55.19    5.50
  -6  -2   9   61.89    6.10
  -6   2   9   66.09    5.60
  -6   2   9   66.79    5.10
  -6   2   9   70.69    5.20
  -5  -2   9   27.00    4.00
  -5  -2   9   45.90    4.60
  -5  -2   9   28.50    4.30
   5   2  -9   35.80    4.10
  -5   2   9   39.60    3.90
  -5   2   9   35.00    3.80
  -4  -2   9   83.39    6.10
  -4  -2   9   80.99    6.10
  -4   2   9   68.29    5.30
  -4   2   9   83.79    5.30
   4   2  -9   80.09    5.50
  -3  -2   9   89.09    6.20
  -3  -2   9   70.29    5.40
  -3   2   9   73.49    4.80
   3   2  -9   86.29    5.40
  -3   2   9   90.89    6.90
  -2  -2   9  136.39    7.70
  -2  -2   9  136.89    8.60
  -2   2   9  143.49    8.10
  -2   2   9  133.29    6.40
  -2   2   9  124.89    6.60
   2   2  -9  139.29    7.30
  -1  -2   9   -0.40    1.40
  -1  -2   9   -0.80    2.10
  -1   2   9    0.80    1.80
   1   2  -9    3.10    1.40
   0  -2   9   86.29    6.50
   0   2  -9   79.99    4.80
   0   2   9   83.59    6.30
   1  -2   9   27.50    4.30
  -1   2  -9   26.90    2.90
   2  -2   9   11.00    3.30
  -2   2  -9   11.70    1.90
   2   2   9   19.00    3.70
  -2   2  -9   10.60    2.30
   3  -2   9  188.68   12.20
   3   2   9  214.48   12.30
  -3   2  -9  203.68   10.90
  -3   2  -9  199.28   10.20
   4  -2   9   16.50    4.70
  -4  -2  -9    8.30    2.90
  -4  -2  -9   14.40    3.40
  -4   2  -9   15.90    3.90
  -4   2  -9   16.20    2.70
   4   2   9    9.20    3.90
   5  -2   9    4.30    3.80
  -5  -2  -9    5.00    2.30
  -5  -2  -9    6.70    3.20
   5   2   9    5.10    4.30
  -5   2  -9    3.80    2.50
  -6  -2  -9   59.39    5.30
  -6  -2  -9   43.50    5.90
   6  -2   9   55.29    7.60
  -6   2  -9   44.00    7.60
   6   2   9   53.49    7.50
  -6   2  -9   46.10    5.70
  -7  -2  -9   39.90    8.90
   7  -2   9   51.09    8.10
  -7  -2  -9   65.09    6.30
   7   2   9   51.79    7.80
  -7   2  -9   49.30    6.40
  -8  -2  -9    2.60    5.20
  -8   2  -9   -4.00    3.90
   8   2   9   10.40    5.90
 -12  -3   9   16.90    5.70
 -12   3   9   14.50    4.70
 -12   3   9    1.70    4.00
 -11  -3   9   79.69   14.00
 -11  -3   9   63.39    7.80
 -11   3   9   74.59    7.00
 -11   3   9   70.89    8.00
 -10  -3   9   48.50    6.60
 -10  -3   9   47.60    7.20
 -10   3   9   39.00    4.90
 -10   3   9   40.30    5.90
  -9  -3   9   10.30    4.00
  -9  -3   9    7.00    3.40
  -9   3   9    5.60    2.80
  -9   3   9   11.20    3.90
  -8  -3   9   45.00    5.40
  -8  -3   9   40.30    6.60
  -8   3   9   35.80    4.20
  -8   3   9   38.20    5.50
  -7  -3   9  131.39    8.90
  -7  -3   9  126.79    9.30
  -7   3   9  133.79    7.60
  -6  -3   9   85.19    6.60
  -6  -3   9   77.39    6.80
  -6  -3   9   82.69    7.20
  -6   3   9   85.19    5.80
  -6   3   9   89.19    5.70
  -6   3   9   89.69    6.50
  -5  -3   9  242.18   13.20
  -5  -3   9  227.18   12.60
  -5   3   9  231.88   12.20
  -5   3   9  234.88   11.80
   5   3  -9  227.78   12.60
  -4  -3   9  172.68    9.90
  -4  -3   9  172.28   10.00
  -4   3   9  166.98    9.40
  -4   3   9  161.78    8.90
   4   3  -9  151.68   10.00
  -4   3   9  164.38    9.00
  -3  -3   9  361.06   18.20
  -3  -3   9  368.36   17.90
  -3   3   9  382.26   17.90
  -3   3   9  340.77   17.00
  -3   3   9  356.26   16.70
   3   3  -9  352.26   17.30
  -2  -3   9   18.40    3.10
  -2  -3   9   16.10    2.80
  -2   3   9   16.70    1.60
  -2   3   9   13.30    1.70
   2   3  -9   22.60    2.80
  -1  -3   9  199.08   10.60
  -1  -3   9  192.28   11.40
   1   3  -9  199.18   10.20
  -1   3   9  226.88   13.80
   0  -3   9   45.30    5.00
   0  -3   9   40.10    3.80
   0   3   9   47.70    4.60
   0   3  -9   47.10    3.80
   1  -3   9   30.20    4.60
   1  -3   9   26.20    3.10
  -1   3  -9   25.00    3.20
   1   3   9   28.70    4.20
   2  -3   9    0.10    2.60
  -2   3  -9    2.40    2.30
   2   3   9    1.50    2.80
   3  -3   9    0.70    2.90
  -3   3  -9    2.20    1.80
   3   3   9    0.20    2.80
  -3   3  -9   -2.00    2.60
   4  -3   9    1.80    3.10
  -4  -3  -9    1.40    3.70
  -4  -3  -9    5.10    1.90
  -4   3  -9    8.20    2.60
  -4   3  -9    5.90    3.20
   4   3   9    2.80    3.00
   5  -3   9    2.50    3.70
  -5  -3  -9    2.80    2.20
  -5  -3  -9    0.50    3.30
  -5   3  -9    1.20    2.50
   5   3   9    2.30    4.00
  -5   3  -9   12.30    4.50
  -6  -3  -9    3.10    2.90
   6  -3   9    0.30    4.00
  -6  -3  -9    1.10    4.60
   6   3   9   -2.10    4.20
  -6   3  -9    3.50    3.00
   7  -3   9    1.20    4.60
  -7  -3  -9   -3.80    3.70
  -7  -3  -9  -14.60    8.80
   7   3   9   -1.00    4.60
  -7   3  -9   -6.50    3.30
  -8  -3  -9    2.90    8.70
   8  -3   9   -3.20    6.10
  -8   3  -9    5.30    4.20
   8   3   9   -0.30    5.40
 -12  -4   9   29.60    6.50
 -12   4   9   17.50    5.30
 -12   4   9   10.10    4.60
 -11  -4   9    2.20    6.30
 -11  -4   9   30.60    7.30
 -11   4   9   24.80    5.40
 -11   4   9   17.40    4.10
 -10  -4   9   15.40    6.00
 -10  -4   9    3.90    3.20
 -10   4   9    6.10    4.40
 -10   4   9   12.40    3.00
  -9  -4   9    8.50    3.60
  -9  -4   9    7.80    4.00
  -9   4   9    2.70    3.10
  -8  -4   9   12.00    3.90
  -8  -4   9   19.00    3.80
  -8   4   9   11.30    2.90
  -8   4   9   11.90    3.70
  -7  -4   9    0.60    2.60
  -7  -4   9   -0.80    2.70
  -7  -4   9    2.30    2.70
  -7   4   9    4.40    2.00
  -7   4   9    1.30    3.10
  -6  -4   9   14.40    3.20
  -6  -4   9    4.60    2.80
  -6   4   9    5.80    2.50
  -6   4   9    4.90    1.90
  -6   4   9    7.60    3.10
  -6   4   9    4.90    2.00
  -5  -4   9    8.40    2.80
  -5  -4   9    4.50    2.30
  -5   4   9    3.20    2.70
   5   4  -9    0.30    2.60
  -5   4   9    6.20    2.30
  -5   4   9    6.20    1.80
  -4  -4   9   58.39    5.60
  -4  -4   9   57.09    5.60
  -4   4   9   69.39    4.70
   4   4  -9   57.19    5.10
  -4   4   9   59.29    4.40
  -4   4   9   54.99    5.10
  -3  -4   9    7.80    2.50
  -3  -4   9   12.70    3.10
  -3   4   9    6.40    1.70
  -3   4   9    8.60    2.20
   3   4  -9    6.80    2.30
  -3   4   9    5.40    2.10
  -2  -4   9   40.40    4.30
  -2  -4   9   37.60    4.30
   2   4  -9   40.40    3.90
  -2   4   9   40.30    3.80
  -2   4   9   40.10    2.70
  -2   4   9   35.60    2.90
  -1  -4   9   22.30    3.50
  -1  -4   9   24.60    4.30
   1   4  -9   28.50    3.20
  -1   4   9   25.30    3.60
   0  -4   9   83.29    6.40
   0   4   9   81.59    6.00
   0   4  -9   72.89    5.50
   1  -4   9   10.70    2.60
   1  -4   9   11.90    3.30
   1   4   9   14.50    3.50
  -1   4  -9   12.70    3.10
   2  -4   9   67.39    6.20
   2   4   9   62.49    5.90
  -2   4  -9   49.80    5.30
   3  -4   9   13.20    3.70
  -3   4  -9   16.50    2.90
  -3   4  -9   12.50    3.60
   3   4   9   11.00    3.60
  -4  -4  -9   41.60    4.60
  -4  -4  -9   33.80    3.30
   4  -4   9   36.00    5.90
  -4   4  -9   53.59    4.90
  -4   4  -9   34.30    5.10
   4   4   9   51.39    6.40
  -5  -4  -9    4.30    2.50
   5  -4   9    4.50    3.60
  -5  -4  -9    3.40    3.30
   5   4   9    0.70    3.90
  -5   4  -9   -0.80    2.70
  -6  -4  -9  105.39    8.80
  -6  -4  -9  115.19    7.50
   6  -4   9  106.79    9.70
  -6   4  -9  106.69    9.10
   6   4   9  115.79    9.90
   7  -4   9    3.50    5.50
  -7  -4  -9    8.70    4.00
   7   4   9   -0.80    4.80
  -7   4  -9   10.60    4.20
 -12  -5   9   -1.60    4.40
 -12   5   9   -0.10    4.20
 -12   5   9   14.80    4.80
 -11  -5   9   62.59    9.50
 -11  -5   9   72.09   10.10
 -11   5   9   59.99    6.40
 -10  -5   9   -3.30    3.50
 -10  -5   9   -2.20    4.40
 -10   5   9   -0.70    2.90
 -10   5   9    3.60    4.10
  -9  -5   9   81.49    8.20
  -9  -5   9   62.99    8.90
  -9   5   9   64.59    7.00
  -9   5   9   64.29    5.50
  -8  -5   9   90.29    8.20
  -8  -5   9   88.79    8.60
  -8   5   9   90.79    6.00
  -8   5   9   99.89    7.90
  -7  -5   9   73.89    7.10
  -7  -5   9   69.99    6.70
  -7  -5   9   78.89    6.90
  -7   5   9   80.89    6.60
  -7   5   9   66.59    5.00
  -6  -5   9   10.10    3.70
  -6  -5   9   18.00    3.90
  -6  -5   9   15.80    3.50
  -6   5   9   15.60    3.20
  -6   5   9   14.60    2.30
  -6   5   9    7.10    2.10
  -5  -5   9   16.50    3.50
  -5  -5   9   24.60    5.30
  -5  -5   9   26.60    4.80
  -5   5   9   25.20    3.30
  -5   5   9   21.60    4.10
  -5   5   9   32.10    3.00
  -4  -5   9   -0.80    2.40
  -4  -5   9    2.10    2.40
  -4  -5   9    1.00    1.90
  -4   5   9    2.40    1.70
  -4   5   9    0.80    1.90
  -4   5   9    1.10    2.20
   4   5  -9   -0.60    2.10
  -3  -5   9  110.79    7.90
  -3  -5   9  116.69    8.20
  -3   5   9  104.79    6.60
   3   5  -9  115.39    7.40
  -3   5   9  111.29    6.30
  -3   5   9  111.49    6.60
  -2  -5   9  132.39    8.60
  -2  -5   9  135.09    8.50
  -2   5   9  131.39    7.50
  -2   5   9  118.79    6.50
   2   5  -9  129.79    8.00
  -1  -5   9   51.49    5.20
  -1  -5   9   53.49    5.10
  -1   5   9   48.60    4.70
   1   5  -9   54.59    4.70
   0  -5   9    2.40    2.70
   0  -5   9    7.40    2.40
   0   5  -9   -0.20    2.20
   0   5  -9    0.40    3.10
   0   5   9    3.80    2.40
   1  -5   9   43.50    4.80
   1  -5   9   35.90    5.10
  -1   5  -9   47.90    4.90
  -1   5  -9   31.90    7.40
   1   5   9   44.70    5.00
   2  -5   9   14.00    3.80
   2  -5   9   10.20    2.90
   2   5   9   11.10    3.50
  -2   5  -9   12.00    3.40
   3  -5   9   10.40    3.40
   3   5   9    6.50    3.20
  -3   5  -9    8.40    3.80
  -4  -5  -9    8.50    2.20
  -4  -5  -9    8.70    3.80
   4  -5   9    3.20    3.10
   4   5   9    2.30    3.80
  -4   5  -9    7.20    2.80
  -4   5  -9    3.00    4.10
  -5  -5  -9    4.40    3.30
  -5  -5  -9    4.70    2.70
   5  -5   9    4.40    3.60
  -5   5  -9    0.40    2.50
   5   5   9    4.70    3.90
  -6  -5  -9   -0.50    3.20
  -6  -5  -9   -0.50    4.20
   6  -5   9   -2.40    4.30
  -6   5  -9    7.30    3.40
   6   5   9   -0.70    4.00
  -7  -5  -9    3.50    4.20
   7  -5   9   -2.00    5.40
   7   5   9    6.00    4.80
  -7   5  -9   -2.60    3.60
 -11  -6   9    5.00    5.20
 -11   6   9    0.50    3.30
 -11   6   9   -3.80    3.20
 -10  -6   9    0.60    4.80
 -10  -6   9    8.70    5.00
 -10   6   9    5.10    3.60
 -10   6   9    5.90    2.70
  -9  -6   9   16.50    4.60
  -9  -6   9   14.00    4.90
  -9   6   9   16.30    3.00
  -9   6   9   15.00    3.90
  -8  -6   9   23.10    5.30
  -8  -6   9   28.40    6.00
  -8   6   9   20.80    4.10
  -8   6   9   20.00    2.90
  -7  -6   9    5.40    3.00
  -7  -6   9    3.90    3.20
  -7  -6   9    4.60    3.20
  -7   6   9    9.40    2.10
  -7   6   9   11.70    3.20
  -6  -6   9   17.10    4.10
  -6  -6   9   17.30    3.90
  -6  -6   9   28.60    4.50
  -6   6   9   19.60    2.40
  -6   6   9   16.80    2.10
  -6   6   9   24.70    3.70
  -5  -6   9    1.50    2.80
  -5  -6   9    1.80    2.70
  -5  -6   9    2.00    3.60
  -5   6   9    0.50    1.80
  -5   6   9    8.40    2.70
  -5   6   9    1.30    1.40
  -4  -6   9   -0.50    2.30
  -4  -6   9    3.00    2.40
  -4  -6   9    1.60    2.60
  -4   6   9    0.00    2.40
  -4   6   9    2.20    1.80
  -4   6   9    1.30    1.60
  -3  -6   9   10.80    3.10
  -3  -6   9   10.10    3.30
  -3  -6   9   15.70    3.40
  -3   6   9   12.30    2.50
  -3   6   9    8.70    2.40
   3   6  -9   14.10    3.20
  -3   6   9   13.90    2.10
  -2  -6   9   59.49    5.80
  -2  -6   9   57.69    5.70
   2   6  -9   66.59    5.40
  -2   6   9   52.59    4.20
  -2   6   9   63.59    4.90
  -2   6   9   65.29    3.90
  -1  -6   9   47.50    5.20
  -1  -6   9   34.00    4.80
   1   6  -9   40.50    4.60
  -1   6   9   46.20    4.40
  -1   6   9   39.30    2.60
  -1   6   9   42.10    2.70
   0  -6   9   98.19    7.50
   0  -6   9  100.19    7.50
   0   6  -9   95.99    7.10
   0   6  -9   90.39    7.60
   0   6   9   94.49    6.70
   1  -6   9    8.60    2.90
   1  -6   9    3.40    2.50
  -1   6  -9    7.40    3.10
   1   6   9    7.80    2.70
  -1   6  -9    2.50    2.60
   2  -6   9   21.10    3.90
   2  -6   9   18.50    3.90
   2   6   9   18.10    3.70
  -2   6  -9   18.10    4.10
   3  -6   9  109.19    8.50
  -3   6  -9  114.79    9.20
   3   6   9   99.39    8.30
   4  -6   9   30.20    5.20
  -4  -6  -9   31.10    4.10
  -4   6  -9   38.70    5.10
   4   6   9   23.70    5.20
  -5  -6  -9    6.30    2.80
   5  -6   9   12.90    4.30
  -5   6  -9   13.30    3.90
   5   6   9    7.50    4.40
   6  -6   9   41.70    6.60
  -6  -6  -9   48.30    5.90
   6   6   9   44.10    6.80
  -6   6  -9   57.69    6.80
   7  -6   9   26.00    7.20
  -7  -6  -9   29.80    5.50
  -7   6  -9   29.00    5.30
   7   6   9   31.30    6.70
 -11  -7   9   15.20    6.10
 -11   7   9    9.60    3.70
 -11   7   9    7.30    4.10
 -10  -7   9   63.39    8.10
 -10   7   9   55.19    5.30
 -10   7   9   62.39    8.20
  -9  -7   9   20.50    5.40
  -9  -7   9   16.90    5.20
  -9   7   9   20.10    4.80
  -8  -7   9   88.99    8.80
  -8  -7   9   93.29    8.40
  -8  -7   9   76.09    7.70
  -8   7   9   73.19    7.00
  -7  -7   9   15.80    4.00
  -7  -7   9   23.00    5.00
  -7  -7   9   29.60    5.20
  -7   7   9   21.70    2.60
  -7   7   9   18.80    2.40
  -7   7   9   18.70    3.80
  -6  -7   9    2.40    3.00
  -6  -7   9    5.80    2.90
  -6  -7   9   -4.70    2.70
  -6   7   9    2.90    1.50
  -6   7   9    4.00    1.30
  -6   7   9    2.20    2.40
  -5  -7   9    3.70    3.30
  -5  -7   9    0.50    2.80
  -5  -7   9    0.50    2.90
  -5   7   9    1.10    2.10
  -5   7   9    2.30    2.40
  -5   7   9   -0.50    1.40
  -4  -7   9   99.99    8.10
  -4  -7   9  101.09    7.50
  -4   7   9  111.39    6.60
  -4   7   9   91.99    7.30
  -4   7   9  112.29    6.00
  -3  -7   9   32.40    5.20
  -3  -7   9   29.80    4.90
  -3  -7   9   31.20    4.50
  -3   7   9   34.70    3.40
  -3   7   9   29.90    4.20
  -3   7   9   35.00    3.60
  -2  -7   9   26.20    4.10
  -2  -7   9   29.90    5.10
   2   7  -9   30.20    4.80
  -2   7   9   23.90    2.90
  -2   7   9   32.00    3.40
  -2   7   9   30.20    3.70
  -1  -7   9   10.80    3.40
  -1  -7   9    9.50    2.90
  -1   7   9   13.00    2.20
  -1   7   9   12.50    2.90
   1   7  -9   13.70    3.70
  -1   7   9   17.40    3.00
   0  -7   9   55.39    6.00
   0  -7   9   69.39    6.50
   0   7   9   63.29    5.80
   0   7  -9   58.19    5.90
   0   7   9   64.19    3.60
   0   7  -9   70.69    6.60
   1  -7   9   16.10    3.90
   1  -7   9   22.90    4.60
  -1   7  -9   26.60    4.40
   1   7   9   28.50    4.20
   1   7   9   23.70    1.80
  -1   7  -9   20.60    3.70
  -2  -7  -9   -0.30    1.20
   2  -7   9    2.70    2.90
   2  -7   9   -1.20    2.60
   2   7   9   -2.20    1.00
  -2   7  -9   -0.20    3.50
   2   7   9    5.40    3.10
  -3  -7  -9    4.80    2.00
   3  -7   9    2.30    3.20
   3  -7   9    6.80    3.80
   3   7   9    2.70    2.40
   3   7   9    4.30    3.30
  -4  -7  -9    0.40    2.20
   4  -7   9    7.20    3.70
   4   7   9   -5.60    3.20
   5  -7   9    2.40    3.80
  -5  -7  -9    0.30    2.60
  -5   7  -9   -1.60    3.30
   5   7   9   -2.10    3.50
  -6  -7  -9    1.60    3.90
   6  -7   9    1.60    4.30
  -6   7  -9    5.40    3.80
   6   7   9    4.30    5.00
  -7  -7  -9   -4.10    4.80
   7  -7   9   -6.00    5.30
  -7   7  -9   -0.60    3.60
   7   7   9   -2.10    5.00
 -11  -8   9   21.20    6.50
 -11   8   9   18.30    4.10
 -11   8   9   17.30    5.40
 -10  -8   9    4.10    5.30
 -10   8   9   -2.80    2.60
 -10   8   9   -6.40    3.40
  -9  -8   9   24.90    9.80
  -9  -8   9   14.30    4.90
  -9   8   9    9.50    2.20
  -9   8   9   11.70    3.60
  -8  -8   9    9.30    3.90
  -8  -8   9    0.10    4.60
  -8  -8   9    8.20    4.10
  -8   8   9    7.10    2.10
  -8   8   9    8.80    3.70
  -7  -8   9   10.80    4.40
  -7  -8   9    8.10    3.70
  -7  -8   9    9.70    3.70
  -7   8   9    9.10    2.90
  -6  -8   9    1.70    3.50
  -6  -8   9    5.10    3.50
  -6  -8   9   -0.60    2.80
  -6   8   9    2.90    2.50
  -5  -8   9   11.70    3.60
  -5  -8   9   11.40    4.20
  -5  -8   9   12.10    3.40
  -5   8   9    5.20    2.60
  -5   8   9   13.60    1.90
  -4  -8   9    1.30    2.60
  -4  -8   9   -2.50    2.50
  -4  -8   9   -0.10    2.50
  -4   8   9    0.60    1.90
  -4   8   9   -0.30    2.00
  -4   8   9    3.40    2.90
  -3  -8   9    7.90    3.70
  -3  -8   9    6.80    4.90
  -3  -8   9    4.80    2.90
  -3   8   9    7.90    2.70
  -3   8   9    8.80    2.20
  -3   8   9    5.20    2.30
  -2  -8   9  101.79    9.40
  -2  -8   9   95.49    7.30
  -2  -8   9  108.19    7.90
  -2   8   9  113.79    6.70
  -2   8   9  100.19    6.60
  -2   8   9  112.39    6.40
  -1  -8   9  181.08   11.80
  -1  -8   9  196.58   11.80
  -1   8   9  196.48   10.30
  -1   8   9  167.58    9.50
   0  -8   9    2.90    3.50
   0  -8   9    1.80    3.10
   0   8   9    1.00    2.50
   0   8  -9    4.00    2.70
   0   8   9    4.90    1.50
  -1  -8  -9   41.20    4.20
   1  -8   9   47.70    5.60
   1  -8   9   41.10    6.20
  -1   8  -9   34.50    5.20
   1   8   9   43.50    5.50
   1   8   9   39.70    3.20
   2  -8   9   36.70    5.60
   2  -8   9   25.50    5.30
  -2  -8  -9   28.70    4.50
  -2   8  -9   30.20    5.10
   2   8   9   33.30    3.10
   2   8   9   37.30    5.10
   3  -8   9   80.39    7.50
   3  -8   9   79.79    7.40
  -3  -8  -9   70.99    5.30
   3   8   9   66.29    4.70
   3   8   9   74.99    6.90
  -4  -8  -9    2.80    3.00
   4  -8   9    4.80    3.60
   4   8   9    5.10    2.70
   4   8   9    4.10    4.20
   5  -8   9   23.40    5.00
  -5  -8  -9   18.20    3.80
  -5   8  -9   31.50    5.40
   5   8   9   21.20    3.60
   5   8   9   28.60    6.00
  -6  -8  -9    3.80    4.20
   6  -8   9   -3.60    4.30
   6   8   9    1.90    4.70
  -6   8  -9    1.80    3.80
 -10  -9   9   45.60    7.70
 -10   9   9   48.60    4.70
 -10   9   9   46.60   10.70
  -9  -9   9    4.30    3.90
  -9  -9   9    6.80    4.70
  -9  -9   9   14.30    6.20
  -9   9   9    8.00    4.00
  -9   9   9    6.00    2.40
  -8  -9   9   55.39    7.60
  -8  -9   9   65.79    8.90
  -8  -9   9   80.89    8.00
  -8   9   9   72.29    7.10
  -7  -9   9    4.30    3.80
  -7  -9   9    1.20    3.70
  -7  -9   9   -0.60    3.60
  -7   9   9    4.20    2.80
  -6  -9   9  114.39    9.60
  -6  -9   9  134.19   10.30
  -6  -9   9  137.29   10.70
  -6   9   9  141.99    9.20
  -5  -9   9   34.40    6.20
  -5  -9   9   38.20    6.00
  -5  -9   9   21.70    4.10
  -5   9   9   34.40    4.60
  -4  -9   9  142.79   10.40
  -4  -9   9  110.19    8.50
  -4  -9   9  140.09    9.60
  -4   9   9  119.19    8.00
  -4   9   9  129.89    6.60
  -4   9   9  117.79    8.70
  -3  -9   9    0.30    2.90
  -3  -9   9    3.40    2.40
  -3  -9   9    2.80    3.50
  -3   9   9    2.50    1.60
  -3   9   9   -1.10    1.90
  -2  -9   9   24.70    4.50
  -2  -9   9   30.00    5.70
  -2   9   9   28.80    3.60
  -1  -9   9   -0.90    2.60
  -1  -9   9    3.90    2.70
  -1   9   9    0.10    2.60
  -1   9   9   -0.90    1.80
   0  -9   9    9.20    3.80
   0  -9  -9   13.80    2.70
   0  -9   9    7.90    3.70
   0   9   9    6.40    2.10
   0   9   9    8.90    2.60
   0   9  -9   10.40    3.80
  -1  -9  -9   10.70    2.50
   1  -9   9   13.70    3.50
   1  -9   9   13.80    4.30
  -1   9  -9    4.10    3.60
   1   9   9   10.30    3.40
   1   9   9    9.90    2.50
   2  -9   9    3.80    2.70
   2  -9   9    2.40    3.50
  -2  -9  -9    0.20    2.20
  -2   9  -9    4.10    3.80
   2   9   9    0.20    1.90
   2   9   9    4.60    3.30
   3  -9   9    3.10    3.00
   3  -9   9    2.60    3.10
  -3  -9  -9   -0.90    2.40
   3   9   9   -1.90    2.20
   3   9   9    3.30    3.30
  -4  -9  -9   -1.80    2.50
   4  -9   9   -2.80    3.00
   4   9   9    3.30    4.10
   4   9   9    1.10    2.40
   5  -9   9    0.30    3.90
  -5  -9  -9   -8.90    3.50
   5   9   9    3.00    3.90
  -6  -9  -9   -2.20    4.20
   6  -9   9    0.10    4.80
   6   9   9   -3.40    6.60
  -6   9  -9   -2.50    4.00
 -10 -10   9   19.60    6.60
 -10  10   9   14.90    5.00
 -10  10   9   11.10    2.90
  -9 -10   9   16.20    6.40
  -9 -10   9    6.70    4.70
  -9  10   9   13.30    4.70
  -8 -10   9    0.60    4.70
  -8 -10   9    6.50    5.00
  -8  10   9    3.80    3.50
  -7 -10   9   -0.70    3.60
  -7 -10   9    0.70    3.90
  -7  10   9   -1.70    2.50
  -6 -10   9    9.00    3.80
  -6 -10   9   10.10    5.30
  -6  10   9   11.10    3.40
  -5 -10   9   13.00    4.50
  -5 -10   9   17.90    4.70
  -5  10   9   18.00    3.90
  -4 -10   9    8.40    3.80
  -4 -10   9    6.30    3.00
  -4  10   9   11.00    3.20
  -4  10   9   12.00    2.00
  -3 -10   9   99.19    8.30
  -3 -10   9  105.09    9.20
  -3  10   9  103.79    6.10
  -3  10   9   90.59    7.10
  -2 -10   9   61.69    7.40
  -2 -10   9   52.79    6.20
  -2  10   9   58.19    4.90
  -1 -10   9   74.69    7.00
  -1 -10   9   75.39    8.00
  -1  10   9   67.99    5.70
   0 -10   9   56.69    6.90
   0 -10   9   63.59    6.50
   0 -10  -9   74.39    5.80
   0  10   9   64.59    5.20
   0  10   9   60.19    5.60
   0  10  -9   63.49    8.10
   1 -10   9   42.40    6.40
  -1 -10  -9   48.10    4.80
   1 -10   9   37.80    5.20
   1  10   9   36.90    5.20
   1  10   9   33.30    4.00
  -1  10  -9   37.90    5.70
   2 -10   9   16.20    3.60
  -2 -10  -9   16.90    3.30
   2 -10   9   14.50    4.40
   2  10   9   21.30    4.40
   2  10   9   16.00    3.00
  -2  10  -9   13.20    4.60
   3 -10   9    6.00    4.20
  -3 -10  -9   12.00    3.20
   3 -10   9   14.60    3.70
  -3  10  -9   13.10    7.80
   3  10   9    9.20    2.70
   3  10   9   12.80    4.10
  -4 -10  -9    8.60    3.70
   4 -10   9    6.00    4.00
   4  10   9    7.90    4.00
   4  10   9    3.10    3.10
   5 -10   9    7.50    5.00
  -5 -10  -9    7.90    4.40
   6 -10   9   -7.90    5.50
  -6 -10  -9    6.60    4.90
  -6  10  -9   -4.70    3.50
  -9 -11   9   41.50    6.70
  -9 -11   9   38.80    7.40
  -9  11   9   58.29   13.40
  -8 -11   9   -0.80    5.00
  -8 -11   9   -0.40    4.30
  -8  11   9    4.80    3.30
  -7 -11   9   53.39    8.30
  -7 -11   9   40.90    7.30
  -7  11   9   57.89    7.30
  -6 -11   9   24.90    5.50
  -6 -11   9   36.10    7.50
  -6  11   9   37.00    5.30
  -5 -11   9  128.69   11.00
  -5 -11   9  121.89   10.00
  -5  11   9  118.49    8.80
  -4 -11   9   37.30    6.20
  -4 -11   9   49.10    7.70
  -4  11   9   33.70    2.90
  -4  11   9   49.70    5.40
  -3 -11   9   29.00    5.80
  -3 -11   9   20.50    4.20
  -3  11   9   19.00    2.80
  -2 -11   9  145.99   10.40
  -2 -11   9  160.18   11.90
  -2  11   9  136.59    8.20
  -2  11   9  141.09    9.40
  -1 -11   9   10.50    3.60
  -1 -11   9   14.90    4.40
   1 -11  -9   16.60    3.90
  -1  11   9    9.00    2.70
  -1  11   9   16.30    3.50
   0 -11   9    6.70    3.30
   0 -11   9   20.70    5.10
   0 -11  -9   14.80    3.60
   0  11   9   20.30    4.40
   0  11   9   14.40    3.50
   1 -11   9   34.10    6.30
   1 -11   9   36.60    5.60
  -1 -11  -9   46.20    5.50
   1  11   9   33.10    5.30
   1  11   9   38.90    4.70
  -1  11  -9   39.40    6.80
  -2 -11  -9    4.40    3.30
   2 -11   9    8.70    3.60
   2 -11   9    4.80    4.30
  -2  11  -9    6.90    4.40
   2  11   9    8.40    4.00
   2  11   9   -1.90    2.80
   3 -11   9   -1.80    3.10
  -3 -11  -9   -4.30    3.00
   3 -11   9    1.60    3.30
  -3  11  -9    0.10    7.30
   3  11   9    4.10    3.80
   4 -11   9   -7.20    3.70
   4 -11   9   -2.30    3.80
  -4 -11  -9    2.70    3.80
   4  11   9   -2.10    4.70
  -5 -11  -9   -2.20    4.50
   5 -11   9   -8.70    4.30
   5  11   9    4.60    5.00
  -9 -12   9    2.10    5.10
  -9 -12   9    9.40    5.50
  -9  12   9    2.70    4.20
  -8 -12   9    3.10    4.40
  -8 -12   9   -4.50    4.70
  -8  12   9    8.30    4.30
  -7 -12   9   -2.00    4.00
  -7  12   9    6.90    3.60
  -6 -12   9    3.60    4.60
  -6 -12   9    8.60    4.80
  -6  12   9    8.10    3.70
  -5 -12   9    0.00    3.20
  -5 -12   9    2.00    3.90
  -5  12   9    2.90    3.00
  -4 -12   9   32.30    6.30
  -4 -12   9   30.20    5.10
  -4  12   9   29.30    2.80
  -3 -12   9   -2.70    2.70
  -3 -12   9   -0.40    3.20
  -3  12   9   -0.20    2.00
  -2 -12   9   20.50    4.40
  -2 -12   9   33.20    6.50
  -2  12   9   31.10    3.90
  -1 -12   9    5.40    3.50
   1 -12  -9    3.60    3.10
  -1 -12   9    1.40    2.70
  -1  12   9    2.60    2.40
  -1  12   9    9.00    3.80
   0 -12   9   33.00    6.70
   0 -12   9   31.30    5.00
   0 -12  -9   33.90    5.10
   0  12   9   31.10    4.90
   0  12   9   35.00    4.60
   1 -12   9   -1.40    3.30
  -1 -12  -9    3.20    3.30
   1 -12   9    6.90    3.30
   1  12   9    1.20    2.90
   1  12   9    0.70    3.40
  -1  12  -9    8.00    5.60
   2 -12   9   70.39    7.30
   2 -12   9   58.89    8.20
  -2 -12  -9   76.09    6.90
  -2  12  -9   68.69    9.50
   2  12   9   53.09    6.10
   3 -12   9    0.90    4.30
   3 -12   9   -1.50    3.60
  -3 -12  -9    5.90    3.80
   3  12   9    4.30    4.10
   4 -12   9   -3.60    4.30
   4 -12   9   -2.40    4.30
  -4 -12  -9   15.30    5.00
   4  12   9   10.80    5.00
  -8 -13   9    9.90    5.70
  -8 -13   9    8.10    5.80
  -7 -13   9   47.30    8.80
  -7 -13   9   39.40    7.40
  -7  13   9   49.00    6.90
  -6 -13   9  -12.40    8.60
  -6 -13   9   -1.20    7.20
  -6  13   9    4.20    3.70
  -5 -13   9   28.80    6.60
  -5 -13   9   21.30    5.60
  -5  13   9   24.00    4.90
  -4 -13   9   21.50    6.40
  -4 -13   9   13.00    4.30
  -4  13   9   10.90    1.90
  -3 -13   9   96.09    8.70
  -3 -13   9  126.89   11.00
  -3  13   9   97.29    6.20
   2 -13  -9   15.90    4.90
  -2 -13   9   11.90    5.30
  -2 -13   9    9.00    4.00
  -2  13   9   14.10    3.00
  -1 -13   9   26.10    4.60
   1 -13  -9   48.70    6.40
  -1 -13   9   39.30    6.50
  -1  13   9   25.20    4.00
   0 -13   9   -5.60    3.00
   0 -13   9    7.30    3.60
   0 -13  -9   -3.90    3.30
   1 -13   9   16.00    5.40
   1 -13   9   10.00    4.20
  -1 -13  -9   22.20    4.80
   1  13   9   14.70    4.30
  -2 -13  -9   11.50    4.30
   2 -13   9    2.20    4.10
   2 -13   9    1.20    4.70
   2  13   9    3.80    3.30
   3 -13   9   30.90    6.40
  -3 -13  -9   27.70    5.40
   3 -13   9   28.40    5.60
   3  13   9   29.50    5.80
  -4 -13  -9    4.80    9.60
   4 -13   9    0.90    5.40
   4 -13   9   -4.10    6.10
   4  13   9   -0.60    3.90
  -7 -14   9    6.90    5.30
  -7 -14   9   12.20    6.40
  -7  14   9    2.50    4.60
  -6 -14   9    4.30    4.90
  -6  14   9    2.70    3.70
  -5 -14   9    6.10    4.20
  -5 -14   9    6.30    4.40
  -5  14   9    1.00    3.80
  -4 -14   9   16.40    5.20
  -4 -14   9   23.60   10.00
  -3 -14   9   17.90    4.70
  -3 -14   9   25.00    6.00
   2 -14  -9   10.10    4.30
  -2 -14   9    7.30    4.50
  -2 -14   9   10.40    3.90
  -2  14   9    3.20    3.00
  -1 -14   9    7.80    4.80
   1 -14  -9   18.90    4.90
  -1 -14   9   18.80    4.40
  -1  14   9   17.60    3.70
   0 -14   9   26.40    6.30
   0 -14   9   24.40    5.10
   0 -14  -9   25.10    5.10
   0  14   9   16.40    4.00
   1 -14   9    3.60    4.40
  -1 -14  -9   -5.10    4.20
   1 -14   9    1.90    4.70
   1  14   9    3.80    3.60
   2 -14   9   12.40    4.70
  -2 -14  -9   23.60    5.30
   2  14   9   15.80    4.40
   3 -14   9   12.40    5.70
  -3 -14  -9   15.00    5.30
   3 -14   9   17.30    5.80
   3  14   9   15.30    4.90
  -6 -15   9   60.29    9.00
  -6 -15   9   34.50    8.30
  -6  15   9   48.80    7.10
  -5 -15   9   19.00    5.70
  -5 -15   9   24.10    6.80
  -4 -15   9    4.80    4.50
  -4 -15   9   13.50    5.80
  -3 -15   9   26.00    6.80
  -3 -15   9   18.60    5.10
  -3  15   9   19.30    3.10
   2 -15  -9   73.59    8.20
  -2 -15   9   54.69    8.70
  -2 -15   9   43.50    7.00
  -2  15   9   56.19    5.20
  -1 -15   9   -2.40    3.20
   1 -15  -9    1.10    4.30
  -1 -15   9    0.60    4.10
  -1  15   9   -0.50    2.90
   0 -15   9    3.50    3.80
   0 -15   9    1.80    4.40
   0 -15  -9    8.70    5.00
   0  15   9    3.30    3.40
   1 -15   9    5.50    4.50
  -1 -15  -9    3.10    4.90
   1 -15   9   -2.80    4.60
   1  15   9    2.80    3.40
  -3 -16   9    2.30    4.20
  -3 -16   9   -1.40    3.90
  -3  16   9    0.20    2.00
  -2 -16   9    7.20    4.60
   2 -16  -9   -8.70    4.10
  -2 -16   9   -5.50    3.40
  -2  16   9    7.90    2.90
  -1 -16   9   37.00    7.70
  -1 -16   9   11.90    5.50
   1 -16  -9   19.50    5.60
  -1  16   9   11.10    3.70
 -12   0  10   10.50    5.20
 -12   0  10   30.70    5.10
 -11   0  10   -5.00    3.60
 -11   0  10   -0.10    3.80
 -10   0  10   38.80    5.90
 -10   0  10   36.20    4.80
  -9   0  10   -0.10    3.40
  -9   0  10   -6.10    3.00
  -8   0  10    2.40    2.90
  -8   0  10    6.50    3.80
  -7   0  10    1.50    2.30
  -7   0  10    2.30    3.00
  -7   0  10    0.20    2.20
  -6   0  10   58.49    5.50
  -6   0  10   68.79    5.50
   6   0 -10   63.09    5.60
  -6   0  10   63.19    5.80
   5   0 -10   -1.90    2.10
  -5   0  10    0.80    1.90
  -5   0  10   -0.20    2.00
   4   0 -10   73.89    5.10
  -4   0  10   79.89    6.10
  -4   0  10   77.69    5.50
   3   0 -10    0.50    1.40
  -3   0  10    0.70    1.40
  -3   0  10    2.90    2.50
  -2   0  10  121.29    6.60
   2   0 -10  134.59    6.50
  -2   0  10  138.09    8.50
  -1   0  10    2.70    1.90
   0   0  10  148.39    9.70
   1   0  10    0.30    2.80
   2   0  10  103.79    8.20
   3   0  10   -0.80    3.20
  -4   0 -10   50.29    5.20
  -4   0 -10   41.40    4.30
   4   0  10   41.20    6.10
  -5   0 -10   -1.50    2.20
   5   0  10    8.30    4.30
  -5   0 -10   -2.90    3.60
  -6   0 -10  100.39   10.40
   6   0  10  100.89   10.00
  -6   0 -10  113.49    7.60
  -7   0 -10   -0.80    3.80
   7   0  10   -2.70    5.50
 -12  -1  10    4.30    4.90
 -12   1  10   19.60    5.90
 -12   1  10   23.70    5.20
 -11  -1  10   54.69    8.40
 -11  -1  10   48.80    6.10
 -11   1  10   48.00    6.00
 -11   1  10   47.10    6.70
 -10  -1  10    6.90    3.40
 -10  -1  10   -4.90    3.50
 -10   1  10    6.00    3.10
 -10   1  10   -0.30    3.30
  -9  -1  10  103.69    8.90
  -9  -1  10  118.29    8.10
  -9   1  10   79.79    7.20
  -9   1  10  102.69    8.60
  -8  -1  10   -2.80    2.50
  -8  -1  10    5.40    3.10
  -8   1  10   -0.60    2.50
  -8   1  10    2.10    3.10
  -7  -1  10    7.40    3.40
  -7  -1  10    3.30    2.70
  -7  -1  10   -1.00    2.20
  -7   1  10    4.80    2.30
  -7   1  10    0.50    2.30
  -6  -1  10    0.50    2.40
  -6  -1  10    1.10    2.20
   6  -1 -10   -1.10    2.40
  -6  -1  10    0.10    2.40
  -6   1  10   -1.10    2.00
  -6   1  10   -2.90    2.40
  -6   1  10   -0.60    2.20
   5  -1 -10  247.88   13.10
  -5  -1  10  242.18   13.30
  -5  -1  10  260.27   13.80
  -5  -1  10  271.77   13.90
   5   1 -10  241.78   13.40
  -5   1  10  266.37   13.50
  -5   1  10  261.47   13.50
  -4  -1  10   19.10    3.30
   4  -1 -10   21.40    2.80
  -4  -1  10   25.40    3.70
   4   1 -10   18.50    3.10
  -4   1  10   23.50    3.50
  -4   1  10   17.20    2.80
  -3  -1  10  230.68   12.60
  -3  -1  10  224.58   11.60
  -3   1  10  221.98   11.10
  -3   1  10  231.78   12.30
   3   1 -10  223.98   11.20
  -2  -1  10   16.90    4.90
  -2  -1  10   14.90    2.50
  -2   1  10   13.90    1.60
  -2   1  10   18.10    1.70
   2   1 -10   19.60    2.30
  -2   1  10   18.10    3.50
  -1  -1  10   67.59    4.00
   1   1 -10   71.79    3.80
  -1   1  10   72.29    6.10
   0  -1  10   34.30    5.90
   0   1  10   26.40    4.30
   1   1  10   93.49    7.40
   2  -1  10    6.20    5.60
  -2   1 -10    4.30    1.00
   2   1  10    1.60    2.90
  -2   1 -10    5.20    1.20
   3  -1  10    4.80    3.10
   3   1  10   -0.10    3.10
  -3   1 -10    8.20    2.70
  -3   1 -10    0.60    1.90
  -4  -1 -10    0.50    1.90
  -4  -1 -10    3.10    1.50
   4  -1  10   -0.90    3.70
  -4   1 -10   -0.90    1.70
  -4   1 -10   -4.50    2.70
   4   1  10    6.80    3.90
  -5  -1 -10    6.50    2.20
   5  -1  10    0.60    3.90
  -5  -1 -10    5.30    3.80
  -5   1 -10    5.90    4.00
  -5   1 -10    5.60    2.60
   5   1  10    1.70    4.20
  -6  -1 -10    1.20    3.10
  -6  -1 -10   11.60    5.50
   6  -1  10    9.00    4.80
   6   1  10   14.30    5.40
  -6   1 -10   11.20    7.10
  -6   1 -10    5.20    3.50
  -7  -1 -10   -3.30    3.90
   7  -1  10   -2.30    5.20
  -7   1 -10    2.50    4.20
   7   1  10   -3.40    5.10
 -12  -2  10   15.70    5.60
 -12   2  10    4.20    4.30
 -12   2  10   18.40    5.20
 -11  -2  10    6.90    4.20
 -11   2  10   10.00    4.40
 -11   2  10    5.00    4.10
 -10  -2  10   47.50    5.80
 -10  -2  10   45.10    7.30
 -10   2  10   41.80    6.60
 -10   2  10   42.50    5.10
  -9  -2  10    0.80    3.40
  -9  -2  10    1.40    3.10
  -9   2  10   -5.30    2.70
  -9   2  10    1.00    3.10
  -8  -2  10    5.20    2.70
  -8  -2  10    6.50    3.90
  -8   2  10    6.20    2.50
  -8   2  10    5.60    3.00
  -7  -2  10   31.60    4.40
  -7  -2  10   48.00    6.80
  -7  -2  10   27.70    4.50
  -7   2  10   34.40    3.90
  -7   2  10   40.60    4.50
  -6  -2  10    2.30    3.00
  -6  -2  10    6.50    3.00
  -6  -2  10    5.00    2.80
  -6   2  10    4.80    2.60
  -6   2  10    0.50    2.00
  -6   2  10    5.50    2.20
  -5  -2  10   41.20    4.70
  -5  -2  10   40.40    4.60
  -5  -2  10   29.40    4.20
  -5   2  10   33.80    3.90
  -5   2  10   37.20    4.10
   5   2 -10   34.40    4.30
  -4  -2  10   16.10    3.10
  -4  -2  10   18.90    3.70
  -4   2  10   16.70    2.60
   4   2 -10   23.90    3.20
  -4   2  10   16.40    2.90
  -3  -2  10   25.80    4.30
  -3  -2  10   33.00    3.70
  -3   2  10   30.10    3.00
  -3   2  10   29.90    3.90
   3   2 -10   30.10    3.50
  -3   2  10   33.00    3.00
  -2  -2  10   37.90    5.70
  -2  -2  10   30.30    3.50
  -2   2  10   43.50    4.40
   2   2 -10   40.80    3.40
  -1  -2  10  159.08    9.90
  -1  -2  10  150.68    8.20
   1   2 -10  152.98    7.80
  -1   2  10  158.58    9.40
   0  -2  10   12.30    2.10
   0  -2  10   20.50    4.10
   0   2  10   15.80    3.40
   0   2 -10   20.80    3.50
   1  -2  10   11.40    3.50
   1   2  10   15.90    3.90
  -1   2 -10   14.70    1.90
   2  -2  10   77.09    7.20
  -2   2 -10   70.29    4.80
   2   2  10   71.69    6.80
   3  -2  10   10.60    4.70
  -3   2 -10   21.30    3.50
  -3   2 -10   13.40    2.30
   3   2  10   15.70    4.30
   4  -2  10   15.00    6.50
  -4   2 -10   16.40    2.70
  -4   2 -10    4.50    3.60
   4   2  10    9.80    4.00
  -5  -2 -10   64.69    5.80
   5  -2  10   84.59    8.00
  -5  -2 -10   49.70    5.50
  -5   2 -10   50.69    5.20
   5   2  10   55.39    7.50
  -5   2 -10   53.59    6.40
  -6  -2 -10   12.70    5.30
  -6  -2 -10   14.80    3.30
   6  -2  10    0.80    4.90
  -6   2 -10    5.80    3.40
   6   2  10    9.70    5.40
  -6   2 -10    8.90    6.80
   7  -2  10    8.50    6.10
  -7  -2 -10    2.40    4.30
   7   2  10    6.20    5.00
 -12  -3  10   28.80    6.00
 -12   3  10   20.80    5.10
 -12   3  10   27.70    7.10
 -11  -3  10   27.50    7.20
 -11  -3  10   24.60    5.70
 -11   3  10   34.00    5.10
 -11   3  10   24.90    5.40
 -10  -3  10   22.80    5.40
 -10  -3  10   41.10    7.00
 -10   3  10   42.60    6.90
 -10   3  10   33.30    4.70
  -9  -3  10    9.10    4.40
  -9  -3  10   20.50    5.20
  -9   3  10   30.20    5.30
  -9   3  10   23.80    3.60
  -8  -3  10  120.99    8.90
  -8  -3  10  128.09    9.80
  -8  -3  10  114.29    8.90
  -8   3  10  124.69    7.80
  -8   3  10  125.19    8.90
  -7  -3  10   70.59    7.00
  -7  -3  10   65.29    6.30
  -7  -3  10   77.39    6.70
  -7   3  10   69.09    5.40
  -7   3  10   71.39    5.90
  -6  -3  10   20.50    3.80
  -6  -3  10   14.40    4.10
  -6  -3  10   17.00    4.10
  -6   3  10   21.00    2.70
  -6   3  10   22.10    3.30
  -6   3  10   21.20    3.60
  -5  -3  10    3.30    2.50
  -5  -3  10    8.30    3.10
  -5  -3  10   10.50    3.00
   5   3 -10    1.40    2.70
  -5   3  10    9.90    2.50
  -5   3  10    5.60    2.20
  -5   3  10    7.30    2.80
  -4  -3  10  158.88   10.10
  -4  -3  10  166.78    9.90
  -4   3  10  152.48    9.00
  -4   3  10  171.58    8.80
  -4   3  10  153.38    9.10
  -3  -3  10    2.60    2.00
  -3   3  10    0.60    1.50
  -3   3  10    3.10    1.80
  -3   3  10    0.10    2.20
   3   3 -10    4.00    2.10
  -2  -3  10   89.19    7.10
  -2  -3  10   84.29    5.90
  -2   3  10   92.19    6.60
   2   3 -10   87.09    5.70
  -1  -3  10    9.90    2.50
  -1  -3  10    6.50    2.90
  -1   3  10   19.50    3.60
   1   3 -10   14.50    2.50
   0  -3  10   29.30    3.60
   0  -3  10   25.70    4.50
   0   3 -10   37.90    3.40
   0   3  10   35.50    4.80
   1  -3  10    1.00    2.50
   1   3  10    4.50    3.10
  -1   3 -10    2.30    2.00
   2  -3  10   14.20    3.60
   2   3  10    6.90    3.40
  -2   3 -10    1.10    2.50
  -2   3 -10    7.90    2.20
   3  -3  10   13.00    4.40
  -3   3 -10   23.60    3.20
  -3   3 -10   30.30    4.60
   3   3  10   20.90    4.70
   4  -3  10    1.70    3.60
  -4   3 -10   -2.60    3.60
  -4   3 -10    1.60    2.40
   4   3  10    3.00    3.70
   5  -3  10   -1.80    4.50
  -5  -3 -10   -1.60    2.50
   5   3  10   -0.20    4.30
  -5   3 -10    3.50    4.90
  -5   3 -10   -3.10    2.40
   6  -3  10   -1.50    6.00
  -6  -3 -10    0.10    4.90
  -6  -3 -10    5.90    3.00
  -6   3 -10    2.00    3.70
   6   3  10    1.80    5.00
  -7  -3 -10   -2.70    4.20
   7  -3  10   -6.40    5.80
  -7   3 -10    6.50    4.30
   7   3  10    3.50    5.10
 -12  -4  10   -3.00    4.60
 -12   4  10  -11.60    4.40
 -12   4  10    3.90    4.20
 -11  -4  10   31.80    7.80
 -11  -4  10   30.60    5.80
 -11   4  10   45.70   10.60
 -11   4  10   20.70    4.60
 -10  -4  10   -1.60    4.40
 -10  -4  10   -5.30    3.50
 -10   4  10    0.40    3.40
 -10   4  10   -0.50    3.30
  -9  -4  10    7.20    4.50
  -9  -4  10    7.60    3.80
  -9   4  10    7.60    3.40
  -9   4  10    6.60    3.00
  -8  -4  10   -1.60    3.30
  -8  -4  10    2.20    3.90
  -8  -4  10    3.50    3.30
  -8   4  10   -0.20    2.70
  -8   4  10    1.30    2.70
  -7  -4  10   28.20    5.00
  -7  -4  10   36.30    5.60
  -7  -4  10   35.70    5.00
  -7   4  10   46.00    4.10
  -7   4  10   48.10    5.40
  -7   4  10   38.10    4.30
  -6  -4  10    1.90    3.10
  -6  -4  10   -3.50    2.60
  -6  -4  10   -0.60    2.90
  -6   4  10    1.10    2.30
  -6   4  10    2.20    1.80
  -6   4  10    1.10    1.80
  -6   4  10   -2.70    2.60
  -5  -4  10    2.40    2.20
  -5  -4  10   -2.00    2.40
  -5  -4  10    5.30    2.70
  -5   4  10   -0.60    2.40
  -5   4  10   -2.10    1.60
  -5   4  10    1.40    2.20
  -4  -4  10   18.60    3.50
  -4  -4  10   20.30    3.40
  -4   4  10   18.40    3.10
   4   4 -10   26.50    3.80
  -4   4  10   14.50    2.70
  -4   4  10   16.60    2.70
  -3  -4  10   57.09    5.30
  -3  -4  10   75.39    6.70
  -3   4  10   56.89    3.90
   3   4 -10   50.69    5.00
  -3   4  10   50.29    4.10
  -3   4  10   56.29    4.90
  -2  -4  10   25.20    3.70
  -2  -4  10   26.20    4.00
  -2   4  10   25.90    3.80
   2   4 -10   32.20    3.90
  -1  -4  10   79.69    6.80
  -1  -4  10   75.79    5.70
   1   4 -10   76.69    5.50
  -1   4  10   83.99    6.20
   0  -4  10    8.70    2.90
   0  -4  10   12.00    3.60
   0   4  10    7.70    2.80
   0   4 -10    8.20    2.60
   1  -4  10   59.19    6.50
   1  -4  10   61.69    4.90
  -1   4 -10   62.99    5.40
   1   4  10   61.99    5.80
   2  -4  10   -4.10    2.80
   2   4  10    4.30    2.80
  -2   4 -10   -1.20    2.80
   3  -4  10   15.40    4.60
   3   4  10   20.10    4.90
  -3   4 -10   18.60    3.20
  -3   4 -10   17.40    4.10
   4  -4  10    6.30    3.70
  -4   4 -10   -0.20    4.30
   4   4  10    7.50    3.90
  -4   4 -10    9.90    2.90
  -5  -4 -10   62.49    4.60
   5  -4  10   69.49    8.40
  -5   4 -10   77.99   11.30
   5   4  10   67.79    8.20
  -5   4 -10   80.99    6.40
   6  -4  10    0.70    4.40
  -6  -4 -10   -7.90    5.10
  -6  -4 -10    3.00    3.10
  -6   4 -10   -6.80    5.30
   6   4  10    3.00    4.60
  -7  -4 -10    9.80    4.50
   7  -4  10    3.70    7.00
   7   4  10   -1.70    5.20
  -7   4 -10    5.20    4.70
 -11  -5  10   -3.50    5.00
 -11   5  10    4.30    5.30
 -11   5  10    1.40    3.60
 -10  -5  10   69.29    8.30
 -10  -5  10   90.79    9.60
 -10   5  10   79.29    8.30
 -10   5  10   88.69    6.50
  -9  -5  10    3.40    4.70
  -9  -5  10   -0.30    4.00
  -9   5  10    3.10    2.90
  -9   5  10    6.80    2.30
  -8  -5  10  203.48   13.30
  -8  -5  10  197.78   12.50
  -8  -5  10  200.08   12.60
  -8   5  10  178.78   11.70
  -8   5  10  183.18   10.20
  -7  -5  10    7.40    3.70
  -7  -5  10    6.10    3.80
  -7  -5  10    5.70    3.80
  -7   5  10    1.40    2.20
  -7   5  10    4.80    2.70
  -7   5  10    6.60    1.90
  -6  -5  10  156.98   10.10
  -6  -5  10  146.09   10.50
  -6  -5  10  131.49    9.70
  -6   5  10  151.18    8.10
  -6   5  10  156.88    8.20
  -6   5  10  139.79    9.10
  -5  -5  10   11.10    3.30
  -5  -5  10    2.90    2.90
  -5  -5  10    3.80    2.80
  -5   5  10    1.50    1.60
  -5   5  10    0.70    2.20
  -4  -5  10   -0.70    2.70
  -4  -5  10    0.10    2.60
  -4  -5  10   -1.40    2.10
  -4   5  10    5.00    2.40
  -4   5  10    2.80    1.80
  -4   5  10    0.40    2.10
   4   5 -10    3.70    3.00
  -3  -5  10   91.59    7.30
  -3  -5  10   80.99    7.20
  -3   5  10   93.99    5.30
   3   5 -10   85.89    6.50
  -3   5  10   88.89    6.10
  -3   5  10   87.69    5.60
  -2  -5  10  178.08   11.00
  -2  -5  10  172.18   10.20
  -2   5  10  161.88    7.70
  -2   5  10  175.98    9.60
  -2   5  10  166.88    7.80
   2   5 -10  155.58   12.50
  -1  -5  10    6.90    3.50
  -1  -5  10    7.00    2.80
   1   5 -10    3.30    2.30
  -1   5  10    2.00    2.50
   0  -5  10  151.08   10.20
   0  -5  10  161.98    9.70
   0   5 -10  149.99    9.10
   0   5  10  152.58    9.60
   1  -5  10    3.20    2.50
   1  -5  10   -0.90    2.60
  -1   5 -10    4.10    2.90
   1   5  10    2.30    3.00
   2  -5  10    6.60    3.10
   2   5  10    2.90    3.40
  -2   5 -10    1.30    3.70
   3  -5  10    2.60    3.20
   3   5  10    1.60    3.40
  -3   5 -10    1.00    3.60
  -3   5 -10    2.40    2.60
   4  -5  10    7.10    3.90
  -4   5 -10    2.40    2.60
  -4   5 -10   -5.70    4.80
   4   5  10    4.50    3.80
  -5  -5 -10   -4.40    3.20
   5  -5  10    2.30    4.10
  -5  -5 -10    0.30    2.30
   5   5  10    6.50    4.50
  -5   5 -10   -4.10    3.10
  -6  -5 -10   -1.30    3.20
   6  -5  10    3.70    5.20
  -6  -5 -10   -7.40    6.40
  -6   5 -10   -5.20    3.40
   6   5  10    5.20    4.80
 -11  -6  10   28.80    6.30
 -11   6  10    3.10    3.90
 -11   6  10    5.80    3.90
 -10  -6  10    8.20    4.70
 -10  -6  10   -0.80    5.50
 -10   6  10   12.70    4.10
  -9  -6  10   13.90    4.50
  -9  -6  10   11.10    4.50
  -9   6  10   13.40    2.80
  -9   6  10   19.90    5.10
  -8  -6  10    7.60    4.20
  -8  -6  10    4.20    3.90
  -8  -6  10    0.60    3.50
  -8   6  10    4.50    2.90
  -8   6  10    8.30    2.60
  -7  -6  10    4.90    4.20
  -7  -6  10    8.60    3.90
  -7  -6  10    7.40    4.20
  -7   6  10    1.20    2.60
  -7   6  10    4.80    1.90
  -6  -6  10   10.10    3.90
  -6  -6  10   14.90    4.20
  -6  -6  10   14.70    3.70
  -6   6  10   17.10    3.30
  -6   6  10   15.70    2.60
  -6   6  10   17.20    2.50
  -5  -6  10    1.30    2.60
  -5  -6  10    1.50    3.10
  -5  -6  10    3.10    3.30
  -5   6  10    4.30    2.90
  -5   6  10    0.40    1.80
  -5   6  10   -0.40    2.30
  -4  -6  10   -0.50    3.20
  -4  -6  10    7.90    2.90
  -4  -6  10    8.10    3.20
  -4   6  10    4.70    2.30
  -4   6  10    4.40    2.00
  -4   6  10    4.00    1.90
  -3  -6  10   11.80    3.80
  -3  -6  10   10.80    3.60
   3   6 -10   12.00    3.20
  -3   6  10   16.10    2.10
  -3   6  10   11.10    2.50
  -3   6  10   13.90    3.10
  -2  -6  10   -0.60    2.30
  -2  -6  10    8.40    3.10
   2   6 -10    1.20    2.60
  -2   6  10   10.50    3.00
  -2   6  10    5.60    1.30
  -1  -6  10    5.30    2.70
  -1  -6  10    7.40    3.30
  -1   6  10    2.20    2.50
   1   6 -10    5.50    2.90
   0  -6  10   13.40    3.60
   0  -6  10   14.90    3.50
   0   6 -10    9.90    3.30
   0   6  10   17.00    3.60
   1  -6  10  100.39    7.80
   1  -6  10   86.69    8.00
   1   6  10   93.59    7.50
  -1   6 -10  104.49    7.80
   2  -6  10    8.20    2.70
   2  -6  10    7.80    3.60
  -2   6 -10    5.30    3.80
   2   6  10    1.60    3.40
   3  -6  10    2.60    3.60
   3   6  10    2.70    3.00
   4  -6  10   38.00    6.20
  -4   6 -10   45.50    5.70
   4   6  10   36.50    5.60
  -5  -6 -10    6.20    3.00
  -5  -6 -10   11.10    4.40
   5  -6  10   14.70    5.20
  -5   6 -10   16.70    4.40
   5   6  10   11.00    4.60
  -6  -6 -10    3.50    3.40
   6  -6  10    3.90    5.10
  -6   6 -10    3.00    3.70
   6   6  10    2.30    5.10
 -11  -7  10   49.99    8.10
 -11   7  10   49.50    5.70
 -10  -7  10   27.30    6.40
 -10   7  10   28.80    3.80
 -10   7  10   37.40    6.40
  -9  -7  10  133.99   11.00
  -9  -7  10  113.29   10.30
  -9  -7  10  116.69    9.80
  -9   7  10  118.29    9.40
  -9   7  10  103.19    6.90
  -8  -7  10   31.10    6.20
  -8  -7  10   22.60    5.30
  -8  -7  10   13.50    5.00
  -8   7  10   23.50    3.00
  -8   7  10   26.20    5.00
  -8   7  10   22.50    2.70
  -7  -7  10   74.39    7.90
  -7  -7  10   65.89    7.40
  -7  -7  10   87.19    8.40
  -7   7  10   80.59    4.90
  -7   7  10   72.89    6.60
  -6  -7  10    6.80    3.70
  -6  -7  10   18.30    4.30
  -6  -7  10   18.30    5.10
  -6   7  10   13.60    3.40
  -6   7  10   17.90    2.20
  -6   7  10   13.30    2.10
  -5  -7  10  106.59    7.90
  -5  -7  10  121.49    9.60
  -5  -7  10  124.89    9.00
  -5   7  10   99.79    8.00
  -5   7  10  110.09    7.40
  -5   7  10  112.09    6.50
  -4  -7  10    3.40    3.00
  -4  -7  10   10.70    3.60
  -4   7  10    4.50    2.30
  -4   7  10    5.70    2.20
  -4   7  10    8.50    2.90
  -3  -7  10   47.60    5.50
  -3  -7  10   37.60    5.10
  -3  -7  10   52.19    6.00
  -3   7  10   49.50    3.70
  -3   7  10   48.30    4.40
  -3   7  10   43.30    4.40
  -2  -7  10   67.89    6.70
  -2  -7  10   79.59    7.00
  -2   7  10   72.09    5.80
  -2   7  10   68.79    4.60
  -2   7  10   69.09    4.20
  -1  -7  10   91.79    7.60
  -1  -7  10  111.79    8.00
  -1   7  10   93.89    4.70
  -1   7  10   98.39    4.70
  -1   7  10   97.09    6.90
   1   7 -10   87.29    8.30
   0  -7  10   17.70    3.90
   0  -7  10   17.20    4.50
   0   7 -10   15.50    4.70
   0   7  10   19.10    3.90
   1  -7  10    2.90    3.30
   1  -7  10    8.10    3.60
   1   7  10    5.20    2.80
   2  -7  10    5.60    3.50
   2  -7  10   -2.80    2.70
   2   7  10    4.80    3.50
   3  -7  10   15.60    4.90
   3   7  10   15.90    4.70
   4  -7  10    0.70    3.90
  -4   7 -10    1.80    3.50
   4   7  10   -0.90    3.80
  -5  -7 -10   -1.20    3.80
  -5  -7 -10   -9.20    4.90
   5  -7  10    2.00    5.00
   5   7  10    0.90    4.30
  -5   7 -10    2.80    3.40
  -6  -7 -10   -2.80    3.50
   6  -7  10   -3.20    5.10
   6   7  10    0.90    4.80
  -6   7 -10   -2.00    3.90
 -10  -8  10   27.80    6.20
 -10  -8  10   24.90    6.60
 -10   8  10   20.00    3.20
 -10   8  10   44.80    7.60
  -9  -8  10   -2.10    9.80
  -9  -8  10   10.70    4.80
  -9  -8  10    4.00    4.00
  -9   8  10    8.20    2.10
  -9   8  10    1.20    3.50
  -8  -8  10   30.20    6.50
  -8  -8  10   17.10    5.10
  -8  -8  10    1.80    5.00
  -8   8  10   19.60    2.40
  -8   8  10   14.90    2.10
  -8   8  10   13.20    3.90
  -7  -8  10    3.30    4.10
  -7  -8  10   -8.30    3.10
  -7  -8  10  -10.10    3.50
  -7   8  10   -1.40    1.30
  -7   8  10   -0.70    2.50
  -6  -8  10   -0.40    3.40
  -6  -8  10    7.50    3.30
  -6  -8  10    5.70    4.10
  -6   8  10    5.80    1.50
  -6   8  10    5.70    2.60
  -6   8  10    4.30    1.40
  -5  -8  10    2.60    3.30
  -5  -8  10   -1.50    3.40
  -5  -8  10    1.80    3.80
  -5   8  10    0.20    5.00
  -5   8  10    1.60    2.40
  -5   8  10    2.10    1.80
  -4  -8  10    8.10    4.00
  -4  -8  10    9.00    4.10
  -4   8  10    8.80    2.60
  -4   8  10    7.50    3.40
  -4   8  10   13.60    2.70
  -3  -8  10   -4.60    2.70
  -3  -8  10    0.70    3.00
  -3  -8  10    0.60    2.90
  -3   8  10    1.10    2.00
  -3   8  10    1.30    1.50
  -3   8  10   -1.20    2.30
  -2  -8  10    5.70    3.90
  -2  -8  10    0.50    2.80
  -2   8  10    5.20    2.70
  -2   8  10    5.40    1.60
  -2   8  10    0.80    2.10
  -1  -8  10   38.80    5.50
  -1   8  10   48.30    4.80
  -1   8  10   44.40    3.50
   0  -8  10   70.19    6.90
   0  -8  10   66.89    7.60
   0   8  10   59.69    3.40
   0   8  10   66.89    6.00
   0   8  10   64.69    3.40
   1  -8  10    1.80    3.10
   1   8  10    1.80    2.80
   2  -8  10   90.99    8.30
   2  -8  10   90.99    8.30
   2   8  10   93.19    7.80
   3  -8  10   -3.00    3.50
   3   8  10    1.90    4.00
   4  -8  10   -2.00    4.00
   4   8  10    4.90    4.00
  -5  -8 -10    2.70    3.80
   5  -8  10    6.20    4.80
   5   8  10    4.60    4.20
  -5   8 -10    4.40    4.00
  -6   8 -10   28.70    5.50
 -10  -9  10    4.40    4.70
 -10  -9  10   26.00    6.90
 -10   9  10    8.80    2.80
 -10   9  10   14.70    5.80
  -9  -9  10   67.89   10.40
  -9  -9  10   79.19    8.80
  -9   9  10   78.99    7.90
  -8  -9  10   -0.30    4.80
  -8  -9  10    4.80    4.40
  -8  -9  10    5.00    4.40
  -8   9  10    7.20    3.10
  -7  -9  10   50.59    7.50
  -7  -9  10   42.10    6.70
  -7   9  10   51.59    6.60
  -6  -9  10   77.69    8.10
  -6  -9  10   65.09    7.50
  -6  -9  10   76.39    8.80
  -6   9  10   83.39    6.90
  -5  -9  10   65.49    7.60
  -5  -9  10   98.99    9.10
  -5  -9  10   83.29    8.10
  -5   9  10   90.59    6.60
  -5   9  10   83.39    4.80
  -4  -9  10    2.90    3.50
  -4  -9  10    1.40    3.30
  -4   9  10    1.90    2.30
  -4   9  10    0.20    3.20
  -4   9  10   -0.70    2.00
  -3  -9  10   10.10    3.60
  -3  -9  10   22.20    4.60
  -3   9  10   15.60    2.80
  -3   9  10   11.60    2.80
  -3   9  10    8.00    3.40
  -2  -9  10    3.20    3.20
  -2  -9  10   -1.70    3.60
  -2   9  10    1.10    2.00
  -2   9  10    0.30    2.40
  -1  -9  10  222.78   13.70
  -1  -9  10  233.58   14.20
  -1   9  10  235.48   10.90
  -1   9  10  203.58   12.00
  -1   9  10  214.48   11.20
   0  -9  10    0.40    2.90
   0  -9  10    2.50    3.10
   0   9  10    4.10    2.70
   0   9  10   -0.20    1.70
   1  -9  10   34.80    5.90
   1  -9  10   32.80    5.20
   1   9  10   34.00    5.20
   2  -9  10   -1.00    3.30
   2  -9  10   -1.20    3.30
   2   9  10    2.80    3.90
   2   9  10   -3.20    1.80
   3  -9  10   11.00    4.60
  -3  -9 -10    9.90    2.60
   3  -9  10   13.90    4.40
   3   9  10    7.00    4.00
   3   9  10    4.80    3.20
   4  -9  10    2.20    4.80
  -4  -9 -10    5.70    3.90
   4   9  10   -0.90    4.00
   5  -9  10    0.60    4.50
  -5  -9 -10   -1.60    3.50
  -5   9 -10   -5.90    3.90
   5   9  10    4.80    4.50
  -9 -10  10   -0.10    4.70
  -9 -10  10   11.00    5.10
  -9  10  10    2.40    3.60
  -8 -10  10    4.00    4.60
  -8 -10  10   10.90    5.70
  -8  10  10   -1.60    3.20
  -7 -10  10    6.80    4.60
  -7 -10  10    4.70    4.20
  -7  10  10   11.40    3.80
  -6 -10  10   10.00    4.60
  -6 -10  10    3.50    4.60
  -6  10  10    4.40    2.90
  -5 -10  10   14.30    4.80
  -5 -10  10   14.00    4.50
  -5  10  10    9.60    3.10
  -4 -10  10    2.20    3.30
  -4 -10  10    2.20    4.10
  -4  10  10    4.90    1.80
  -4  10  10    1.40    2.50
  -3 -10  10    8.70    4.10
  -3 -10  10    5.90    4.10
  -3  10  10    6.40    3.60
  -3  10  10   13.10    2.90
  -3  10  10   10.70    3.00
  -2 -10  10   62.29    7.10
  -2 -10  10   68.39    7.70
  -2  10  10   46.20    5.20
  -2  10  10   62.79    5.00
  -2  10  10   61.19    5.40
  -1 -10  10    5.60    3.70
  -1 -10  10    3.40    3.30
  -1  10  10    6.70    3.00
  -1  10  10    0.50    2.50
   0 -10  10   23.30    4.80
   0 -10  10   28.40    5.30
   0  10  10   21.60    3.20
   0  10  10   21.70    4.40
   1 -10  10   41.60    6.50
   1 -10  10   50.69    6.60
   1  10  10   49.30    6.20
   1  10  10   30.40    3.70
   2 -10  10   32.80    5.60
  -2 -10 -10   39.40    4.30
   2 -10  10   39.80    7.10
   2  10  10   31.70    5.20
   2  10  10   34.70    3.90
   3 -10  10    7.40    4.10
  -3 -10 -10   -2.20    3.00
   3 -10  10    5.40    4.50
   3  10  10    2.70    4.70
  -4 -10 -10    6.30    3.30
   4 -10  10    9.40    5.10
   4  10  10    6.30    4.60
   5 -10  10    6.20    5.10
  -5 -10 -10    8.60    4.00
   5  10  10    5.80    4.80
  -5  10 -10   18.10    5.30
  -9 -11  10    9.00    5.10
  -9 -11  10    7.60    4.40
  -8 -11  10   42.40    7.90
  -8 -11  10   57.69    9.80
  -8  11  10   55.79    7.70
  -7 -11  10   -0.10    4.00
  -7 -11  10    5.60    4.70
  -7  11  10    5.00    3.20
  -6 -11  10   73.19    8.80
  -6 -11  10  101.89    9.90
  -6  11  10   95.19    8.00
  -5 -11  10   13.50    5.10
  -5 -11  10   13.20    4.30
  -5  11  10   14.70    3.60
  -4 -11  10   72.29    7.70
  -4 -11  10  100.59    9.30
  -4  11  10   62.79    4.50
  -3 -11  10    6.70    3.80
  -3 -11  10   17.90    4.70
  -3  11  10   13.80    3.50
  -3  11  10   11.60    2.80
  -3  11  10   14.40    4.40
  -2 -11  10   66.59    7.30
  -2 -11  10   89.59    8.90
  -2  11  10   61.59    6.30
  -2  11  10   66.79    5.50
  -1 -11  10    6.50    4.40
  -1 -11  10    4.00    3.20
  -1  11  10    0.20    2.80
  -1  11  10    1.70    2.90
   0 -11  10   64.59    7.50
   0 -11  10   53.99    7.20
   0  11  10   49.40    5.70
   0  11  10   49.80    4.90
  -1 -11 -10    7.70    2.90
   1 -11  10    3.50    3.90
   1 -11  10   -3.20    3.40
   1  11  10   -3.30    2.30
   1  11  10    2.50    3.50
   2 -11  10   18.50    5.80
   2 -11  10   19.40    4.60
  -2 -11 -10   18.50    3.70
   2  11  10   22.40    6.00
   2  11  10   21.60    3.20
  -3 -11 -10    7.30    3.70
   3 -11  10    2.80    4.50
   3 -11  10    7.00    4.50
   3  11  10    6.70    3.90
  -4 -11 -10    2.80    3.70
   4 -11  10    4.70    4.90
   4  11  10   -8.40    4.10
  -8 -12  10    0.10    4.90
  -8 -12  10    2.20    4.50
  -8  12  10    4.70    4.00
  -7 -12  10    4.80    4.80
  -7 -12  10    5.50    4.70
  -7  12  10   -1.80    3.40
  -6 -12  10   -3.00    4.90
  -6 -12  10   -1.10    3.80
  -6  12  10    3.40    3.10
  -5 -12  10    2.30    4.00
  -5 -12  10    3.40    4.50
  -5  12  10    2.60    3.10
  -4 -12  10    7.90    4.40
  -4 -12  10    2.00    4.20
  -4  12  10   11.90    3.60
  -4  12  10    8.30    2.10
  -3 -12  10   34.10    5.70
  -3 -12  10   22.80    5.70
  -3  12  10   25.60    3.30
  -2 -12  10    3.10    3.60
  -2 -12  10    1.90    3.70
  -2  12  10    2.00    6.30
  -2  12  10    0.50    2.20
  -1 -12  10   25.80    6.20
  -1 -12  10   26.60    4.80
  -1  12  10   13.40    4.10
  -1  12  10   36.10    4.50
   0 -12  10   10.90    3.80
   0 -12 -10   15.30    4.00
   0 -12  10   13.70    4.50
   1 -12  10   44.00    7.40
  -1 -12 -10   36.90    5.10
   1 -12  10   41.60    6.20
   1  12  10   38.90    5.30
   1  12  10   36.40    5.30
  -2 -12 -10    6.50    3.90
   2 -12  10    6.00    4.30
   2 -12  10    4.40    4.80
   2  12  10    6.80    3.90
  -3 -12 -10   60.39    7.20
   3 -12  10   55.89    8.40
   3 -12  10   57.19    7.80
   3  12  10   67.19    7.60
  -7 -13  10   -3.60    4.50
  -7 -13  10   -3.10    4.60
  -7  13  10   -1.50    3.40
  -6 -13  10   54.29    9.30
  -6 -13  10   42.00    7.40
  -6  13  10   40.80    6.30
  -5 -13  10   20.30   10.80
  -5 -13  10    9.10    5.10
  -5  13  10    6.10    3.70
  -4 -13  10   96.69    9.20
  -4 -13  10  111.29   11.10
  -4  13  10   77.99    5.20
  -3 -13  10    7.50    4.60
  -3 -13  10    8.30    3.90
  -2 -13  10    8.50    4.70
  -2 -13  10   16.20    4.60
  -2  13  10   12.40    3.20
  -1 -13  10   -3.00    3.20
  -1 -13  10    1.00    4.70
  -1  13  10    1.90    3.00
   0 -13  10   11.10    4.60
   0 -13  10   10.40    4.50
   0 -13 -10   11.40    3.90
   0  13  10    2.30    3.50
   1 -13  10    8.10    4.20
  -1 -13 -10   -3.00    3.90
   1 -13  10    3.70    4.30
   1  13  10    4.30    3.30
   2 -13  10   -2.00    4.90
  -2 -13 -10   -1.50    4.50
   2 -13  10    5.30    4.50
   2  13  10   -2.40    4.00
  -6 -14  10    1.60    4.70
  -6 -14  10   11.40    5.80
  -6  14  10    7.60    4.20
  -5 -14  10    0.60    8.10
  -5 -14  10   -1.20    4.80
  -5  14  10    6.30    3.90
  -4 -14  10    0.10    4.80
  -4 -14  10   -0.30    4.40
  -4  14  10    1.20    1.90
  -4  14  10    4.60    3.60
  -3 -14  10    5.20    4.70
  -3  14  10    8.30    2.80
  -2 -14  10    1.00    4.20
  -2 -14  10    9.60    5.50
  -2  14  10   13.50    3.30
  -1 -14  10    4.90    4.70
  -1 -14  10    5.90    5.70
  -1  14  10   -0.10    2.90
   0 -14  10   18.30    7.30
   0 -14  10    8.10    4.20
   0 -14 -10    8.20    5.00
   0  14  10   12.70    3.90
   1 -14  10   17.10    5.00
  -1 -14 -10   15.90    5.60
   1 -14  10   19.50   10.80
   1  14  10   23.90    4.90
  -4 -15  10   22.20    6.20
  -4 -15  10   26.30    6.50
  -4  15  10   19.10    2.50
  -3 -15  10   14.80    6.00
  -3 -15  10   12.10    5.60
  -3  15  10   13.00    2.60
  -2 -15  10   11.20    5.30
  -2 -15  10    1.00    4.30
  -2  15  10    0.40    2.50
  -1 -15  10    1.00    4.20
   1 -15 -10   -0.60    5.10
  -1 -15  10    1.20    4.30
  -1  15  10    0.70    3.30
 -10   0  11   -0.40    3.90
  -9   0  11   22.40    4.60
  -9   0  11   12.90    3.60
  -9   0  11   10.10    3.70
  -8   0  11    1.10    2.70
  -8   0  11   -3.70    2.80
  -8   0  11    3.10    3.00
  -7   0  11    1.00    2.90
  -7   0  11   -0.40    2.70
  -7   0  11   -0.80    2.70
  -6   0  11   -1.20    2.10
  -6   0  11    3.10    2.90
  -6   0  11    2.50    2.30
   6   0 -11   -0.50    2.70
  -5   0  11   19.30    3.40
   5   0 -11   23.50    4.00
  -5   0  11   14.30    3.20
  -4   0  11   -0.30    2.10
   4   0 -11   -0.20    1.80
  -4   0  11   -3.00    2.30
  -3   0  11   22.90    4.30
   3   0 -11   23.70    2.90
  -3   0  11   24.90    2.90
  -2   0  11    0.40    2.20
  -2   0  11    1.60    1.00
  -1   0  11   73.69    6.80
   0   0  11    3.60    3.30
   1   0  11  220.88   13.20
   2   0  11   -2.80    3.20
   3   0  11   44.90    6.20
   4   0  11   -1.80    3.70
   5   0  11   48.00    7.40
  -5   0 -11   42.10    5.20
  -6   0 -11   -3.80    3.10
   6   0  11   -2.50    4.90
 -11  -1  11   13.00    4.60
 -11   1  11    6.30    4.30
 -11   1  11   18.00    6.20
 -10  -1  11   68.09    8.20
 -10  -1  11   53.39    6.70
 -10   1  11   66.09    8.00
 -10   1  11   84.79    7.00
  -9  -1  11    1.70    2.70
  -9  -1  11   -9.20    3.00
  -9  -1  11    3.60    4.00
  -9   1  11    3.60    2.80
  -9   1  11    2.00    3.20
  -9   1  11   -1.50    3.00
  -8  -1  11   32.30    5.30
  -8  -1  11   31.30    5.10
  -8  -1  11   36.90    5.00
  -8   1  11   37.30    4.80
  -8   1  11   30.30    4.30
  -8   1  11   37.80    5.80
  -7  -1  11    8.50    3.10
  -7  -1  11    7.70    2.90
  -7  -1  11   14.70    3.90
  -7   1  11    9.60    4.00
  -7   1  11   13.90    3.20
  -7   1  11    7.30    2.90
  -6  -1  11  120.49    8.20
  -6  -1  11  118.59    7.90
  -6  -1  11  116.09    8.30
   6  -1 -11  100.89    7.60
  -6   1  11  113.29    7.90
  -6   1  11  119.59    8.10
  -5  -1  11   96.99    7.30
  -5  -1  11   95.79    7.10
   5  -1 -11   85.09    6.40
  -5   1  11   97.29    7.00
  -5   1  11   94.89    6.70
   5   1 -11   86.89    6.60
  -4  -1  11  129.79    7.80
  -4  -1  11  111.99    8.40
  -4   1  11  126.09    8.30
   4   1 -11  112.29    7.20
  -4   1  11  135.69    7.50
  -3  -1  11   27.90    3.40
  -3  -1  11   30.40    4.60
  -3   1  11   23.00    4.10
  -3   1  11   34.40    3.90
  -2  -1  11   10.10    3.40
  -2  -1  11   10.00    3.20
  -2   1  11    9.70    3.30
   2   1 -11    5.70    2.00
  -1  -1  11   40.90    5.30
  -1   1  11   35.10    4.90
   0  -1  11   90.09    7.60
   0   1  11   88.09    7.50
   1  -1  11   -2.20    3.40
   1   1  11    4.50    3.10
   2  -1  11   25.40    4.70
   2   1  11   27.80    5.30
   3  -1  11    3.60    4.20
   3   1  11   -2.30    3.50
   4  -1  11    7.90    4.90
   4   1  11    8.50    4.40
  -4   1 -11   12.90    4.20
  -4   1 -11    8.70    3.40
   5  -1  11   15.50    5.80
  -5   1 -11   12.90    2.90
   5   1  11    3.80    4.80
  -5   1 -11   12.50    4.80
   6  -1  11    8.10    5.10
  -6  -1 -11    4.00    3.00
  -6   1 -11   -2.00    3.30
   6   1  11   -2.80    4.50
 -11  -2  11   11.30    5.80
 -11  -2  11    5.50    4.60
 -11   2  11   10.30    4.10
 -11   2  11   23.60    8.30
 -10  -2  11    2.90    4.00
 -10   2  11    4.50    4.00
 -10   2  11    2.80    3.20
  -9  -2  11    7.70    4.20
  -9  -2  11   13.30    4.80
  -9  -2  11   14.40    3.70
  -9   2  11   12.10    3.90
  -9   2  11    5.10    3.20
  -9   2  11    8.90    3.20
  -8  -2  11   17.40    4.00
  -8  -2  11   19.90    3.80
  -8  -2  11   19.90    4.70
  -8   2  11   16.20    3.50
  -8   2  11   21.60    3.70
  -8   2  11   28.00    5.00
  -7  -2  11    7.40    3.80
  -7  -2  11   12.80    3.00
  -7  -2  11    8.50    3.10
  -7   2  11    6.40    6.20
  -7   2  11   10.80    2.70
  -7   2  11    8.60    2.80
  -6  -2  11    6.30    3.40
  -6  -2  11    2.10    2.70
  -6  -2  11    4.10    3.20
  -6   2  11    4.10    2.70
  -6   2  11    5.80    2.30
  -6   2  11    0.10    2.00
  -5  -2  11   29.30    4.20
  -5  -2  11   24.80    4.20
  -5  -2  11   25.40    4.10
  -5   2  11   40.90    4.30
  -5   2  11   40.50    4.30
   5   2 -11   29.50    4.00
  -4  -2  11   41.20    4.70
  -4  -2  11   47.10    5.40
  -4   2  11   42.90    4.80
   4   2 -11   35.90    4.20
  -4   2  11   37.30    3.50
  -3  -2  11    3.70    3.10
  -3  -2  11    4.30    2.40
  -3   2  11    4.70    1.60
   3   2 -11    8.20    2.00
  -3   2  11    4.40    3.30
  -3   2  11    2.00    2.50
  -2  -2  11   34.00    3.50
  -2  -2  11   31.30    4.60
  -2   2  11   36.40    4.80
   2   2 -11   42.90    3.50
  -1  -2  11   48.60    5.40
  -1   2  11   41.00    5.30
   1   2 -11   39.30    3.90
   0  -2  11   66.89    6.40
   0   2 -11   57.39    3.50
   0   2  11   66.79    6.30
   1  -2  11    4.30    3.60
  -1   2 -11    9.10    1.40
  -1   2 -11    9.10    1.20
   1   2  11    7.00    4.00
   2  -2  11   25.90    4.90
   2   2  11   30.80    5.30
  -2   2 -11   32.20    2.50
  -2   2 -11   30.30    3.00
   3  -2  11   23.00    5.40
  -3   2 -11   25.80    3.40
   3   2  11   22.10    4.80
   4  -2  11    8.00    4.70
  -4   2 -11    1.60    2.30
   4   2  11    2.80    4.40
  -4   2 -11    4.40    3.70
   5  -2  11   22.60    5.80
   5   2  11   22.20    5.60
  -5   2 -11   16.50    5.40
  -5   2 -11   24.40    3.30
   6  -2  11   12.60    5.60
  -6  -2 -11   14.40    5.00
   6   2  11   13.00    5.70
  -6   2 -11   17.00    4.20
 -11  -3  11   36.00    6.60
 -11  -3  11   21.90    8.40
 -11   3  11   33.60   11.70
 -11   3  11   26.20    5.00
 -10  -3  11   15.30    5.20
 -10  -3  11   20.40    5.10
 -10   3  11   13.90    5.10
 -10   3  11   17.70    4.10
  -9  -3  11   69.79    7.50
  -9  -3  11   72.29    7.60
  -9  -3  11   73.59    7.80
  -9   3  11   69.29    7.40
  -9   3  11   72.89    6.20
  -9   3  11   61.99    6.20
  -8  -3  11   24.50    4.60
  -8  -3  11   24.70    5.00
  -8  -3  11   19.40    4.60
  -8   3  11   20.80    3.40
  -8   3  11   22.50    3.50
  -8   3  11   29.70    5.00
  -7  -3  11  121.09    8.80
  -7  -3  11  119.89    8.90
  -7  -3  11  120.19    9.50
  -7   3  11  119.79    7.80
  -7   3  11  113.59    7.60
  -7   3  11  140.69   13.00
  -6  -3  11  142.59   13.40
  -6  -3  11  128.39    9.10
  -6  -3  11  121.49    8.50
  -6   3  11  104.39    7.20
  -6   3  11  123.19    7.80
  -6   3  11  126.59    8.20
  -5  -3  11   -1.10    2.60
  -5  -3  11    0.90    2.70
  -5  -3  11   -0.40    2.50
   5   3 -11    5.30    2.70
  -5   3  11    2.40    2.40
  -5   3  11    1.30    2.00
  -5   3  11   -2.30    2.60
  -4  -3  11    4.00    3.00
  -4  -3  11    3.70    3.10
   4   3 -11    1.90    3.80
  -4   3  11    1.70    2.30
  -4   3  11    6.30    2.60
  -4   3  11    4.80    1.80
  -3  -3  11  128.49    8.00
  -3  -3  11  116.99    8.50
  -3   3  11  137.79    7.60
  -3   3  11  107.59    6.00
   3   3 -11  109.49    7.10
  -3   3  11  112.99    7.70
  -2  -3  11    1.00    2.30
  -2  -3  11    2.20    2.20
   2   3 -11    3.60    2.00
  -2   3  11    1.00    2.70
  -1  -3  11  237.88   13.80
  -1  -3  11  239.48   12.10
  -1   3  11  233.88   13.30
   1   3 -11  240.28   11.70
   0  -3  11   18.80    2.70
   0  -3  11   23.20    4.80
   0   3 -11   26.90    3.10
   0   3  11   18.70    4.10
   1  -3  11   40.10    5.90
  -1   3 -11   28.70    3.30
   1   3  11   29.30    5.10
   2  -3  11   53.09    6.70
  -2   3 -11   44.40    3.60
   2   3  11   40.70    5.90
  -2   3 -11   38.20    4.50
   3  -3  11   -0.90    3.70
  -3   3 -11   -3.30    1.80
   3   3  11    9.50    4.50
  -3   3 -11    9.30    3.30
   4  -3  11   15.10    5.40
  -4   3 -11    3.20    4.30
  -4   3 -11    5.50    2.30
   4   3  11   11.10    4.80
   5  -3  11    1.10    4.50
   5   3  11    0.50    4.50
  -5   3 -11    1.40    3.50
   6  -3  11   -8.40    5.00
  -6   3 -11   -2.80    3.60
   6   3  11    0.90    4.70
 -11  -4  11   13.30    5.50
 -11   4  11    0.80    4.20
 -11   4  11   10.00    6.30
 -10  -4  11   13.00    5.10
 -10  -4  11   10.50    5.60
 -10   4  11    5.90    3.80
 -10   4  11    9.60    4.10
  -9  -4  11    2.10    3.30
  -9  -4  11    6.40    4.50
  -9  -4  11   -0.30    4.40
  -9   4  11    1.80    3.00
  -9   4  11    1.90    2.60
  -9   4  11    3.70    3.70
  -8  -4  11   37.10    5.80
  -8  -4  11   34.70    5.20
  -8  -4  11   22.90    5.40
  -8   4  11   42.60    5.60
  -8   4  11   33.10    4.40
  -8   4  11   37.90    4.40
  -7  -4  11    0.50    3.20
  -7  -4  11    7.10    3.70
  -7  -4  11    5.80    3.40
  -7   4  11    1.80    2.60
  -7   4  11    4.30    2.10
  -7   4  11    6.90    2.80
  -6  -4  11   24.80    5.40
  -6  -4  11   21.80    4.40
  -6  -4  11   26.90    4.40
  -6   4  11   22.60    3.20
  -6   4  11   30.10    4.30
  -6   4  11   25.90    3.70
  -6   4  11   22.10    4.20
  -5  -4  11    2.70    2.90
  -5  -4  11    4.40    2.90
  -5   4  11    5.10    2.80
  -5   4  11   -1.40    2.70
  -5   4  11    5.00    2.40
  -4  -4  11    0.00    2.10
  -4  -4  11   -0.70    2.70
  -4   4  11   -3.10    2.20
  -4   4  11    1.10    1.50
  -4   4  11    3.00    2.20
   4   4 -11    2.70    3.20
  -3  -4  11   10.10    3.10
  -3  -4  11   14.40    3.80
   3   4 -11    9.40    3.00
  -3   4  11    8.00    2.80
  -3   4  11    9.30    2.90
  -3   4  11    4.70    1.40
  -2  -4  11   25.80    4.00
  -2  -4  11   32.30    5.10
  -2   4  11   34.30    4.60
   2   4 -11   29.80    3.80
  -1  -4  11   17.40    3.30
  -1  -4  11   17.30    4.30
  -1   4  11   14.80    3.40
   1   4 -11   20.30    3.00
   0  -4  11   24.40    4.90
   0  -4  11   18.10    3.10
   0   4  11   24.90    4.30
   0   4 -11   18.30    3.10
   1  -4  11   12.60    4.50
  -1   4 -11   13.20    3.10
   1   4  11   12.70    3.90
   2  -4  11   16.40    4.60
   2   4  11   22.10    4.20
  -2   4 -11   27.80    4.10
   3  -4  11   -5.10    3.70
  -3   4 -11    2.70    2.30
   3   4  11    4.40    4.30
  -3   4 -11    0.20    4.10
   4  -4  11   58.89    7.10
  -4   4 -11   54.69    5.20
   4   4  11   43.10    6.50
   5  -4  11  -10.80    4.50
   5   4  11   -1.20    4.80
  -5   4 -11   -5.80    2.90
  -5   4 -11  -16.70    9.00
   6  -4  11    4.50    6.10
   6   4  11   16.30    5.70
  -6   4 -11    3.90    5.80
 -11  -5  11   37.20    7.90
 -11   5  11   16.00    6.00
 -10  -5  11   22.80    5.80
 -10  -5  11    7.80    5.10
 -10  -5  11   12.40    5.20
 -10   5  11    4.50    3.80
 -10   5  11    8.00    3.80
  -9  -5  11   88.79    9.70
  -9  -5  11   73.69    8.60
  -9  -5  11   93.59    8.70
  -9   5  11   92.19    6.60
  -9   5  11  103.29    6.60
  -9   5  11   98.69    8.40
  -8  -5  11    3.40    3.50
  -8  -5  11    3.60    3.90
  -8  -5  11   -5.50    3.90
  -8   5  11   -2.70    2.80
  -8   5  11   -1.50    2.10
  -8   5  11    2.30    2.60
  -7  -5  11  212.98   13.30
  -7  -5  11  221.08   14.10
  -7  -5  11  223.48   13.70
  -7   5  11  218.58   11.30
  -7   5  11  202.68   11.10
  -7   5  11  222.08   12.60
  -6  -5  11   27.60    4.90
  -6  -5  11   28.70    5.20
  -6  -5  11   30.90    5.60
  -6   5  11   35.10    4.00
  -6   5  11   15.90    4.60
  -6   5  11   30.40    4.30
  -5  -5  11   11.20    4.00
  -5  -5  11    7.40    3.40
  -5   5  11   15.70    3.20
  -5   5  11   16.00    4.00
  -5   5  11   14.40    3.10
  -4  -5  11    2.50    3.00
  -4  -5  11   -0.20    2.90
  -4  -5  11   -0.20    3.00
  -4   5  11   -0.90    1.70
  -4   5  11    2.00    2.60
  -4   5  11   -2.10    2.20
  -3  -5  11   93.59    7.50
  -3  -5  11   96.39    8.00
  -3   5  11  101.89    6.80
   3   5 -11   91.99    6.90
  -3   5  11   88.89    5.90
  -2  -5  11   32.60    4.40
  -2  -5  11   19.10    4.20
   2   5 -11   21.20    6.40
  -2   5  11   27.40    4.20
  -1  -5  11    4.40    3.00
  -1  -5  11    4.10    3.20
   1   5 -11    2.70    2.90
  -1   5  11    2.00    2.80
   0  -5  11   64.19    5.60
   0  -5  11   80.29   13.40
   0   5  11   63.69    6.10
   0   5 -11   56.49    5.60
   1  -5  11   47.80    5.10
   1   5  11   55.59    6.10
  -1   5 -11   54.79    5.60
   2  -5  11   -9.50    5.40
   2   5  11    0.10    3.50
  -2   5 -11   -1.00    3.60
  -3   5 -11    2.40    4.60
  -3   5 -11    3.40    2.60
   3   5  11   -2.40    3.70
   4  -5  11    1.50    5.80
  -4   5 -11    0.50    5.60
  -4   5 -11    3.40    2.80
   4   5  11    3.60    4.20
   5  -5  11   -5.20    4.30
   5   5  11    1.00    4.50
  -5   5 -11   -1.70    3.60
  -6   5 -11    0.90    3.90
 -11  -6  11    7.10    5.70
 -11   6  11   21.00    6.00
 -11   6  11    9.20    4.00
 -10  -6  11   11.90    6.20
 -10  -6  11   16.50    5.50
 -10   6  11    3.70    3.30
 -10   6  11   16.00    5.00
  -9  -6  11   32.80    5.50
  -9  -6  11   36.60    6.80
  -9  -6  11   20.70    6.30
  -9   6  11   35.40    5.70
  -9   6  11   25.90    3.90
  -9   6  11   29.40    4.10
  -8  -6  11   23.30    5.90
  -8  -6  11   25.40    5.50
  -8  -6  11   28.50    5.60
  -8   6  11   27.50    4.10
  -8   6  11   17.10    4.20
  -8   6  11   21.00    3.20
  -7  -6  11    3.90    3.70
  -7  -6  11    3.50    3.80
  -7  -6  11    7.70    4.00
  -7   6  11   10.50    3.50
  -7   6  11    1.60    2.30
  -7   6  11    7.30    2.30
  -6  -6  11    9.70    4.10
  -6  -6  11   17.80    4.30
  -6  -6  11   11.90    4.40
  -6   6  11   14.50    2.40
  -6   6  11   16.30    3.60
  -5  -6  11    7.70    3.70
  -5  -6  11    6.50    3.60
  -5  -6  11    4.40    3.50
  -5   6  11    7.30    2.40
  -5   6  11   -2.40    3.30
  -5   6  11    6.70    2.60
  -4  -6  11   -3.40    3.30
  -4  -6  11    5.00    3.00
  -4  -6  11    0.80    2.60
  -4   6  11    1.60    1.80
  -4   6  11    7.00    2.60
  -4   6  11   -0.70    2.40
  -3  -6  11    8.80    3.10
  -3  -6  11    4.00    2.80
  -3   6  11    7.90    2.10
  -3   6  11   -0.40    1.50
  -3   6  11    4.70    2.40
  -2  -6  11    5.40    3.40
  -2  -6  11    5.50    3.00
   2   6 -11    0.90    3.00
  -2   6  11    2.70    2.40
  -1  -6  11    9.60    3.50
  -1   6  11    8.10    3.50
   1   6 -11   12.20    3.30
   0  -6  11   11.70    4.00
   0  -6  11   15.20    3.70
   0   6 -11    5.10    3.40
   0   6  11   10.40    3.30
   1  -6  11    4.90    3.70
   1  -6  11    4.60    3.00
  -1   6 -11    5.80    3.70
   1   6  11    7.60    3.40
   2  -6  11   17.10    4.70
   2   6  11   21.70    4.80
  -2   6 -11   19.00    5.30
   3  -6  11    3.70    4.40
  -3   6 -11    3.90    3.20
   3   6  11    4.70    4.40
   4  -6  11   41.20    6.90
  -4   6 -11   65.29    6.30
   4   6  11   46.60    6.70
   5  -6  11   18.30    6.70
  -5   6 -11   24.10    5.10
   5   6  11   15.90    5.40
 -10  -7  11   86.99   10.00
 -10  -7  11   90.69    9.80
 -10   7  11   83.49    8.70
 -10   7  11   76.69    6.10
 -10   7  11   92.99    6.20
  -9  -7  11   30.20    6.50
  -9  -7  11   50.49    7.30
  -9  -7  11   51.39    8.90
  -9   7  11   45.40    6.90
  -9   7  11   40.80    4.30
  -8  -7  11   76.29    8.80
  -8  -7  11   85.49    8.60
  -8  -7  11   92.19    9.30
  -8   7  11   85.19    7.70
  -8   7  11   74.99    5.40
  -8   7  11   83.89    5.50
  -7  -7  11   45.90    6.80
  -7  -7  11   61.09    8.40
  -7  -7  11   45.90    6.80
  -7   7  11   46.00    3.90
  -7   7  11   48.70    4.20
  -7   7  11   46.30    5.50
  -6  -7  11   35.90    5.80
  -6  -7  11   46.20    6.60
  -6  -7  11   70.29    7.60
  -6   7  11   48.80    4.10
  -6   7  11   50.19    5.20
  -5  -7  11    0.20    3.30
  -5  -7  11    6.60    3.80
  -5  -7  11   -2.20    3.30
  -5   7  11    2.80    2.40
  -5   7  11   -3.80    3.10
  -5   7  11    2.90    2.20
  -4  -7  11   17.70    4.10
  -4  -7  11   24.60    4.90
  -4  -7  11   36.00    5.30
  -4   7  11   26.60    3.40
  -4   7  11   25.80    3.60
  -4   7  11   26.30    4.30
  -3  -7  11   10.00    3.90
  -3  -7  11   20.80    5.00
  -3   7  11   20.80    3.20
  -3   7  11   16.00    3.30
  -3   7  11   16.50    2.40
  -2  -7  11   38.40    6.40
  -2  -7  11   38.60    5.50
  -2   7  11   43.40    2.70
  -2   7  11   37.10    2.50
  -2   7  11   40.90    4.90
  -1  -7  11   -0.30    3.10
  -1  -7  11   -5.00    3.00
  -1   7  11    0.30    2.60
   0  -7  11   18.60    3.90
   0  -7  11   15.70    4.30
   0   7  11   19.30    3.90
   1  -7  11   14.50    4.80
   1  -7  11   17.90    4.30
   1   7  11   13.80    4.00
   2  -7  11   42.10    6.30
   2  -7  11   51.89    5.90
   2   7  11   28.50    5.50
   3  -7  11    6.50    4.20
   3   7  11    3.00    4.00
   4  -7  11   -1.00    4.40
   4   7  11    4.20    4.30
  -4   7 -11   -3.50    3.80
   5  -7  11    0.40    5.30
  -5   7 -11   -3.00    3.90
   5   7  11   -1.40    5.30
 -10  -8  11    5.00    4.70
 -10  -8  11    9.40    5.60
 -10   8  11    2.10    2.60
 -10   8  11   12.60    5.90
 -10   8  11    0.30    2.20
  -9  -8  11   36.00    6.60
  -9   8  11   23.00    3.10
  -9   8  11   28.90    5.60
  -9   8  11   32.00    3.70
  -8  -8  11   -1.50    3.50
  -8  -8  11    0.40    5.90
  -8  -8  11    0.50    4.60
  -8   8  11    4.90    2.00
  -8   8  11    1.90    3.30
  -8   8  11    3.00    1.80
  -7  -8  11    6.00    4.20
  -7  -8  11   17.00    4.90
  -7  -8  11   -0.40    4.90
  -7   8  11    3.20    3.00
  -7   8  11    6.60    2.00
  -7   8  11    4.60    1.90
  -6  -8  11    1.40    3.40
  -6  -8  11   -1.90    3.60
  -6  -8  11   -5.80    4.50
  -6   8  11    3.50    1.60
  -6   8  11    0.90    3.10
  -5  -8  11   11.80    4.20
  -5  -8  11   19.90    5.00
  -5   8  11   17.20    4.40
  -5   8  11   16.90    2.90
  -5   8  11   10.80    3.30
  -4  -8  11    1.80    3.20
  -4  -8  11   -2.20    2.60
  -4  -8  11    9.20    4.10
  -4   8  11    0.40    3.20
  -4   8  11    1.40    2.30
  -4   8  11   -0.20    2.20
  -3  -8  11   11.80    4.10
  -3  -8  11    2.80    3.60
  -3  -8  11   13.10    4.20
  -3   8  11   11.40    2.20
  -3   8  11    8.20    3.10
  -3   8  11    9.10    2.80
  -2  -8  11    3.60    3.10
  -2   8  11   -1.20    1.90
  -2   8  11    2.00    2.50
  -1  -8  11    5.40    3.40
  -1  -8  11    3.30    3.40
  -1   8  11    3.70    3.00
   0  -8  11   26.60    5.20
   0  -8  11   27.00    6.20
   0   8  11   32.00    4.90
   1  -8  11   34.20    5.40
   1  -8  11   25.80    5.40
   1   8  11   30.40    4.60
   2  -8  11    1.80    3.80
   2  -8  11    5.30    3.90
   2   8  11    3.20    4.40
   3  -8  11   46.10    7.30
   3   8  11   43.70    6.20
   4  -8  11   -1.20    4.70
  -4   8 -11    2.50    3.80
   4   8  11    3.70    5.00
   5  -8  11   17.50    6.20
  -5   8 -11   18.10    5.10
  -9  -9  11   16.50    5.90
  -9  -9  11    3.70    4.40
  -9   9  11   12.10    5.10
  -8  -9  11   25.50    9.20
  -8  -9  11   62.19    8.40
  -8  -9  11   44.30    7.50
  -8   9  11   53.79    6.50
  -7  -9  11   11.70    4.60
  -7  -9  11   14.50    5.10
  -7  -9  11    7.30    4.80
  -7   9  11   -0.10    3.30
  -6  -9  11   99.89    9.20
  -6  -9  11   55.29    7.20
  -6  -9  11   83.99    8.20
  -6   9  11   78.49    4.90
  -6   9  11   77.29    6.60
  -5  -9  11    7.30    3.80
  -5  -9  11    7.70    4.50
  -5  -9  11    5.40    4.90
  -5   9  11    9.70    2.20
  -5   9  11   13.50    3.00
  -4  -9  11  153.28   11.30
  -4  -9  11  136.89   10.20
  -4   9  11  112.09    8.60
  -4   9  11  135.79    8.00
  -4   9  11  123.29    7.60
  -3  -9  11   14.80    4.90
  -3  -9  11   11.80    4.00
  -3   9  11   11.70    3.40
  -3   9  11   17.20    2.70
  -3   9  11   15.40    3.30
  -2  -9  11   16.10    5.50
  -2  -9  11   17.20    4.30
  -2   9  11   20.00    3.40
  -2   9  11   21.10    2.50
  -2   9  11   14.30    2.90
  -1  -9  11   -1.30    3.40
  -1  -9  11    6.90    4.00
  -1   9  11   -0.40    1.20
  -1   9  11    6.50    2.60
  -1   9  11    1.20    3.00
   0  -9  11   -2.70    3.10
   0  -9  11   -3.20    3.70
   0   9  11   -0.20    3.40
   1  -9  11   13.90    4.30
   1  -9  11   15.00    5.00
   1   9  11   18.10    4.30
   2  -9  11   13.10    4.90
   2  -9  11   18.00    5.20
   2   9  11   19.20    5.30
   3  -9  11    4.00    5.00
   3   9  11   -0.10    3.90
   4  -9  11    2.10    5.40
   4   9  11   -4.00    4.70
  -9 -10  11   10.30    5.60
  -9 -10  11   10.60    5.70
  -9  10  11   11.50    4.30
  -8 -10  11   10.80    5.60
  -8 -10  11    7.20    4.60
  -8  10  11    3.00    3.50
  -7 -10  11   10.30    4.80
  -7 -10  11    1.20    4.60
  -7  10  11   -0.50    2.90
  -6 -10  11    2.60    3.90
  -6 -10  11    7.60    4.80
  -6  10  11    5.90    2.90
  -5 -10  11    2.80    4.60
  -5 -10  11    9.40    4.70
  -5  10  11    3.70    1.90
  -4 -10  11   18.00    4.50
  -4 -10  11   19.30    4.80
  -4  10  11   16.50    2.70
  -4  10  11   20.10    3.50
  -4  10  11   12.00    4.20
  -3 -10  11    3.70    4.40
  -3 -10  11    4.80    3.60
  -3  10  11   -2.00    2.80
  -3  10  11    1.70    3.50
  -3  10  11    0.10    2.40
  -2 -10  11   16.80    4.40
  -2 -10  11   18.10    5.10
  -2  10  11   12.60    2.70
  -2  10  11   15.10    3.30
  -2  10  11   11.70    3.30
  -1 -10  11   53.49    7.60
  -1 -10  11   63.99    7.10
  -1  10  11   65.79    4.30
  -1  10  11   69.79    6.30
  -1  10  11   45.50    4.50
   0 -10  11   13.80    4.90
   0 -10  11   20.60    4.30
   0  10  11   13.20    2.90
   0  10  11   16.70    2.10
   0  10  11   22.50    4.50
   1 -10  11   20.60    5.50
   1 -10  11   19.00    5.00
   2 -10  11   14.30    4.80
   2 -10  11   13.10    4.90
   2  10  11   13.60    4.90
   3 -10  11   28.90    6.50
   3  10  11   29.10    6.30
  -8 -11  11    7.30    6.00
  -8 -11  11   18.60    4.70
  -8  11  11   13.90    4.40
  -7 -11  11   51.59    8.60
  -7  11  11   56.89    6.60
  -6 -11  11    9.70    5.10
  -6 -11  11   13.90    5.20
  -6  11  11   13.90    3.90
  -5 -11  11   50.19    8.20
  -5 -11  11   39.90    6.90
  -5  11  11   50.39    5.90
  -4 -11  11   -2.50    3.70
  -4 -11  11    1.80    4.40
  -4  11  11   -3.10    2.70
  -4  11  11    3.20    2.00
  -3 -11  11   83.99    9.20
  -3 -11  11   61.99   11.20
  -3  11  11   66.59    6.80
  -3  11  11   71.09    5.70
  -3  11  11   53.79    5.30
  -2 -11  11   50.19    7.60
  -2 -11  11   42.60    6.70
  -2  11  11   31.40    4.20
  -2  11  11   41.50    4.60
  -2  11  11   43.80    4.90
  -1 -11  11    3.20    4.80
  -1 -11  11    4.80    4.10
  -1  11  11    1.00    2.10
  -1  11  11    2.40    2.70
   0 -11  11   87.49    9.00
   0 -11  11   80.29    8.10
   0  11  11   71.29    6.80
   0  11  11   59.69    5.10
   1 -11  11    2.40    4.20
   1 -11  11   -1.20    3.90
   1  11  11    5.00    3.80
   1  11  11   -2.30    3.00
   2 -11  11   -3.30    3.90
   2 -11  11    1.10    4.10
   2  11  11   -1.00    4.00
   3 -11  11   12.60    5.00
   3 -11  11   18.40    6.20
   3  11  11    7.40    4.70
  -7 -12  11   -4.20    4.90
  -7 -12  11   -1.70    4.50
  -7  12  11    1.40    3.40
  -6 -12  11    9.60    5.00
  -6  12  11    2.50    3.50
  -5 -12  11    4.80    4.80
  -5 -12  11   -3.30    3.50
  -5  12  11    1.40    3.10
  -4 -12  11    6.90    4.00
  -4 -12  11    5.90    5.60
  -4  12  11    3.40    3.10
  -3 -12  11   -2.10    3.60
  -3 -12  11   -2.20    7.20
  -3  12  11    0.00    3.50
  -3  12  11   -4.80    2.70
  -2 -12  11    9.50    4.60
  -2  12  11    6.90    4.30
  -2  12  11   15.10    3.70
  -2  12  11   13.60    3.50
  -1 -12  11    4.60    4.90
  -1 -12  11   -4.50    3.70
  -1  12  11    1.90    3.00
   0 -12  11   17.50    5.50
   0 -12  11   10.10    4.70
   0  12  11   16.70    4.40
   1 -12  11   -1.00    4.30
   1 -12  11    1.10    4.70
   1  12  11   -3.60    3.70
   2 -12  11   22.40    5.70
   2 -12  11   12.30    5.40
   2  12  11   10.30    4.60
  -6 -13  11    3.90    4.90
  -6 -13  11   -2.10    5.00
  -6  13  11   -7.80    3.30
  -5 -13  11   36.40    6.20
  -5 -13  11   34.40    8.30
  -5  13  11   43.00    5.80
  -4 -13  11    8.80    7.70
  -4 -13  11   13.40    5.10
  -4  13  11   13.80    3.80
  -4  13  11    5.40    2.40
  -3 -13  11   15.10    5.60
  -3 -13  11    3.90    4.50
  -3  13  11    9.80    3.10
  -3  13  11   14.80    3.90
  -2 -13  11   -2.90    4.20
  -2 -13  11    6.20    4.50
  -2  13  11   10.70    3.70
  -2  13  11    8.40    3.50
  -1 -13  11   23.30    5.40
  -1 -13  11   34.90    7.80
  -1  13  11   26.30    4.90
   0 -13  11    3.60    4.50
   0 -13  11    4.40    4.70
   0  13  11    3.60    3.20
   1 -13  11   41.50    7.30
   1 -13  11   32.10    6.10
   1  13  11   32.60    6.00
  -4 -14  11    0.90    5.00
  -4 -14  11    1.50    4.80
  -4  14  11    0.60    2.00
  -4  14  11   -7.80    3.70
  -3 -14  11   -0.20    5.10
  -3 -14  11    1.00    4.40
  -3  14  11    3.60    2.60
  -3  14  11   -4.10    3.50
  -2 -14  11    7.20    5.00
  -2 -14  11    7.00    5.00
  -2  14  11    4.00    3.20
  -1 -14  11    1.80    5.10
  -1 -14  11    8.10    5.40
  -1  14  11   10.20    3.70
 -11   0  12    1.60    5.80
 -11   0  12    1.60    4.10
 -10   0  12   17.80    4.50
 -10   0  12    6.80    4.20
 -10   0  12    7.00    4.30
  -9   0  12   -2.30    5.50
  -9   0  12   -0.60    3.90
  -9   0  12    1.50    3.20
  -8   0  12   -2.50    2.90
  -8   0  12    8.40    3.70
  -8   0  12    6.50    3.20
  -7   0  12   -7.00    3.30
  -7   0  12   -0.80    2.80
  -7   0  12    0.40    2.50
  -6   0  12   90.09    7.20
  -6   0  12  102.39    7.50
   6   0 -12   84.09    7.90
  -6   0  12   86.79    6.80
  -5   0  12   -1.30    2.40
   5   0 -12    1.90    3.00
  -5   0  12   -2.80    2.50
   4   0 -12   13.20    2.60
  -4   0  12   13.70    2.50
  -4   0  12   10.60    3.50
  -3   0  12    0.60    2.00
  -3   0  12   -1.30    2.50
  -2   0  12   21.60    4.40
  -1   0  12   -1.30    3.40
   0   0  12   60.99    6.70
   1   0  12    6.30    3.60
   2   0  12   54.09    7.00
   3   0  12    6.10    4.10
   4   0  12   53.29    7.60
   5   0  12  -14.70    4.70
 -11  -1  12   17.80    6.60
 -11  -1  12   27.90    5.20
 -11  -1  12   10.50    5.00
 -11   1  12    9.90    4.20
 -11   1  12   22.70    8.90
 -10  -1  12   22.10    5.10
 -10  -1  12   25.40    4.70
 -10  -1  12   22.60    5.50
 -10   1  12   25.10    4.90
 -10   1  12    7.50    4.60
 -10   1  12   19.20    5.50
  -9  -1  12   29.30    5.00
  -9  -1  12   28.90    5.10
  -9  -1  12   25.90    5.60
  -9   1  12   18.80    4.20
  -9   1  12   32.20    5.50
  -9   1  12   26.20    5.30
  -8  -1  12    5.60    3.90
  -8  -1  12    1.90    2.70
  -8  -1  12    1.50    3.20
  -8   1  12    8.00    3.30
  -8   1  12    7.60    2.90
  -8   1  12    3.40    3.50
  -7  -1  12   94.09    7.60
  -7  -1  12   79.69    7.20
  -7  -1  12   91.29    7.90
  -7   1  12   79.09    7.00
  -7   1  12   89.59    8.70
  -7   1  12  103.79    7.40
  -6  -1  12   28.70    5.00
  -6  -1  12   23.70    4.40
  -6  -1  12   23.70    4.20
  -6   1  12   30.60    4.60
  -6   1  12   27.20    4.40
  -5  -1  12   73.19    6.50
  -5  -1  12   66.59    6.00
  -5   1  12   72.79    6.40
   5   1 -12   54.19    5.80
  -5   1  12   62.29    5.50
  -4  -1  12   -2.20    2.50
  -4  -1  12    3.40    2.10
  -4   1  12    1.70    1.80
  -4   1  12    1.80    3.10
   4   1 -12   -2.70    2.20
  -3  -1  12   14.40    3.60
  -3  -1  12   20.90    2.70
  -3   1  12   19.10    2.20
   3   1 -12   15.80    2.40
  -3   1  12   17.90    4.10
  -3   1  12   14.60    2.20
  -2  -1  12   27.00    2.50
  -2  -1  12   27.90    4.70
  -2   1  12   23.80    4.30
  -1  -1  12   55.49    6.40
  -1   1  12   55.89    6.20
   0  -1  12    8.10    4.00
   0   1  12   -0.20    3.30
   1  -1  12   44.30    6.10
   1   1  12   37.70    6.00
   2  -1  12   24.90    5.60
   2   1  12   18.60    5.10
   3  -1  12   14.30    5.00
   3   1  12   12.00    4.40
   4  -1  12   -2.90    4.70
   4   1  12    2.80    4.50
   5  -1  12   -0.80    5.40
   5   1  12   10.90    4.90
 -11  -2  12    8.70    4.90
 -11  -2  12   10.40    4.00
 -11   2  12   11.40    4.90
 -11   2  12    9.60    7.90
 -10  -2  12   23.70    5.00
 -10  -2  12   16.80    5.40
 -10  -2  12   11.60    5.00
 -10   2  12   19.90    5.10
 -10   2  12   27.80    4.30
 -10   2  12   12.30    4.10
  -9  -2  12   13.00    4.60
  -9  -2  12   17.40    4.30
  -9  -2  12   16.30    4.60
  -9   2  12   14.30    4.50
  -9   2  12   12.30    3.70
  -8  -2  12    2.50    3.30
  -8  -2  12    3.90    2.90
  -8  -2  12    3.80    3.80
  -8   2  12    2.10    2.80
  -8   2  12    9.90    3.80
  -8   2  12   -1.50    2.80
  -7  -2  12    9.90    4.20
  -7  -2  12   12.50    3.70
  -7  -2  12   10.20    3.70
  -7   2  12    4.10    3.00
  -7   2  12   11.60    6.50
  -7   2  12   11.70    3.40
  -6  -2  12   13.90    3.80
  -6  -2  12   19.40    4.10
  -6  -2  12   10.50    3.50
  -6   2  12   14.70    3.20
  -6   2  12   12.00    3.20
  -6   2  12   12.60    3.20
  -5  -2  12   22.00    3.90
  -5  -2  12   16.00    4.00
  -5   2  12   22.50    3.40
   5   2 -12   20.10    3.60
  -5   2  12   17.60    3.70
  -4  -2  12    2.10    3.10
  -4  -2  12   -0.30    2.40
  -4   2  12    1.90    2.40
  -4   2  12    3.00    1.90
  -4   2  12    4.70    2.90
   4   2 -12    3.90    2.50
  -3  -2  12   16.10    2.80
  -3  -2  12   17.80    4.40
  -3   2  12   24.20    4.10
   3   2 -12   17.80    2.80
  -2  -2  12   -0.70    1.90
  -2  -2  12    0.50    2.90
   2   2 -12    2.60    1.80
  -2   2  12    0.70    3.00
  -1  -2  12    9.50    3.70
   1   2 -12   11.00    1.50
  -1   2  12   10.50    3.40
   0  -2  12   41.40    5.80
   0   2  12   36.50    5.50
   1  -2  12   50.49    7.00
   1   2  12   47.10    6.50
   2  -2  12   15.30    4.60
   2   2  12    8.60    4.50
   3  -2  12   17.10    5.10
   3   2  12    8.10    3.80
   4  -2  12   -8.90    4.70
   4   2  12   -2.30    4.70
  -4   2 -12   -2.00    2.30
  -4   2 -12   -5.90    4.90
   5  -2  12   20.70    6.20
  -5   2 -12   10.30    3.10
   5   2  12   10.80    5.80
 -11  -3  12   -1.00    4.70
 -11  -3  12   11.40    4.60
 -11   3  12   10.10    5.80
 -11   3  12   -1.10    4.40
 -10  -3  12   29.30    6.20
 -10  -3  12   30.40    5.80
 -10  -3  12   19.10    6.00
 -10   3  12   27.60    6.10
 -10   3  12   16.90    4.50
 -10   3  12   18.80    4.30
  -9  -3  12   16.20    4.50
  -9  -3  12    8.80    4.70
  -9  -3  12   18.40    4.40
  -9   3  12   13.50    4.50
  -9   3  12   11.10    4.10
  -8  -3  12  104.69    9.10
  -8  -3  12  112.29    9.10
  -8  -3  12  102.29    9.40
  -8   3  12  113.99    8.70
  -8   3  12  114.19    7.80
  -8   3  12  113.99    7.90
  -7  -3  12   27.00    5.10
  -7  -3  12   18.50    4.90
  -7  -3  12   23.00    4.60
  -7   3  12   19.90    3.70
  -7   3  12   23.80    3.60
  -7   3  12   34.30    8.50
  -6  -3  12   48.00    6.20
  -6  -3  12   55.59    6.30
  -6  -3  12   46.40    7.30
  -6   3  12   50.49    5.20
  -6   3  12   50.29    5.10
  -6   3  12   37.50    5.40
  -5  -3  12  235.58   13.90
  -5  -3  12  242.98   13.70
  -5  -3  12  237.28   13.50
  -5   3  12  250.07   12.50
  -5   3  12  216.08   12.70
   5   3 -12  223.38   13.30
  -5   3  12  250.27   12.80
  -4  -3  12   36.90    4.80
  -4  -3  12   37.30    5.30
   4   3 -12   32.40    5.30
  -4   3  12   33.30    4.00
  -4   3  12   38.20    3.50
  -4   3  12   32.70    4.30
  -3  -3  12   12.10    3.70
  -3  -3  12   14.90    3.10
   3   3 -12   15.20    3.10
  -3   3  12   17.40    3.70
  -2  -3  12   75.49    7.20
  -2  -3  12   67.39    5.20
  -2   3  12   69.69    6.40
   2   3 -12   68.89    5.30
  -1  -3  12    2.20    1.90
  -1  -3  12    5.10    3.70
   1   3 -12   -4.60    1.80
  -1   3  12   -1.10    2.30
   0  -3  12   -1.00    3.80
   0   3  12    4.30    3.00
   0   3 -12    1.30    1.90
   1  -3  12    1.20    4.00
   1   3  12    2.40    3.70
  -1   3 -12    2.90    1.50
   2  -3  12   31.20    5.90
  -2   3 -12   26.30    3.50
  -2   3 -12   21.70    3.70
   2   3  12   17.20    5.00
   3  -3  12    5.20    4.90
  -3   3 -12    1.90    3.20
   3   3  12   -0.60    4.20
  -3   3 -12    1.70    2.30
   4  -3  12   12.00    5.20
  -4   3 -12    5.80    2.70
  -4   3 -12    9.30    5.00
   4   3  12   15.60    5.20
   5  -3  12    9.60    5.70
   5   3  12    3.10    5.30
 -11  -4  12   57.89    8.70
 -11  -4  12   30.30    6.10
 -11   4  12   26.30    4.50
 -11   4  12   34.40    5.50
 -11   4  12   24.60    7.20
 -10  -4  12    4.00    6.90
 -10  -4  12    9.60    5.10
 -10  -4  12    3.90    4.50
 -10   4  12   -6.00    3.60
 -10   4  12    0.30    3.50
 -10   4  12    0.70    3.00
  -9  -4  12   32.70    5.40
  -9  -4  12   29.00    6.50
  -9  -4  12   21.90    5.50
  -9   4  12   33.80    6.20
  -9   4  12   33.30    4.80
  -9   4  12   33.20    4.60
  -8  -4  12    6.10    3.40
  -8  -4  12    7.20    4.30
  -8  -4  12    0.00    4.30
  -8   4  12    1.90    2.80
  -8   4  12    2.50    2.70
  -8   4  12    2.40    3.10
  -7  -4  12   23.00    5.10
  -7  -4  12   29.00    5.40
  -7   4  12   26.10    3.80
  -7   4  12   21.50    3.90
  -7   4  12   26.60    5.50
  -6  -4  12    5.30    2.60
  -6  -4  12    4.40    3.20
  -6  -4  12    2.70    3.70
  -6   4  12   -3.80    3.60
  -6   4  12    1.20    2.70
  -6   4  12    1.20    2.20
  -5  -4  12   27.00    4.70
  -5  -4  12   21.10    4.10
  -5  -4  12   18.30    4.50
  -5   4  12   16.20    2.90
  -5   4  12   14.50    3.70
  -5   4  12   22.40    3.80
  -4  -4  12    5.50    3.20
  -4  -4  12    1.10    3.10
  -4   4  12    0.10    2.20
  -4   4  12    0.00    2.30
   4   4 -12    0.20    2.90
  -4   4  12   -0.40    1.60
  -3  -4  12    5.70    2.90
  -3  -4  12   12.10    3.90
   3   4 -12   -2.50    3.90
  -3   4  12    5.30    2.70
  -2  -4  12    8.00    2.50
  -2  -4  12    6.60    3.90
  -2   4  12    6.10    3.20
   2   4 -12    3.40    2.60
  -1  -4  12   19.60    3.30
  -1  -4  12   18.10    4.20
   1   4 -12   18.40    3.00
  -1   4  12   24.60    4.30
   0  -4  12   19.40    2.80
   0  -4  12   14.50    4.30
   0   4  12   22.50    4.50
   0   4 -12   15.90    3.00
   1  -4  12   25.70    5.90
  -1   4 -12   26.60    3.50
   1   4  12   22.40    4.90
   2  -4  12   10.00    4.60
   2   4  12    5.50    3.70
  -2   4 -12    6.10    3.40
  -2   4 -12    3.80    2.40
   3  -4  12   12.60    5.40
  -3   4 -12   11.70    4.10
  -3   4 -12   19.60    3.00
   3   4  12    8.60    4.80
   4  -4  12    9.40    4.90
  -4   4 -12   -0.60    2.60
   4   4  12   -3.20    4.30
   5  -4  12   31.10    7.10
   5   4  12   36.50    7.10
 -10  -5  12   39.00    6.60
 -10   5  12   26.80    4.00
 -10   5  12   27.00    5.50
  -9  -5  12   17.40    5.50
  -9  -5  12   -0.50    5.00
  -9  -5  12   12.80    4.80
  -9   5  12    8.10    3.60
  -9   5  12   11.30    3.40
  -9   5  12    3.30    2.90
  -8  -5  12  132.59   11.40
  -8  -5  12  152.88   11.40
  -8  -5  12  139.49   10.80
  -8   5  12  153.38    8.80
  -8   5  12  142.79    8.80
  -8   5  12  163.28   10.40
  -7  -5  12    4.40    3.80
  -7  -5  12    1.60    3.90
  -7  -5  12    5.00    4.50
  -7   5  12    8.80    2.60
  -7   5  12    7.20    3.10
  -7   5  12    1.90    2.20
  -6  -5  12  103.99    9.00
  -6  -5  12  112.39    9.00
  -6  -5  12  116.09    9.10
  -6   5  12   89.59    8.50
  -6   5  12  113.79    7.70
  -6   5  12  105.69    7.20
  -5  -5  12    0.40    3.80
  -5  -5  12    2.40    2.60
  -5  -5  12    3.70    3.60
  -5   5  12    8.00    2.20
  -5   5  12   -2.80    2.90
  -5   5  12    3.90    2.30
  -4  -5  12  182.98   11.40
  -4  -5  12  174.48   11.50
  -4   5  12  147.09    9.10
  -4   5  12  167.58    8.70
  -4   5  12  174.58   10.00
  -3  -5  12    6.10    3.10
  -3  -5  12    3.80    3.00
  -3   5  12    3.60    2.60
   3   5 -12    5.60    3.10
  -2  -5  12   16.60    3.50
  -2  -5  12   13.00    4.40
   2   5 -12   -1.30    5.30
  -2   5  12   14.00    3.70
  -1  -5  12    8.60    3.80
  -1  -5  12    7.80    3.20
   1   5 -12    7.80    3.10
  -1   5  12    8.50    3.70
   0  -5  12   38.20    6.30
   0  -5  12   35.80    4.70
   0   5  12   34.60    5.60
   0   5 -12   37.40    4.70
   1  -5  12    7.20    4.10
   1   5  12    2.90    3.90
  -1   5 -12    0.70    3.50
   2  -5  12   17.80    5.10
   2   5  12    8.50    4.10
  -2   5 -12   10.30    4.20
  -2   5 -12   18.90    3.50
   3  -5  12   -4.10    4.20
  -3   5 -12   -0.30    2.90
   3   5  12    0.10    4.00
   4  -5  12   17.00    5.80
   4   5  12   30.30    6.30
  -4   5 -12   28.00    4.30
 -10  -6  12   35.00    6.80
 -10  -6  12   44.10    8.10
 -10   6  12   31.10    4.70
 -10   6  12   24.50    5.50
 -10   6  12   50.09    5.00
  -9  -6  12   -2.10    7.90
  -9  -6  12   16.70    5.10
  -9  -6  12   18.30    5.90
  -9   6  12   13.70    3.30
  -9   6  12   15.20    3.40
  -9   6  12    7.40    4.00
  -8  -6  12   -5.90    5.00
  -8  -6  12    0.20    3.70
  -8  -6  12    8.50    4.00
  -8   6  12    5.10    2.50
  -8   6  12    0.90    3.70
  -8   6  12    6.30    3.40
  -7  -6  12   19.30    5.90
  -7  -6  12    6.80    3.50
  -7  -6  12    7.00    4.50
  -7   6  12   11.30    2.80
  -7   6  12   10.10    3.30
  -7   6  12    8.70    2.60
  -6  -6  12   12.70    3.80
  -6  -6  12    3.70    4.20
  -6  -6  12    9.70    4.30
  -6   6  12    6.40    2.70
  -6   6  12    6.10    2.60
  -5  -6  12   19.40    4.70
  -5  -6  12   30.00    5.30
  -5  -6  12   14.30    4.20
  -5   6  12   20.90    3.50
  -5   6  12   21.60    3.50
  -5   6  12    9.70    4.40
  -4  -6  12   19.60    4.70
  -4  -6  12   11.60    3.90
  -4   6  12   18.90    2.70
  -4   6  12   13.40    2.80
  -4   6  12    8.60    3.00
  -3  -6  12    3.10    3.50
  -3  -6  12    9.50    3.90
  -3   6  12    8.00    3.30
  -2  -6  12    7.70    3.50
  -2  -6  12    4.40    3.20
  -2   6  12    1.10    2.80
   2   6 -12    4.50    3.40
  -1  -6  12   -1.40    3.00
  -1  -6  12    1.80    3.30
  -1   6  12    1.80    3.10
   1   6 -12    2.20    3.50
   0  -6  12    1.50    3.20
   0  -6  12    5.80    3.80
   0   6 -12    2.10    3.60
   0   6  12    3.80    3.10
   1  -6  12    5.10    3.90
   1  -6  12    4.20    3.30
   1   6  12    1.60    3.80
  -1   6 -12   -2.40    4.00
   2  -6  12    5.90    5.10
  -2   6 -12    0.80    5.10
   2   6  12    4.30    4.00
   3  -6  12   13.60    5.40
   3   6  12   24.50    5.90
  -3   6 -12   18.40    9.10
  -3   6 -12   28.00    4.40
   4  -6  12   -3.00    5.10
   4   6  12    5.40    5.30
  -4   6 -12   -6.20    3.70
 -10  -7  12    4.50    5.50
 -10  -7  12   -2.50    4.60
 -10   7  12    5.60    4.60
 -10   7  12    0.50    2.50
 -10   7  12   -4.80    2.90
  -9  -7  12   79.59    9.50
  -9  -7  12   86.89    9.50
  -9   7  12   63.59    5.40
  -9   7  12   65.19    5.40
  -9   7  12   68.19    7.60
  -8  -7  12   29.10    5.60
  -8  -7  12   23.70    5.90
  -8  -7  12   18.90    5.80
  -8   7  12   18.50    4.50
  -8   7  12   17.00    2.80
  -7  -7  12   93.09    9.00
  -7  -7  12  105.59    9.60
  -7  -7  12   80.09    8.30
  -7   7  12   92.89    5.80
  -7   7  12   79.09    6.00
  -7   7  12   81.79    7.00
  -6  -7  12   18.70    5.00
  -6  -7  12    8.70    4.00
  -6  -7  12   13.30    4.90
  -6   7  12   13.60    2.80
  -6   7  12   16.80    3.50
  -5  -7  12  176.08   12.00
  -5  -7  12  186.98   12.40
  -5  -7  12  164.08   11.60
  -5   7  12  187.08    9.90
  -5   7  12  139.89   11.20
  -5   7  12  177.28    9.80
  -4  -7  12   43.50    6.50
  -4  -7  12   37.80    5.90
  -4   7  12   33.10    3.70
  -4   7  12   38.40    4.60
  -4   7  12   30.90    4.10
  -3  -7  12   11.40    4.00
  -3  -7  12   14.80    4.80
  -3   7  12   15.60    2.30
  -3   7  12   19.00    4.10
  -2  -7  12   12.00    4.30
  -2  -7  12    8.70    4.00
  -2   7  12    6.20    3.60
  -1  -7  12   61.09    6.70
  -1  -7  12   58.89    7.40
  -1   7  12   68.89    6.30
   0  -7  12   20.10    5.20
   0  -7  12   20.00    4.20
   0   7  12   10.40    3.80
   1  -7  12    0.20    3.40
   1  -7  12   24.80    5.60
   1   7  12   14.90    4.10
   2  -7  12    0.60    4.60
   2   7  12    1.40    4.50
   3  -7  12    3.90    4.70
   3   7  12   15.80    5.50
   4  -7  12   -3.10    5.40
   4   7  12   -7.60    4.50
  -4   7 -12    4.00    4.40
  -9  -8  12    0.50    4.30
  -9  -8  12   -0.60    4.70
  -9   8  12    1.00    3.50
  -9   8  12   -0.90    2.40
  -9   8  12    3.40    2.10
  -8  -8  12   19.60    5.80
  -8  -8  12   12.60    5.00
  -8   8  12   13.20    3.60
  -8   8  12   10.20    2.80
  -8   8  12   11.20    2.60
  -7  -8  12   -3.50    3.40
  -7  -8  12    8.60    5.10
  -7   8  12   -1.30    2.00
  -7   8  12   -2.60    2.90
  -7   8  12   -2.00    2.00
  -6  -8  12    0.10    6.20
  -6  -8  12   17.20    5.20
  -6  -8  12   12.50    4.10
  -6   8  12   10.10    3.00
  -6   8  12    9.80    4.60
  -5  -8  12   -7.40    3.60
  -5  -8  12    4.20    4.10
  -5  -8  12    3.50    3.60
  -5   8  12    4.00    2.70
  -5   8  12   -0.50    4.10
  -5   8  12   -0.70    2.40
  -4  -8  12    8.40    4.40
  -4  -8  12    0.70    3.90
  -4  -8  12   11.40    4.40
  -4   8  12    7.70    2.70
  -4   8  12   12.10    2.50
  -4   8  12    8.30    3.40
  -3  -8  12    1.20    3.30
  -3  -8  12   -0.10    3.40
  -3  -8  12    4.20    4.20
  -3   8  12    1.00    2.80
  -3   8  12    2.10    1.70
  -3   8  12    1.40    2.30
  -2  -8  12   30.20    5.60
  -2  -8  12   22.30    5.00
  -2   8  12   26.30    3.90
  -1  -8  12   13.60    4.60
  -1  -8  12    4.30    3.80
  -1   8  12    6.00    3.50
   0  -8  12    0.30    3.80
   0  -8  12   -6.10    3.50
   0   8  12    3.10    3.00
   1  -8  12    3.30    4.50
   1  -8  12    1.70    3.80
   2  -8  12   14.00    5.50
   2  -8  12   16.50    5.00
   2   8  12    6.30    4.60
   3  -8  12   13.70    5.20
   3   8  12   -0.30    4.60
  -9  -9  12   11.00    5.70
  -9  -9  12   10.50    4.80
  -8  -9  12   20.40    6.30
  -8  -9  12   24.90   11.20
  -8   9  12   21.60    5.00
  -7  -9  12   50.99    8.30
  -7  -9  12   45.00    7.30
  -7   9  12   42.30    3.80
  -7   9  12   62.59    6.40
  -6  -9  12    3.50    3.80
  -6  -9  12    2.50    4.20
  -6  -9  12   -7.40    5.80
  -6   9  12    4.60    3.10
  -6   9  12    6.70    2.70
  -5  -9  12   59.29    7.80
  -5  -9  12   77.29    8.50
  -5   9  12   58.09    5.10
  -5   9  12   68.29    5.70
  -5   9  12   54.09    7.50
  -4  -9  12   29.10    6.50
  -4  -9  12   28.30    5.40
  -4   9  12   30.80    4.00
  -4   9  12   10.40    4.50
  -4   9  12   24.30    3.90
  -3  -9  12   23.40    5.20
  -3  -9  12   22.90    5.60
  -3   9  12   23.20    3.50
  -3   9  12   23.70    2.90
  -3   9  12   20.40    4.10
  -2  -9  12   -3.10    3.60
  -2  -9  12    0.80    3.20
  -2   9  12    3.00    3.10
  -1  -9  12   74.79    8.10
  -1  -9  12   54.89    7.50
  -1   9  12   59.69    7.60
   0  -9  12    9.40    4.50
   0  -9  12   11.40    5.10
   0   9  12   12.90    5.10
   1  -9  12   22.00    5.80
   1  -9  12   23.50    5.50
   1   9  12   22.40    5.20
   2  -9  12   -1.30    7.60
   2  -9  12    8.90    4.30
   2   9  12   -3.90    4.20
   3   9  12    7.20    4.80
  -8 -10  12    3.40    5.30
  -8 -10  12   12.10    5.60
  -8  10  12   -3.80    3.60
  -7 -10  12   11.50    4.90
  -7 -10  12    4.80    5.80
  -7  10  12    9.00    3.80
  -6 -10  12    7.30    4.30
  -6 -10  12   -3.30    4.50
  -6  10  12    3.80    1.90
  -6  10  12   -1.50    2.90
  -5 -10  12    9.60    4.90
  -5 -10  12    3.90    3.70
  -5  10  12   -1.30    2.70
  -5  10  12    2.40    2.00
  -4 -10  12    1.40    4.30
  -4 -10  12    3.70    3.70
  -4  10  12   -3.50    3.60
  -4  10  12   -0.10    2.60
  -4  10  12    6.10    2.90
  -3 -10  12   17.20    5.40
  -3 -10  12   18.80    5.00
  -3  10  12    4.50    3.00
  -3  10  12   16.20    2.90
  -2 -10  12    2.70    3.70
  -2 -10  12    7.80    4.50
  -2  10  12    0.80    3.50
  -2  10  12   -0.10    2.40
  -2  10  12   -1.40    1.80
  -1 -10  12    0.80    3.90
  -1 -10  12    0.80    4.30
  -1  10  12    3.30    3.20
   0 -10  12   16.50    5.80
   0 -10  12   20.20    5.50
   0  10  12   17.20    4.50
   1 -10  12    1.20    4.20
   1  10  12    1.10    3.80
   2 -10  12    4.40    4.70
   2 -10  12   12.80    6.00
   2  10  12    5.40    4.30
  -7 -11  12    7.80    6.70
  -7 -11  12    6.80    4.20
  -7  11  12   11.70    3.90
  -6 -11  12   41.40    7.50
  -6  11  12   36.30    5.10
  -5 -11  12   17.00    5.70
  -5 -11  12    9.40    4.90
  -5  11  12   11.90    3.70
  -5  11  12    9.90    2.60
  -4 -11  12   38.30    6.30
  -4 -11  12   41.40    7.30
  -4  11  12   34.20    4.20
  -4  11  12   42.10    4.70
  -3 -11  12    8.50    4.80
  -3 -11  12    2.40    4.00
  -3  11  12    1.70    2.70
  -3  11  12    2.70    3.10
  -2 -11  12   35.80    6.40
  -2 -11  12   46.50    7.60
  -2  11  12   32.30    3.90
  -2  11  12   34.40    5.30
  -1 -11  12    0.50    4.70
  -1 -11  12   -4.70    4.00
  -1  11  12    2.70    2.50
  -1  11  12    2.50    3.40
   0 -11  12   52.49    8.00
   0  11  12   42.50    6.00
   1 -11  12    0.70    4.90
   1 -11  12   -2.70    5.00
   1  11  12    1.90    4.00
  -6 -12  12    5.20    4.10
  -6 -12  12    5.50    5.70
  -6  12  12    2.80    3.60
  -5 -12  12    1.00    6.70
  -5 -12  12   13.10    5.30
  -5  12  12    3.30    3.40
  -4 -12  12    1.30    4.40
  -4 -12  12    0.10    5.40
  -4  12  12    1.80    2.40
  -3 -12  12    4.60    4.80
  -3 -12  12    5.20    4.60
  -3  12  12    5.00    2.90
  -3  12  12   -4.90    3.00
  -2 -12  12    3.30    5.00
  -2 -12  12    0.80    4.50
  -2  12  12   -5.30    2.90
  -2  12  12    2.30    3.30
  -1 -12  12   12.50    6.40
  -1 -12  12    4.60    5.30
  -1  12  12   11.30    2.70
  -1  12  12   15.00    3.80
   0 -12  12   -4.10    5.20
   0 -12  12   -6.40    4.10
   0  12  12    1.60    4.00
  -4 -13  12   50.29    9.70
  -4 -13  12   20.60    6.20
  -4  13  12   29.70    5.00
  -4  13  12   23.80    3.60
  -3 -13  12    1.20    4.90
  -3  13  12    1.40    3.00
  -3  13  12    4.50    3.60
  -2 -13  12   12.50    5.90
  -2 -13  12   19.30    7.00
  -2  13  12   10.10    3.70
  -2  13  12    9.90    3.40
 -10   0  13   -5.10    4.50
 -10   0  13    2.50    4.30
 -10   0  13   -1.60    4.10
  -9   0  13   22.20    4.40
  -9   0  13   24.90    4.70
  -9   0  13   34.40    6.20
  -8   0  13    2.90    3.00
  -8   0  13   -1.40    3.30
  -7   0  13   10.50    3.70
  -7   0  13   15.80    4.30
  -7   0  13   13.90    3.80
  -6   0  13   -3.50    2.90
   6   0 -13   -4.30    3.70
  -6   0  13    5.60    3.00
  -6   0  13    2.00    3.10
  -5   0  13   -0.40    2.90
  -5   0  13    0.80    2.80
  -4   0  13    3.50    3.30
  -4   0  13    0.70    2.00
  -3   0  13    7.60    1.60
  -3   0  13    9.40    3.50
  -2   0  13   -1.60    3.20
  -1   0  13   16.10    4.00
   0   0  13    0.70    4.10
   1   0  13   20.20    5.70
   2   0  13    6.70    4.70
   3   0  13   43.80    6.50
   4   0  13    3.40    5.50
 -10  -1  13   12.40    4.30
 -10  -1  13    3.70    4.20
 -10  -1  13   17.50    4.80
 -10   1  13    2.40    4.40
 -10   1  13    8.40    4.80
 -10   1  13    7.30    4.60
  -9  -1  13   20.30    5.20
  -9  -1  13   21.60    4.70
  -9  -1  13   19.20    4.90
  -9   1  13   16.50    4.50
  -9   1  13   17.80    4.50
  -9   1  13   21.50    4.80
  -8  -1  13   21.60    4.50
  -8  -1  13   28.20    5.10
  -8  -1  13   19.40    4.90
  -8   1  13   19.80    4.80
  -8   1  13   23.10    5.50
  -8   1  13   24.40    4.00
  -7  -1  13   15.80    4.80
  -7  -1  13    1.40    3.70
  -7  -1  13    2.10    3.50
  -7   1  13    7.10    3.80
  -7   1  13    6.40    3.30
  -7   1  13    0.30    3.20
  -6  -1  13  161.48   10.80
  -6  -1  13  183.48   11.20
  -6  -1  13  183.58   11.40
  -6   1  13  172.18   10.80
  -6   1  13  186.48   11.30
  -5  -1  13    3.70    3.20
  -5  -1  13    1.80    2.90
   5   1 -13    8.90    4.30
  -5   1  13    7.30    2.90
  -5   1  13    7.70    3.70
  -4  -1  13   18.10    4.20
  -4  -1  13   20.60    3.30
  -4   1  13   14.10    3.10
  -4   1  13   16.90    3.80
  -4   1  13   19.00    2.80
   4   1 -13   15.70    3.00
  -3  -1  13   45.20    6.20
  -3  -1  13   46.20    4.10
  -3   1  13   37.40    5.50
  -2  -1  13   23.70    4.80
  -2   1  13   29.50    5.20
  -1  -1  13    0.20    3.80
  -1   1  13    0.80    3.90
   0  -1  13   57.99    6.90
   0   1  13   37.70    6.10
   1  -1  13    6.30    4.20
   1   1  13    6.50    4.40
   2  -1  13    3.80    4.00
   2   1  13    4.90    4.20
   3  -1  13   -5.30    4.80
   3   1  13   -0.40    4.90
   4  -1  13    9.50    5.20
   4   1  13    3.50    5.00
 -10  -2  13   12.40    5.20
 -10  -2  13   10.60    5.60
 -10  -2  13   10.20    4.90
 -10   2  13   11.80    4.80
 -10   2  13   23.10    4.90
 -10   2  13    2.50    5.10
  -9  -2  13   -2.10    3.90
  -9  -2  13   -3.50    3.30
  -9  -2  13    4.50    4.20
  -9   2  13    5.20    3.60
  -9   2  13   -1.80    2.90
  -9   2  13    3.00    3.70
  -8  -2  13   15.80    5.30
  -8  -2  13   12.20    4.30
  -8  -2  13    6.20    3.70
  -8   2  13   14.80    4.20
  -8   2  13    8.10    3.50
  -7  -2  13   11.20    4.10
  -7  -2  13    9.90    4.20
  -7  -2  13   15.20    4.20
  -7   2  13   15.90    3.60
  -7   2  13   12.30    6.00
  -7   2  13   16.90    4.00
  -6  -2  13    0.90    3.20
  -6  -2  13    1.50    4.10
  -6  -2  13   -0.40    3.20
  -6   2  13    0.50    2.90
  -6   2  13    5.40    2.80
  -5  -2  13   22.10    4.00
  -5  -2  13   18.60    4.10
  -5   2  13   22.00    3.70
  -5   2  13   20.30    3.30
   5   2 -13   21.50    3.70
  -5   2  13   17.50    3.70
  -4  -2  13    2.90    3.20
  -4  -2  13    1.20    3.00
  -4   2  13    6.00    2.90
  -4   2  13    2.70    2.50
  -4   2  13    2.00    2.50
   4   2 -13    4.80    2.70
  -3  -2  13   -0.30    2.20
  -3  -2  13   -1.80    3.00
   3   2 -13   -2.40    2.20
  -3   2  13    3.20    3.00
  -2  -2  13    6.90    2.70
  -2  -2  13   13.60    4.60
  -2   2  13   12.70    3.50
   2   2 -13   12.30    2.60
  -1  -2  13    7.00    4.30
  -1   2  13    5.60    4.00
   0  -2  13    9.60    4.70
   0   2  13    7.50    4.00
   1  -2  13   20.10    5.10
   1   2  13   19.20    5.50
   2  -2  13   35.60    6.10
   2   2  13   19.20    5.80
   3  -2  13    2.70    4.90
   3   2  13    2.20    4.80
   4  -2  13   22.60    5.90
   4   2  13    3.90    6.30
 -10  -3  13    7.00    5.10
 -10  -3  13    3.00    4.90
 -10   3  13   -0.80    4.40
 -10   3  13    8.20    3.60
 -10   3  13    9.30    4.00
  -9  -3  13   17.70    5.60
  -9  -3  13   26.10    5.20
  -9   3  13   24.90    4.90
  -9   3  13   28.70    4.90
  -9   3  13   23.10    4.60
  -8  -3  13    5.90    4.10
  -8  -3  13   11.40    4.90
  -8  -3  13    6.70    4.40
  -8   3  13   13.20    4.10
  -8   3  13    8.10    3.70
  -8   3  13   -0.60    3.40
  -7  -3  13   51.49    7.10
  -7  -3  13   37.90    6.00
  -7  -3  13   32.30    5.90
  -7   3  13   64.89    9.80
  -7   3  13   36.40    5.00
  -7   3  13   42.60    5.00
  -6  -3  13   21.50    4.50
  -6  -3  13   30.10    5.30
  -6  -3  13   17.70    4.60
  -6   3  13   24.20    4.00
  -6   3  13   27.60    4.50
  -6   3  13   18.60    4.90
  -5  -3  13   40.80    6.10
  -5  -3  13   56.19    6.50
  -5  -3  13   50.39    6.60
  -5   3  13   61.09    6.00
  -5   3  13   61.79    4.80
   5   3 -13   54.69    6.70
  -5   3  13   58.99    5.90
  -4  -3  13   47.20    5.40
  -4  -3  13   45.90    6.00
  -4   3  13   49.40    4.40
  -4   3  13   37.10    5.10
  -4   3  13   39.20    4.80
   4   3 -13   43.90    7.70
  -3  -3  13   39.90    4.50
  -3  -3  13   40.90    6.00
   3   3 -13   33.30    4.20
  -3   3  13   58.59    5.80
  -2  -3  13   10.40    2.50
  -2  -3  13    6.00    3.90
   2   3 -13    8.10    2.50
  -2   3  13    8.00    3.40
  -1  -3  13   12.30    4.20
  -1   3  13   10.50    4.00
   0  -3  13    4.50    4.20
   0   3  13    2.60    3.90
   1  -3  13   81.69    8.90
   1   3  13   69.09    7.70
   2  -3  13    9.10    4.80
   2   3  13    3.90    4.10
   3  -3  13   14.30    5.50
   3   3  13   -2.60    4.70
   4  -3  13   -2.50    5.10
 -10  -4  13   11.70    5.50
 -10   4  13   17.50    4.30
 -10   4  13   19.10    4.70
 -10   4  13   19.20    4.90
  -9  -4  13   -9.90    4.90
  -9  -4  13   -0.60    4.20
  -9  -4  13    2.90    4.50
  -9   4  13    2.40    3.90
  -9   4  13   -0.20    3.80
  -9   4  13    3.20    3.10
  -8  -4  13   24.80    5.40
  -8  -4  13   25.20    6.60
  -8  -4  13   24.40    5.40
  -8   4  13   22.50    3.70
  -8   4  13   22.10    4.50
  -8   4  13   20.80    4.00
  -7  -4  13    1.40    3.40
  -7  -4  13   -8.10    4.10
  -7  -4  13   -1.10    3.90
  -7   4  13    4.60    2.50
  -7   4  13   -0.80    3.00
  -7   4  13   -5.60    5.30
  -6  -4  13    2.00    2.90
  -6   4  13    0.50    2.70
  -6   4  13    3.50    2.80
  -6   4  13   -5.30    4.40
  -5  -4  13    4.70    3.30
  -5  -4  13    8.20    3.90
  -5  -4  13   -0.40    3.80
  -5   4  13    2.10    2.60
  -5   4  13    3.60    3.30
  -5   4  13    0.30    2.00
  -4  -4  13   23.90    4.40
  -4  -4  13   25.00    5.20
  -4   4  13   21.90    4.20
  -4   4  13   30.30    3.40
  -4   4  13   24.20    3.90
   4   4 -13   15.30    4.40
  -3  -4  13    6.50    3.00
  -3  -4  13   12.80    4.50
  -3   4  13    3.70    3.50
   3   4 -13    5.90    3.80
  -2  -4  13   -1.40    3.10
  -2  -4  13    3.00    2.60
   2   4 -13   -6.60    2.50
  -2   4  13    1.10    3.50
  -1  -4  13    2.80    4.00
  -1  -4  13   -1.10    2.40
  -1   4  13    4.60    3.90
   1   4 -13    1.70    2.70
   0  -4  13    8.60    4.70
   0   4  13   11.10    4.40
   0   4 -13   11.20    2.90
   1  -4  13   13.70    5.30
   1   4  13    5.70    4.90
  -1   4 -13    7.20    2.90
  -1   4 -13    5.30    2.90
   2  -4  13   15.30    5.20
  -2   4 -13   10.00    3.70
   2   4  13   18.70    5.40
  -2   4 -13    3.70    3.40
   3  -4  13   -0.40    4.90
   3   4  13  -12.70    7.10
  -3   4 -13   -1.60    2.40
  -4   4 -13    4.90    3.60
 -10  -5  13   20.50    6.40
 -10  -5  13   26.80    6.40
 -10   5  13   18.50    3.90
 -10   5  13   10.80    4.00
 -10   5  13    9.60    5.20
  -9  -5  13   24.70    5.40
  -9  -5  13   30.10    7.30
  -9   5  13   23.30    5.80
  -9   5  13   27.40    4.00
  -8  -5  13   16.30    4.90
  -8  -5  13   25.80    6.20
  -8  -5  13   14.40    5.40
  -8   5  13   14.90    4.50
  -8   5  13   11.60    3.50
  -8   5  13   18.10    3.60
  -7  -5  13   45.60    6.80
  -7  -5  13   33.20    6.30
  -7  -5  13   37.70    6.00
  -7   5  13   41.30    5.60
  -7   5  13   50.79    7.30
  -7   5  13   38.30    4.40
  -6  -5  13    3.40    3.60
  -6  -5  13   -1.90    3.60
  -6  -5  13   -5.00    4.10
  -6   5  13   -7.50    3.90
  -6   5  13    3.20    2.80
  -6   5  13    1.50    2.80
  -5  -5  13   81.19    8.10
  -5  -5  13   98.39    7.90
  -5  -5  13   53.59    7.00
  -5   5  13   73.79    6.20
  -5   5  13   72.39    5.40
  -5   5  13   63.39    6.10
  -4  -5  13   11.30    3.60
  -4  -5  13   14.30    3.90
  -4   5  13   13.40    3.70
  -4   5  13    7.00    2.50
  -4   5  13    8.10    3.10
  -3  -5  13  169.48   10.80
  -3  -5  13  167.68   11.90
   3   5 -13  170.88   10.60
  -3   5  13  186.48   10.80
  -2  -5  13    1.60    3.50
  -2  -5  13   -3.80    3.00
  -2   5  13    1.80    3.60
  -1  -5  13    4.50    3.30
  -1  -5  13    9.40    4.30
  -1   5  13    3.00    3.40
   1   5 -13   -2.30    3.20
   0  -5  13   20.30    3.40
   0  -5  13   14.10    5.00
   0   5 -13   16.30    4.00
   0   5  13   18.60    4.30
   1  -5  13   10.00    5.20
  -1   5 -13   -9.60    3.20
   1   5  13    1.30    3.70
   2  -5  13   12.70    5.00
  -2   5 -13    6.20    2.80
  -2   5 -13    8.10    4.40
   3  -5  13   14.30    5.70
   3   5  13   14.50    5.60
  -3   5 -13   12.30    3.30
  -9  -6  13   21.70    6.60
  -9  -6  13   13.40    5.30
  -9   6  13   16.90    3.40
  -9   6  13    8.70    3.60
  -9   6  13   13.60    4.20
  -8  -6  13   19.40    5.60
  -8  -6  13   12.40    5.20
  -8   6  13   18.20    4.20
  -8   6  13    6.80    2.80
  -8   6  13    9.70    3.00
  -7  -6  13   16.70    5.10
  -7  -6  13   13.60    5.40
  -7  -6  13   19.20    5.60
  -7   6  13   30.50    4.80
  -6  -6  13    5.80    4.40
  -6  -6  13    0.80    3.50
  -6  -6  13   13.10    4.80
  -6   6  13    2.00    2.80
  -6   6  13   -7.50    4.30
  -6   6  13    6.50    2.80
  -5  -6  13   -6.40    3.50
  -5  -6  13    6.20    4.30
  -5  -6  13    2.10    3.50
  -5   6  13   -2.30    3.40
  -5   6  13    1.70    2.40
  -5   6  13    4.70    3.10
  -4  -6  13    6.10    3.90
  -4  -6  13   14.70    4.00
  -4  -6  13    9.20    4.20
  -4   6  13   17.10    3.50
  -4   6  13   16.70    3.40
  -4   6  13   13.80    3.10
  -3  -6  13    8.40    3.90
  -3  -6  13    9.00    4.20
  -3   6  13    2.50    3.20
  -2  -6  13    0.70    4.10
  -2  -6  13    1.20    3.30
  -2   6  13    7.10    3.80
   2   6 -13   -5.10    3.80
  -1  -6  13    4.40    3.80
  -1  -6  13   10.30    3.70
  -1   6  13    9.70    3.70
   1   6 -13    5.80    4.00
   0  -6  13    7.30    4.60
   0  -6  13   -0.60    3.40
   0   6 -13    9.40    4.40
   0   6  13    5.30    3.90
   1  -6  13    4.60    4.90
  -1   6 -13    3.10    5.60
   2  -6  13    7.00    5.20
   2   6  13   -7.70    4.00
  -2   6 -13   -5.80    3.80
   3  -6  13   -0.50    5.60
  -3   6 -13   -2.50    4.00
   3   6  13   16.30    5.10
  -9  -7  13   -0.80    6.30
  -9  -7  13    4.10    5.10
  -9   7  13   -7.90    3.30
  -9   7  13   -6.10    2.70
  -9   7  13    3.50    2.30
  -8  -7  13   34.20    6.80
  -8  -7  13   53.59    8.20
  -8   7  13   47.90    4.80
  -8   7  13   37.50    5.70
  -8   7  13   39.20    4.50
  -7  -7  13   18.20    5.00
  -7  -7  13   19.50    6.40
  -7  -7  13   16.40    5.70
  -7   7  13    9.70    2.90
  -7   7  13    9.60    3.30
  -7   7  13    6.80    3.80
  -6  -7  13   82.39    8.90
  -6  -7  13   77.79    8.70
  -6  -7  13   84.19    9.10
  -6   7  13   86.79    6.70
  -5  -7  13   16.40    4.50
  -5  -7  13   12.90    5.00
  -5  -7  13    7.80    4.40
  -5   7  13   13.10    3.30
  -5   7  13   19.80    4.10
  -5   7  13    9.90    3.10
  -4  -7  13    1.20    8.10
  -4  -7  13   26.50    5.20
  -4  -7  13   17.90    4.90
  -4   7  13   19.00    3.30
  -4   7  13   18.90    3.90
  -4   7  13   19.50    2.60
  -3  -7  13   37.00    5.60
  -3   7  13   41.70    5.70
  -2  -7  13   62.69    9.20
  -2  -7  13   43.50    6.80
  -2   7  13   41.40    5.80
  -1  -7  13   -1.40    3.70
  -1  -7  13   -1.40    3.70
  -1   7  13    2.60    6.00
   0  -7  13    8.90    5.20
   0  -7  13    7.30    4.00
   0   7  13    4.60    4.30
   1  -7  13   -1.00    3.60
   1  -7  13    6.70    5.40
   1   7  13   -5.10    3.60
   2  -7  13    9.60    5.70
   2   7  13   16.20    4.90
  -3   7 -13    4.20    4.80
  -8  -8  13    3.30    6.00
  -8  -8  13   -1.30    4.30
  -8   8  13    2.20    2.50
  -8   8  13    3.30    4.00
  -8   8  13   -1.80    2.30
  -7  -8  13   15.50    4.90
  -7  -8  13   12.10    6.10
  -7   8  13    7.20    2.70
  -7   8  13   13.40    3.70
  -7   8  13    7.00    2.60
  -6  -8  13    1.50    7.60
  -6  -8  13    7.60    5.00
  -6  -8  13    2.30    4.40
  -6   8  13    0.40    2.90
  -6   8  13    1.20    3.00
  -5  -8  13    3.70    4.80
  -5  -8  13   12.30    4.70
  -5  -8  13    5.50    3.70
  -5   8  13    2.40    2.80
  -4  -8  13    0.10    3.60
  -4  -8  13   -0.80    3.70
  -4  -8  13   -6.50    3.90
  -4   8  13   -7.20    2.80
  -4   8  13    5.20    2.30
  -3  -8  13   14.80    4.40
  -3  -8  13    7.30    4.10
  -2  -8  13   13.50    4.60
  -2  -8  13   -1.00    4.10
  -2   8  13    7.60    3.70
  -1  -8  13   20.20    5.50
  -1  -8  13   11.10    4.90
  -1   8  13   22.30    4.80
   0  -8  13    8.90    3.80
   0  -8  13   11.30    5.50
   0   8  13    6.70    4.00
   1  -8  13   -6.50    3.90
   1  -8  13    0.50    4.40
   1   8  13    7.90    4.60
   2  -8  13    3.90    5.40
   2   8  13   -0.80    4.10
  -8  -9  13    1.60    5.40
  -8  -9  13    6.70    5.10
  -8   9  13    5.60    4.00
  -8   9  13   -0.20    2.50
  -7  -9  13   24.30    6.60
  -7  -9  13   24.30    6.00
  -7   9  13   22.10    3.00
  -7   9  13   18.90    2.90
  -7   9  13   16.70    4.10
  -6  -9  13   43.90    7.40
  -6  -9  13   30.60    5.90
  -6   9  13   37.40    4.30
  -6   9  13   32.20    8.30
  -5  -9  13   10.00    4.80
  -5  -9  13    6.90    4.80
  -5   9  13    3.10    3.10
  -5   9  13    6.90    3.00
  -4  -9  13   44.60    7.10
  -4  -9  13   30.30    6.10
  -4   9  13   38.40    4.20
  -4   9  13   35.20    4.70
  -3  -9  13    4.20    4.20
  -3  -9  13    8.00    4.20
  -3   9  13    0.10    3.40
  -2  -9  13  107.29    9.20
  -2  -9  13   93.99    9.70
  -2   9  13   86.39    7.70
  -1  -9  13    4.20    4.00
  -1  -9  13   -2.60    4.30
  -1   9  13    4.80    3.90
   0  -9  13   -0.30    4.60
   0  -9  13   -0.90    4.30
   0   9  13    5.50    3.90
   1  -9  13    1.90    4.60
   1  -9  13    2.00    5.10
   1   9  13    7.40    4.10
  -7 -10  13    9.50   10.50
  -7 -10  13    0.50    4.80
  -7  10  13    1.00    3.70
  -6 -10  13    7.00    6.20
  -6 -10  13    1.80    4.80
  -6  10  13    5.20    3.50
  -6  10  13    5.60    2.50
  -5 -10  13    4.10    4.50
  -5 -10  13    7.60    5.30
  -5  10  13    1.70    2.80
  -5  10  13    5.70    3.30
  -4 -10  13    4.50    4.70
  -4 -10  13    1.50    4.80
  -4  10  13    3.60    2.90
  -4  10  13   -6.00    2.70
  -3 -10  13   12.20    5.00
  -3 -10  13    4.50    4.90
  -3  10  13    8.70    2.40
  -3  10  13    9.80    3.60
  -2 -10  13   13.70    5.40
  -2 -10  13   30.60    6.20
  -2  10  13   21.80    4.70
  -1 -10  13    7.90    4.40
  -1 -10  13   -3.40    4.20
  -1  10  13    4.10    3.40
   0 -10  13    5.50    5.00
   0 -10  13    4.20    5.40
   0  10  13    5.30    4.50
  -6 -11  13   16.10    9.90
  -6 -11  13    7.70    5.00
  -6  11  13    6.40    3.80
  -5 -11  13   15.20    5.10
  -5 -11  13   27.20    7.20
  -5  11  13   26.80    5.00
  -5  11  13   21.30    3.30
  -4 -11  13    7.00    4.70
  -4 -11  13    7.30    4.70
  -4  11  13    4.60    2.90
  -4  11  13    7.80    3.40
  -3 -11  13   25.00    6.20
  -3 -11  13   17.90    5.50
  -3  11  13   29.20    3.20
  -3  11  13   25.80    4.50
  -2 -11  13   -1.40    4.50
  -2 -11  13    8.90    5.30
  -2  11  13    2.10    3.50
  -1 -11  13    7.90    4.90
  -1 -11  13    4.30    5.40
  -1  11  13    3.60    4.10
  -9   0  14   -5.40    3.80
  -9   0  14   -0.80    3.50
  -8   0  14    3.10    5.20
  -8   0  14    1.70    4.00
  -8   0  14   10.60    4.10
  -7   0  14    4.30    3.70
  -7   0  14   -1.20    6.20
  -7   0  14   -2.40    3.20
  -6   0  14   49.70    5.60
  -6   0  14   37.60    5.00
  -6   0  14   41.40    5.80
  -5   0  14   -2.50    2.70
  -5   0  14   -1.10    3.10
  -4   0  14   20.40    3.10
  -4   0  14   15.90    4.10
  -3   0  14   -3.10    3.50
  -2   0  14    3.90    4.20
  -1   0  14    6.40    4.20
   0   0  14   16.60    5.50
   1   0  14    1.00    4.30
   2   0  14    6.70    5.20
   3   0  14   -1.20    5.00
  -9  -1  14   12.10    5.40
  -9  -1  14   16.10    5.10
  -9  -1  14   15.40    4.60
  -9   1  14   10.80    4.90
  -9   1  14   16.60    5.10
  -9   1  14   23.70    5.10
  -8  -1  14    9.50    4.60
  -8  -1  14   15.20    4.70
  -8  -1  14   12.50    4.60
  -8   1  14   15.70    4.60
  -8   1  14   18.80    4.60
  -8   1  14   15.80    4.80
  -7  -1  14   38.60    5.90
  -7  -1  14   25.10    4.80
  -7   1  14   29.40    6.20
  -7   1  14   34.40    5.00
  -7   1  14   39.10    6.30
  -6  -1  14   -9.50    3.70
  -6  -1  14    1.50    3.10
  -6  -1  14    0.60    3.20
  -6   1  14   -1.80    2.90
  -6   1  14    4.80    3.10
  -5  -1  14   40.60    6.10
  -5  -1  14   49.20    5.30
  -5   1  14   39.20    4.80
   5   1 -14   51.99    6.30
  -5   1  14   44.30    5.90
  -5   1  14   48.90    4.70
  -4  -1  14   -4.00    3.50
  -4  -1  14    3.10    2.50
  -4   1  14   11.30    4.10
  -4   1  14    2.70    3.20
  -4   1  14    3.70    2.40
  -3  -1  14    5.70    4.00
  -3   1  14   10.90    3.80
  -2  -1  14    4.50    4.20
  -2   1  14   -4.40    3.70
  -1  -1  14   85.49    8.50
  -1   1  14   84.79    8.30
   0  -1  14    5.40    4.40
   0   1  14    2.70    4.00
   1  -1  14   -9.80    4.60
   1   1  14    5.90    4.60
   2  -1  14    1.80    4.80
   2   1  14   -4.20    4.30
   3  -1  14    1.10    5.70
  -9  -2  14   -7.40    4.60
  -9  -2  14   -8.00    4.00
  -9  -2  14   -5.80    4.00
  -9   2  14    5.50    4.20
  -9   2  14    1.50    3.50
  -9   2  14   -7.40    4.30
  -8  -2  14   11.60    4.90
  -8  -2  14   15.40    4.90
  -8  -2  14    2.70    4.20
  -8   2  14   14.60    4.00
  -8   2  14   16.40    4.50
  -8   2  14   12.20    4.10
  -7  -2  14   13.80    6.60
  -7  -2  14    0.80    3.50
  -7  -2  14    6.90    4.10
  -7   2  14    4.60    3.60
  -7   2  14   11.20    3.60
  -7   2  14   17.90    5.90
  -6  -2  14    5.30    3.90
  -6  -2  14   -4.20    4.00
  -6  -2  14   -5.00    3.40
  -6   2  14    8.70    3.60
  -6   2  14   -2.40    4.10
  -6   2  14    8.30    5.20
  -5  -2  14   16.00    3.90
  -5  -2  14   10.40    4.70
  -5   2  14   12.50    2.70
   5   2 -14    5.80    3.70
  -5   2  14    3.20    3.50
  -5   2  14    2.80    3.40
  -4  -2  14   24.30    5.10
  -4  -2  14   18.80    3.50
   4   2 -14   21.00    3.40
  -4   2  14   15.20    4.40
  -3  -2  14   23.70    3.20
  -3  -2  14   33.20    5.30
  -3   2  14   29.10    5.30
   3   2 -14   22.40    3.30
  -2  -2  14   -3.90    3.30
  -2   2  14    3.50    4.10
  -1  -2  14    0.90    3.40
  -1   2  14    7.60    4.30
   0  -2  14   -0.80    3.80
   0   2  14    5.60    4.30
   1  -2  14    4.10    4.60
   1   2  14    3.40    4.80
   2  -2  14   14.90    6.20
  -9  -3  14   16.10    5.30
  -9  -3  14    3.00    4.80
  -9   3  14    3.20    4.00
  -9   3  14    9.20    3.80
  -9   3  14    6.60    4.40
  -8  -3  14   21.10    5.40
  -8  -3  14   13.00    5.50
  -8  -3  14   16.50    5.20
  -8   3  14   23.50    4.50
  -8   3  14   11.50    4.60
  -8   3  14   20.30    4.60
  -7  -3  14   21.90    6.10
  -7  -3  14    5.10    4.70
  -7  -3  14    9.90    4.30
  -7   3  14   16.00    3.90
  -7   3  14   10.70    3.50
  -7   3  14   20.20    5.40
  -6  -3  14   26.30    5.10
  -6  -3  14   25.50    5.40
  -6  -3  14   23.10    5.10
  -6   3  14   30.00    4.80
  -6   3  14   29.00    8.00
  -6   3  14    9.50    5.00
  -5  -3  14    2.60    3.30
  -5  -3  14    8.00    4.10
  -5   3  14    6.40    3.60
  -5   3  14    9.90    2.40
  -5   3  14    3.20    3.30
   5   3 -14    0.80    4.40
  -4  -3  14  117.49    9.50
  -4  -3  14  109.59    8.00
   4   3 -14  115.39    9.10
  -4   3  14  122.49    8.90
  -3  -3  14   55.09    5.00
  -3  -3  14   53.49    7.00
  -3   3  14   65.49    6.80
   3   3 -14   46.30    5.10
  -2  -3  14    5.20    4.00
  -2  -3  14   12.60    3.70
   2   3 -14    1.20    3.10
  -2   3  14    3.40    4.00
  -1  -3  14    4.10    4.40
  -1   3  14   10.90    4.20
   0  -3  14   15.40    5.00
   0   3  14    4.50    4.10
   1  -3  14    7.50    5.10
   2  -3  14    2.60    5.30
   2   3  14    6.60    4.90
  -9  -4  14   29.30    5.90
  -9  -4  14    9.40    5.30
  -9   4  14   26.00    4.90
  -9   4  14   22.50    4.60
  -9   4  14   18.20    4.80
  -8  -4  14    3.90    4.40
  -8  -4  14   -4.50    4.20
  -8   4  14    3.40    3.60
  -8   4  14    5.30    3.40
  -8   4  14   -1.70    3.90
  -7  -4  14    5.20    4.80
  -7  -4  14   12.10    4.80
  -7  -4  14    9.90    4.40
  -7   4  14   10.50    5.40
  -7   4  14    3.60    3.20
  -7   4  14   -3.40    3.30
  -6  -4  14   -0.40    3.70
  -6  -4  14   -0.30    4.10
  -6  -4  14   -6.40    4.30
  -6   4  14    3.70    4.80
  -6   4  14    1.70    2.80
  -5  -4  14   14.70    4.70
  -5  -4  14   12.30    4.50
  -5  -4  14   13.00    5.10
  -5   4  14   10.20    3.40
  -5   4  14   16.70    2.70
  -4  -4  14    2.50    3.60
  -4  -4  14    3.70    4.10
   4   4 -14   -7.90    3.70
  -4   4  14    5.10    3.70
  -3  -4  14   10.40    3.40
  -3  -4  14   11.30    4.20
  -3   4  14   11.60    4.50
  -2  -4  14    2.60    3.00
  -2  -4  14    1.90    3.60
  -2   4  14    7.00    4.10
   2   4 -14    3.80    3.00
  -1  -4  14    8.00    4.20
   1   4 -14   -3.00    2.50
  -1   4  14    0.00    5.30
   0  -4  14    4.00    4.80
   1  -4  14   18.20    6.00
   1   4  14    5.20    5.00
   2  -4  14    3.70    5.50
   2   4  14    9.20    5.40
  -9  -5  14   11.40    5.50
  -9  -5  14   14.30    5.60
  -9   5  14   16.00    4.20
  -9   5  14   21.80    4.80
  -9   5  14   17.10    3.80
  -8  -5  14   25.40    5.70
  -8  -5  14   17.80    5.30
  -8   5  14   17.50    3.90
  -8   5  14   27.20    4.40
  -7  -5  14    7.20    4.70
  -7  -5  14   12.80    5.60
  -7  -5  14    3.70    8.20
  -7   5  14    6.30    3.90
  -7   5  14    8.80    3.90
  -6  -5  14   24.50    6.10
  -6  -5  14   32.70    5.90
  -6  -5  14   35.70    6.00
  -6   5  14   12.80    5.60
  -6   5  14   29.20    4.80
  -6   5  14   38.90    4.70
  -5  -5  14    3.90    4.30
  -5  -5  14   -1.10    3.70
  -5  -5  14  -11.20    4.20
  -5   5  14    8.60    3.40
  -5   5  14   -4.80    3.00
  -5   5  14    3.00    2.20
  -4  -5  14  118.79    9.20
  -4  -5  14  121.59    9.90
  -3  -5  14    7.10    4.80
  -3  -5  14   13.30    3.90
   3   5 -14    9.50    4.20
  -2  -5  14   45.70    6.60
  -2  -5  14   55.39    6.10
   2   5 -14   51.99    5.90
  -1  -5  14   -4.50    3.70
  -1  -5  14    2.20    2.90
   1   5 -14    1.80    3.80
  -1   5  14    2.80    4.00
   0  -5  14   19.40    5.60
   0   5  14   12.70    4.80
   0   5 -14   16.60    4.20
   1  -5  14    1.40    4.60
   1   5  14    6.10    4.30
  -1   5 -14    1.50    2.30
   2  -5  14   14.50    5.20
   2   5  14    8.00    5.30
  -2   5 -14   -5.00    3.30
  -8  -6  14   12.00    5.00
  -8  -6  14   13.20    5.30
  -8   6  14    7.10    4.10
  -8   6  14    6.10    3.40
  -8   6  14    7.20    3.80
  -7  -6  14   -5.50    4.30
  -7  -6  14   -1.40    4.20
  -7   6  14   -1.60    4.90
  -7   6  14    2.70    3.00
  -7   6  14    0.10    5.00
  -6  -6  14    4.20    4.40
  -6  -6  14    7.80    4.50
  -6   6  14    7.40    3.10
  -6   6  14   -0.70    3.30
  -5  -6  14   -7.30    4.30
  -5  -6  14    8.50    3.80
  -5   6  14    2.60    2.40
  -5   6  14   11.90    4.70
  -5   6  14    4.10    3.60
  -4  -6  14   -6.60    3.50
  -4  -6  14    0.50    4.60
  -4  -6  14    0.90    4.40
  -4   6  14    0.50    3.30
  -3  -6  14    2.90    4.80
  -3  -6  14    4.60    3.50
  -3   6  14   12.70    4.10
  -2  -6  14   11.10    4.20
  -2  -6  14    7.90    3.90
  -2   6  14   11.10    3.90
   2   6 -14   -3.40    4.70
  -1  -6  14    4.70    3.90
  -1  -6  14   -2.90    4.20
  -1   6  14   -1.20    3.40
   1   6 -14    2.30    5.60
   0  -6  14    2.10    4.20
   0   6  14    3.20    4.10
   1  -6  14    0.70    4.40
   1   6  14    1.10    4.70
  -8  -7  14   -2.80    4.10
  -8  -7  14    9.40    5.70
  -8   7  14    3.80    2.30
  -8   7  14    1.30    3.30
  -8   7  14    5.40    4.30
  -7  -7  14   28.20    6.50
  -7  -7  14   36.40    6.70
  -7   7  14   38.20    4.80
  -7   7  14   37.40    4.60
  -7   7  14   34.00    5.70
  -6  -7  14    9.10    4.90
  -6  -7  14   -3.10    4.60
  -6   7  14   -7.60    3.10
  -6   7  14    0.10    2.80
  -5  -7  14   58.89    8.10
  -5  -7  14   70.69    8.60
  -5   7  14   62.39    6.50
  -5   7  14   54.69    4.90
  -4  -7  14   20.30    5.80
  -4  -7  14   23.70    5.70
  -4   7  14   20.20    4.40
  -3  -7  14   58.59    8.40
  -3  -7  14   95.29    7.70
  -3   7  14   84.39    7.40
  -2  -7  14   30.30    6.70
  -1  -7  14   21.90    5.20
  -1  -7  14   24.20    5.40
  -1   7  14   24.70    5.10
   0  -7  14    3.60    4.60
   0  -7  14    4.00    4.20
   0   7  14    3.30    4.10
   1  -7  14    1.70    5.20
   1   7  14   -4.60    4.30
  -7  -8  14    3.00    4.60
  -7  -8  14    0.30    5.50
  -7   8  14    2.80    3.80
  -7   8  14   -5.60    2.90
  -7   8  14    1.50    2.80
  -6  -8  14    9.20    5.00
  -6  -8  14    4.70    4.70
  -6   8  14    4.20    3.30
  -6   8  14    2.70    3.60
  -5  -8  14    3.30    4.90
  -5  -8  14   10.10    5.30
  -5   8  14   -0.30    2.60
  -5   8  14    2.70    3.20
  -4  -8  14    5.30    4.40
  -4  -8  14    7.20    4.60
  -4   8  14    1.60    3.60
  -3  -8  14    4.10    4.20
  -3  -8  14    1.80    4.70
  -3   8  14    4.60    3.70
  -2  -8  14    4.90    4.00
  -2  -8  14   -0.40    4.70
  -2   8  14    9.60    3.90
  -1  -8  14    3.70    4.80
  -1  -8  14    3.60    5.00
  -1   8  14    4.20    4.30
   0  -8  14   29.50    6.50
   0  -8  14   21.20    5.50
   0   8  14   14.50    5.50
  -6  -9  14   34.60    6.90
  -6  -9  14   12.60    5.80
  -6   9  14   19.60    4.40
  -6   9  14   24.10    3.70
  -5  -9  14   26.40    6.90
  -5  -9  14   31.60    6.70
  -5   9  14   27.10    4.20
  -5   9  14   24.50    4.20
  -4  -9  14   -0.40    4.60
  -4  -9  14    9.90    5.30
  -4   9  14    4.50    3.10
  -3  -9  14   18.90    5.00
  -3  -9  14    2.90    4.30
  -3   9  14   13.50    4.70
  -2  -9  14   -3.20    4.80
  -2  -9  14   -1.80    4.90
  -2   9  14    4.60    3.50
  -1  -9  14   44.80    7.20
  -1  -9  14   45.70    7.40
  -1   9  14   37.60    5.40
  -4 -10  14   -3.60    4.90
  -4 -10  14    7.40    5.20
  -4  10  14    6.90    3.40
  -4  10  14    4.00    2.90
  -3 -10  14   -7.40    4.70
  -3 -10  14    0.40    4.60
  -3  10  14    3.50    3.70
  -8   0  15   -4.10    3.80
  -8   0  15    3.90    4.40
  -8   0  15    3.40    4.50
  -7   0  15   20.60    5.50
  -7   0  15   18.70    4.60
  -6   0  15   -2.70    3.30
  -6   0  15   -3.80    3.70
  -6   0  15    1.60    4.00
  -5   0  15    3.70    2.90
  -5   0  15    5.40    3.70
  -3   0  15    4.90    8.20
  -2   0  15    3.10    6.00
  -1   0  15    2.30    8.10
   1   0  15    2.60    5.10
  -8  -1  15   21.50    5.30
  -8  -1  15   16.40    5.50
  -8  -1  15   17.00    5.10
  -8   1  15   19.10    5.40
  -8   1  15   22.40    5.40
  -8   1  15   20.50    4.80
  -7  -1  15   -3.10    4.20
  -7  -1  15    4.30    4.40
  -7  -1  15    3.30    4.60
  -7   1  15    8.10    4.40
  -7   1  15   11.60    4.30
  -7   1  15   24.00    7.90
  -6  -1  15   17.70    4.80
  -6  -1  15    8.40    4.20
  -6  -1  15   23.90    4.90
  -6   1  15   22.00    4.40
  -6   1  15   21.50    4.80
  -5  -1  15   21.00    6.70
  -5  -1  15   22.30    3.90
  -5   1  15   19.50    4.90
  -5   1  15   14.70    3.90
  -5   1  15   16.30    3.30
  -4  -1  15   29.10    4.20
  -4   1  15   30.00    5.70
  -3  -1  15    3.10    3.80
  -3   1  15   11.30    6.10
  -2  -1  15   32.50    6.40
  -2   1  15   34.70    9.30
  -1  -1  15   13.10    5.30
  -1   1  15    4.60    5.30
   0  -1  15   16.30    6.30
   0   1  15    7.60    5.10
   1   1  15    4.90    5.20
  -8  -2  15    6.20    4.70
  -8  -2  15    7.90    4.60
  -8   2  15    2.20    4.40
  -8   2  15   15.60    4.40
  -8   2  15   15.30    5.20
  -7  -2  15   13.40    4.80
  -7  -2  15    7.60    4.90
  -7  -2  15    7.80    4.40
  -7   2  15    6.90    4.20
  -7   2  15    3.60    4.00
  -7   2  15    5.20    4.40
  -6  -2  15   -1.70    3.80
  -6  -2  15    3.60    4.60
  -6  -2  15    1.70    4.20
  -6   2  15   -3.80    4.00
  -6   2  15    1.80    3.50
  -5  -2  15    3.20    3.40
  -5   2  15    3.60    3.80
  -5   2  15   -1.40    3.20
  -5   2  15   -0.20    3.20
   5   2 -15   -8.20    8.50
  -4  -2  15   10.70    4.50
  -4  -2  15    3.10    2.90
  -4   2  15    5.70    4.40
  -3  -2  15    4.00    3.90
  -3   2  15    3.00    4.10
  -2  -2  15    9.10    4.70
  -2   2  15   -3.00    4.10
  -1  -2  15   -4.00    4.40
  -1   2  15    3.00    4.50
   0  -2  15    7.20    5.00
   0   2  15    3.80    4.80
   1  -2  15    5.40    5.60
   1   2  15   -5.40    5.00
  -8  -3  15   10.30    5.10
  -8  -3  15   10.20    4.40
  -8   3  15   11.40    4.40
  -8   3  15   -2.60    3.70
  -8   3  15   -6.20    4.60
  -7  -3  15   17.30    4.70
  -7  -3  15   17.80    5.30
  -7   3  15   17.90    4.30
  -7   3  15    9.60    4.60
  -7   3  15    7.80    4.50
  -6  -3  15   12.40    5.10
  -6  -3  15   12.20    5.40
  -6  -3  15   19.60    6.20
  -6   3  15   14.80    3.90
  -6   3  15   14.40    4.20
  -5  -3  15   22.80    5.00
   5   3 -15   13.40    6.90
  -5   3  15   25.60    5.40
  -5   3  15   21.90    4.00
  -5   3  15   20.20    2.60
  -4  -3  15    3.00    3.40
  -4  -3  15    7.00    4.70
   4   3 -15    4.70    4.30
  -4   3  15    9.90    4.20
  -3  -3  15   37.70    4.50
  -3  -3  15   28.40    5.30
   3   3 -15   24.00    3.80
  -3   3  15   35.50    5.90
  -2  -3  15   47.70    7.30
  -2   3  15   34.00    6.00
  -1  -3  15   -2.90    4.40
  -1   3  15    1.90    4.50
   0  -3  15   17.20    6.20
   0   3  15   12.00    5.40
   1  -3  15   24.50    6.40
   1   3  15   21.90    5.70
  -8  -4  15   10.80    4.90
  -8  -4  15   10.10    5.00
  -8   4  15    7.60    4.50
  -8   4  15    5.60    4.60
  -8   4  15    5.80    3.20
  -7  -4  15   -4.50    4.30
  -7  -4  15   -2.90    3.90
  -7   4  15    5.20    3.90
  -7   4  15   10.80    4.20
  -7   4  15    2.60    3.30
  -6  -4  15    7.80    4.30
  -6  -4  15   -4.80    4.20
  -6   4  15    3.70    3.40
  -6   4  15    4.80    3.10
  -5  -4  15   -4.20    3.80
  -5  -4  15    0.40    6.20
  -5   4  15    1.80    3.80
  -4  -4  15    5.80    3.90
  -4  -4  15   -0.40    4.60
  -4   4  15    6.90    4.30
  -3  -4  15   10.50    3.30
  -3  -4  15   -0.20    4.20
  -3   4  15    5.60    4.20
   3   4 -15    6.30    4.40
  -2  -4  15   13.90    4.70
  -2  -4  15   12.40    3.20
  -2   4  15   13.90    5.00
   2   4 -15    4.90    4.10
  -1  -4  15    0.80    4.70
  -1   4  15   12.20    4.60
   0  -4  15   -4.70    4.90
   0   4  15   -4.90    4.00
  -7  -5  15   23.50    5.80
  -7  -5  15   10.20    5.60
  -7   5  15   20.70    4.70
  -7   5  15   23.10    4.60
  -7   5  15   18.60    4.30
  -6  -5  15   20.60    5.70
  -6  -5  15   16.30    5.00
  -6   5  15   17.10    3.60
  -6   5  15   14.40    4.10
  -5  -5  15   13.60    7.50
  -5  -5  15   23.10    5.50
  -5   5  15   13.40    4.30
  -4  -5  15   15.10    4.60
  -4  -5  15    5.40    5.10
  -4   5  15    7.50    4.40
  -3  -5  15   44.40    6.90
  -3  -5  15   31.00    5.30
  -3   5  15   37.60    6.00
  -2  -5  15    7.50    4.80
  -2  -5  15    6.70    3.60
  -2   5  15   10.70    4.40
  -1  -5  15   32.60    6.50
  -1   5  15   25.60    5.80
   0  -5  15    2.70    4.70
   0   5  15   -2.00    4.40
  -7   6  15    6.30    4.00
  -6  -6  15    1.90    4.60
  -6  -6  15    0.70    4.60
  -6   6  15    7.50    3.20
  -6   6  15   14.50    4.10
  -5  -6  15    5.80    5.40
  -5  -6  15   13.50    5.10
  -5   6  15    2.00    3.40
  -4  -6  15    7.00    4.70
  -4  -6  15    0.80    4.30
  -4   6  15    6.10    3.70
  -3  -6  15    5.60    4.80
  -3  -6  15   -0.20    4.30
  -3   6  15    1.40    3.50
  -2  -6  15   -4.10    4.40
  -2  -6  15    3.30    4.30
  -2   6  15    4.70    4.50
  -1  -6  15    6.70    5.00
  -1  -6  15   -1.50    3.80
  -1   6  15    4.50    4.70
  -6  -7  15   29.30    6.40
  -6  -7  15   11.50    5.10
  -6   7  15    9.40    3.50
  -6   7  15   15.20    4.20
  -5  -7  15    0.60    5.20
  -5   7  15    3.00    3.70
  -4  -7  15   20.50    5.80
  -4   7  15   24.40    4.80
  -3  -7  15   12.50    5.20
  -3  -7  15   11.40    5.10
  -3   7  15    1.30    3.90
  -2  -7  15   44.40    7.90
  -2  -7  15   28.40    6.30
  -2   7  15   17.70    5.20
  -6   0  16   13.10    4.90
  -6   0  16   11.50    4.40
  -5   0  16    4.10    3.90
  -4   0  16    4.80    5.30
  -3   0  16   10.20    4.40
  -2   0  16   12.50    5.30
  -6  -1  16   17.20    5.20
  -6  -1  16    2.10    4.40
  -6   1  16    5.00    3.40
  -6   1  16    7.30    4.80
  -5  -1  16    1.70    4.80
  -5  -1  16    2.20    3.00
  -5   1  16    7.20    4.40
  -4  -1  16    5.80    4.30
  -4   1  16    0.90    4.20
  -3  -1  16   14.70    5.60
  -3   1  16   16.50    5.80
  -2  -1  16   -1.00    4.60
  -2   1  16   10.00    5.70
  -6  -2  16    5.80    4.80
  -6  -2  16    6.60    4.30
  -6   2  16    6.60    3.00
  -6   2  16    5.60    4.40
  -5  -2  16   -0.40    4.30
  -5  -2  16    1.00    3.70
  -5   2  16    5.20    4.30
  -4  -2  16   -6.90    4.00
  -4   2  16    5.20    4.40
  -3  -2  16    2.60    4.90
  -3   2  16    1.80    4.10
  -2  -2  16   -2.60    5.00
  -2   2  16   14.20    5.20
  -6  -3  16   16.80    5.40
  -5  -3  16    1.80    4.40
  -5  -3  16    3.80    5.00
  -5   3  16    7.00    5.00
  -4  -3  16   12.10    5.10
  -4  -3  16   14.80    3.20
  -4   3  16   11.70    5.10
  -3  -3  16   -2.70    5.30
  -3   3  16    1.60    4.20
  -2  -3  16   30.70    6.50
  -2   3  16   34.80    6.50
  -5  -4  16   -5.00    4.50
  -5  -4  16   -0.30    4.60
  -5   4  16   -0.30    3.80
  -4  -4  16   18.10    4.30
  -4  -4  16    4.20    4.90
  -4   4  16   -2.50    4.20
  -3  -4  16    2.80    4.70
  -3  -4  16    4.90    4.40
  -3   4  16    5.40    4.80
   0   0   0    0.00    0.00

_computing_structure_solution     'SHELXT 2018/2 (Sheldrick, 2018)'
;
_shelx_hkl_checksum   82995

