 
data_VV-6_a
 
_audit_creation_method            'SHELXL-2019/3'
_shelx_SHELXL_version_number      '2019/3'
_chemical_name_systematic         ?
_chemical_name_common             ?
_chemical_melting_point           ?
_chemical_formula_moiety          ?
_chemical_formula_sum
 'C H N O Zn' 
_chemical_formula_weight          108.40

loop_
 _atom_type_symbol
 _atom_type_description
 _atom_type_scat_dispersion_real
 _atom_type_scat_dispersion_imag
 _atom_type_scat_source
 'C'  'C'   0.0033   0.0016
 'International Tables Vol C Tables 4.2.6.8 and 6.1.1.4'
 'H'  'H'   0.0000   0.0000
 'International Tables Vol C Tables 4.2.6.8 and 6.1.1.4'
 'N'  'N'   0.0061   0.0033
 'International Tables Vol C Tables 4.2.6.8 and 6.1.1.4'
 'O'  'O'   0.0106   0.0060
 'International Tables Vol C Tables 4.2.6.8 and 6.1.1.4'
 'Zn'  'Zn'   0.2839   1.4301
 'International Tables Vol C Tables 4.2.6.8 and 6.1.1.4'
 
_space_group_crystal_system       orthorhombic
_space_group_IT_number            29
_space_group_name_H-M_alt         'P c a 21'
_space_group_name_Hall            'P 2c -2ac'
 
_shelx_space_group_comment
;
The symmetry employed for this shelxl refinement is uniquely defined
by the following loop, which should always be used as a source of
symmetry information in preference to the above space-group names.
They are only intended as comments.
;
 
loop_
 _space_group_symop_operation_xyz
 'x, y, z'
 '-x, -y, z+1/2'
 'x+1/2, -y, z'
 '-x+1/2, y, z+1/2'
 
_cell_length_a                    18.498(3)
_cell_length_b                    7.5543(10)
_cell_length_c                    13.0944(15)
_cell_angle_alpha                 90
_cell_angle_beta                  90
_cell_angle_gamma                 90
_cell_volume                      1829.8(4)
_cell_formula_units_Z             23
_cell_measurement_temperature     150(2)
_cell_measurement_reflns_used     ?
_cell_measurement_theta_min       ?
_cell_measurement_theta_max       ?
 
_exptl_crystal_description        ?
_exptl_crystal_colour             ?
_exptl_crystal_density_meas       ?
_exptl_crystal_density_method     ?
_exptl_crystal_density_diffrn     2.263          
_exptl_crystal_F_000              1196
_exptl_transmission_factor_min    ?
_exptl_transmission_factor_max    ?
_exptl_crystal_size_max           ?
_exptl_crystal_size_mid           ?
_exptl_crystal_size_min           ?
_exptl_absorpt_coefficient_mu     7.447
_shelx_estimated_absorpt_T_min    ?
_shelx_estimated_absorpt_T_max    ?
_exptl_absorpt_correction_type    ?
_exptl_absorpt_correction_T_min   ?
_exptl_absorpt_correction_T_max   ?
_exptl_absorpt_process_details    ?
_exptl_absorpt_special_details    ?
_diffrn_ambient_temperature       150(2)
_diffrn_radiation_wavelength      0.71073
_diffrn_radiation_type            MoK\a
_diffrn_source                    ?
_diffrn_measurement_device_type   ?
_diffrn_measurement_method        ?
_diffrn_detector_area_resol_mean  ?
_diffrn_reflns_number             7189
_diffrn_reflns_av_unetI/netI      0.1175
_diffrn_reflns_av_R_equivalents   0.0819
_diffrn_reflns_limit_h_min        -21
_diffrn_reflns_limit_h_max        19
_diffrn_reflns_limit_k_min        -7
_diffrn_reflns_limit_k_max        8
_diffrn_reflns_limit_l_min        -15
_diffrn_reflns_limit_l_max        15
_diffrn_reflns_theta_min          2.696
_diffrn_reflns_theta_max          24.750
_diffrn_reflns_theta_full         24.750
_diffrn_measured_fraction_theta_max   0.997
_diffrn_measured_fraction_theta_full  0.997
_diffrn_reflns_Laue_measured_fraction_max    0.997
_diffrn_reflns_Laue_measured_fraction_full   0.997
_diffrn_reflns_point_group_measured_fraction_max   0.945
_diffrn_reflns_point_group_measured_fraction_full  0.945
_reflns_number_total              2958
_reflns_number_gt                 2054
_reflns_threshold_expression      'I > 2\s(I)'
_reflns_Friedel_coverage          0.806
_reflns_Friedel_fraction_max      0.887
_reflns_Friedel_fraction_full     0.888
 
_reflns_special_details
;
 Reflections were merged by SHELXL according to the crystal
 class for the calculation of statistics and refinement.
 
 _reflns_Friedel_fraction is defined as the number of unique
 Friedel pairs measured divided by the number that would be
 possible theoretically, ignoring centric projections and
 systematic absences.
;
 
_computing_data_collection        ?
_computing_cell_refinement        ?
_computing_data_reduction         ?
_computing_structure_solution     'SHELXT 2018/2 (Sheldrick, 2018)'
_computing_structure_refinement 'SHELXL-2019/2 (Sheldrick, 2019)'
_computing_molecular_graphics     ?
_computing_publication_material   ?
_refine_special_details           ?
_refine_ls_structure_factor_coef  Fsqd
_refine_ls_matrix_type            full
_refine_ls_weighting_scheme       calc
_refine_ls_weighting_details
'w=1/[\s^2^(Fo^2^)+(0.1000P)^2^] where P=(Fo^2^+2Fc^2^)/3'
_atom_sites_solution_primary      ?
_atom_sites_solution_secondary    ?
_atom_sites_solution_hydrogens    geom
_refine_ls_hydrogen_treatment     constr
_refine_ls_extinction_method      none
_refine_ls_extinction_coef        .
_refine_ls_abs_structure_details
;
 Flack x determined using 655 quotients [(I+)-(I-)]/[(I+)+(I-)]
 (Parsons, Flack and Wagner, Acta Cryst. B69 (2013) 249-259).
;
_refine_ls_abs_structure_Flack    0.02(2)
_chemical_absolute_configuration  ?
_refine_ls_number_reflns          2958
_refine_ls_number_parameters      289
_refine_ls_number_restraints      1
_refine_ls_R_factor_all           0.0965
_refine_ls_R_factor_gt            0.0590
_refine_ls_wR_factor_ref          0.1570
_refine_ls_wR_factor_gt           0.1326
_refine_ls_goodness_of_fit_ref    0.852
_refine_ls_restrained_S_all       0.852
_refine_ls_shift/su_max           0.000
_refine_ls_shift/su_mean          0.000
 
loop_
 _atom_site_label
 _atom_site_type_symbol
 _atom_site_fract_x
 _atom_site_fract_y
 _atom_site_fract_z
 _atom_site_U_iso_or_equiv
 _atom_site_adp_type
 _atom_site_occupancy
 _atom_site_site_symmetry_order  
 _atom_site_calc_flag
 _atom_site_refinement_flags_posn
 _atom_site_refinement_flags_adp
 _atom_site_refinement_flags_occupancy
 _atom_site_disorder_assembly
 _atom_site_disorder_group
Zn1 Zn 0.54614(6) 0.45113(18) 0.60683(14) 0.0274(4) Uani 1 1 d . . . . .
O1 O 0.1444(5) 0.5094(12) 0.6590(6) 0.031(2) Uani 1 1 d . . . . .
O2 O 0.4786(5) 0.3381(12) 0.6995(6) 0.034(2) Uani 1 1 d . . . . .
O3 O 0.2531(6) 0.9982(12) 0.0944(9) 0.050(3) Uani 1 1 d . . . . .
O4 O 0.0966(5) 0.3493(14) 0.7838(7) 0.038(2) Uani 1 1 d . . . . .
O5 O 0.4000(5) 0.3346(12) 0.5677(6) 0.027(2) Uani 1 1 d . . . . .
N1 N 0.0828(6) 0.6785(15) 0.4792(7) 0.031(3) Uani 1 1 d . . . . .
N2 N 0.3253(6) 1.0113(14) 0.1249(8) 0.036(3) Uani 1 1 d . . . . .
N3 N 0.2088(7) 0.9223(15) 0.1701(8) 0.038(3) Uani 1 1 d . . . . .
N4 N 0.4242(6) 0.8136(13) 0.4465(7) 0.025(2) Uani 1 1 d . . . . .
N5 N 0.4993(5) 0.6624(13) 0.5451(7) 0.024(2) Uani 1 1 d . . . . .
N6 N 0.1689(6) 0.7643(15) 0.3746(8) 0.031(3) Uani 1 1 d . . . . .
C1 C 0.2522(9) 0.8897(17) 0.2442(9) 0.032(3) Uani 1 1 d . . . . .
C2 C 0.3254(8) 0.9380(17) 0.2164(10) 0.035(3) Uani 1 1 d . . . . .
C3 C 0.3843(8) 0.9222(17) 0.2833(10) 0.036(3) Uani 1 1 d . . . . .
H3 H 0.431307 0.964481 0.267313 0.043 Uiso 1 1 calc R U . . .
C4 C 0.3678(7) 0.8400(17) 0.3741(8) 0.022(3) Uani 1 1 d . . . . .
C5 C 0.2984(8) 0.7877(18) 0.4036(11) 0.032(4) Uani 1 1 d . . . . .
H5 H 0.292199 0.735657 0.469040 0.039 Uiso 1 1 calc R U . . .
C6 C 0.2382(8) 0.8085(17) 0.3413(9) 0.028(4) Uani 1 1 d . . . . .
C7 C 0.4514(8) 0.6550(18) 0.4688(10) 0.036(3) Uani 1 1 d . . . . .
H7 H 0.438268 0.549015 0.434410 0.043 Uiso 1 1 calc R U . . .
C8 C 0.5008(9) 0.8378(19) 0.5722(11) 0.046(4) Uani 1 1 d . . . . .
H8 H 0.529413 0.886220 0.625637 0.056 Uiso 1 1 calc R U . . .
C9 C 0.4560(9) 0.931(2) 0.5122(13) 0.057(5) Uani 1 1 d . . . . .
H9 H 0.447792 1.055102 0.514831 0.068 Uiso 1 1 calc R U . . .
C10 C 0.1519(8) 0.6965(18) 0.4684(9) 0.029(3) Uani 1 1 d . . . . .
H10 H 0.186481 0.666537 0.519260 0.035 Uiso 1 1 calc R U . . .
C11 C 0.0534(8) 0.729(2) 0.3863(12) 0.044(4) Uani 1 1 d . . . . .
H11 H 0.003434 0.722531 0.370141 0.053 Uiso 1 1 calc R U . . .
C12 C 0.1035(8) 0.788(2) 0.3235(12) 0.044(4) Uani 1 1 d . . . . .
H12 H 0.096585 0.835500 0.257130 0.053 Uiso 1 1 calc R U . . .
C13 C 0.4148(8) 0.3325(19) 0.6599(10) 0.025(3) Uani 1 1 d . . . . .
C14 C 0.3533(7) 0.3260(15) 0.7359(9) 0.020(3) Uani 1 1 d . . . . .
C15 C 0.2826(6) 0.3700(16) 0.7055(9) 0.024(3) Uani 1 1 d . . . . .
H15 H 0.273597 0.405083 0.636950 0.028 Uiso 1 1 calc R U . . .
C16 C 0.2260(7) 0.3626(15) 0.7745(8) 0.018(3) Uani 1 1 d . . . . .
C17 C 0.2375(7) 0.3114(15) 0.8747(9) 0.023(3) Uani 1 1 d . . . . .
H17 H 0.198550 0.303699 0.921785 0.028 Uiso 1 1 calc R U . . .
C18 C 0.3068(8) 0.2722(18) 0.9040(9) 0.031(4) Uani 1 1 d . . . . .
H18 H 0.315361 0.237131 0.972608 0.037 Uiso 1 1 calc R U . . .
C19 C 0.3636(8) 0.2815(17) 0.8389(10) 0.030(3) Uani 1 1 d . . . . .
H19 H 0.411007 0.257614 0.863300 0.036 Uiso 1 1 calc R U . . .
C20 C 0.1497(7) 0.4099(15) 0.7386(9) 0.021(3) Uani 1 1 d . . . . .
 
loop_
 _atom_site_aniso_label
 _atom_site_aniso_U_11
 _atom_site_aniso_U_22
 _atom_site_aniso_U_33
 _atom_site_aniso_U_23
 _atom_site_aniso_U_13
 _atom_site_aniso_U_12
Zn1 0.0187(7) 0.0377(8) 0.0258(6) -0.0014(9) -0.0016(9) -0.0028(7)
O1 0.022(5) 0.046(6) 0.025(4) 0.014(5) -0.002(4) 0.003(4)
O2 0.020(5) 0.048(6) 0.033(5) 0.007(5) -0.002(4) -0.006(5)
O3 0.079(8) 0.042(6) 0.029(6) 0.011(6) 0.003(7) 0.004(5)
O4 0.024(6) 0.057(7) 0.033(5) 0.009(5) 0.010(4) -0.004(5)
O5 0.030(6) 0.034(5) 0.017(4) -0.002(4) 0.014(4) 0.002(4)
N1 0.029(7) 0.037(7) 0.027(6) 0.000(5) -0.008(5) -0.007(6)
N2 0.042(7) 0.043(7) 0.025(7) 0.007(6) 0.004(6) 0.001(5)
N3 0.049(8) 0.039(8) 0.027(7) 0.009(6) 0.016(5) 0.002(6)
N4 0.040(7) 0.017(6) 0.019(5) 0.004(5) 0.006(5) -0.005(5)
N5 0.031(7) 0.027(6) 0.014(5) -0.003(4) 0.002(5) -0.008(5)
N6 0.031(7) 0.035(7) 0.026(6) 0.006(6) -0.014(5) -0.005(6)
C1 0.056(10) 0.020(7) 0.019(6) 0.004(6) -0.008(6) 0.012(7)
C2 0.048(9) 0.028(8) 0.030(7) 0.011(7) 0.009(7) -0.002(7)
C3 0.035(9) 0.026(8) 0.047(8) 0.015(7) 0.003(7) 0.007(6)
C4 0.030(9) 0.022(7) 0.012(6) 0.005(6) 0.009(6) 0.011(6)
C5 0.051(11) 0.019(7) 0.027(7) 0.004(6) -0.001(6) -0.011(7)
C6 0.039(11) 0.026(7) 0.018(8) 0.006(6) 0.013(7) 0.005(7)
C7 0.045(10) 0.029(8) 0.033(8) 0.001(7) -0.008(7) 0.002(7)
C8 0.056(11) 0.044(9) 0.039(9) -0.019(7) -0.016(7) 0.002(8)
C9 0.075(13) 0.029(9) 0.066(11) -0.016(8) -0.016(10) -0.009(9)
C10 0.030(9) 0.043(9) 0.015(6) 0.000(6) -0.002(5) -0.002(7)
C11 0.028(9) 0.056(11) 0.049(9) 0.004(8) -0.021(8) 0.000(8)
C12 0.037(10) 0.052(11) 0.044(9) 0.013(8) -0.015(8) -0.013(8)
C13 0.017(8) 0.024(8) 0.032(8) 0.003(6) 0.007(6) -0.002(6)
C14 0.022(7) 0.021(7) 0.017(6) -0.001(5) -0.006(5) -0.010(6)
C15 0.022(7) 0.024(7) 0.025(6) 0.002(6) -0.003(6) -0.003(6)
C16 0.025(7) 0.012(6) 0.017(6) -0.007(5) 0.002(5) -0.002(6)
C17 0.024(9) 0.028(7) 0.018(7) -0.012(6) 0.002(6) -0.004(6)
C18 0.052(11) 0.028(8) 0.012(6) 0.004(6) -0.005(6) 0.001(7)
C19 0.022(8) 0.032(8) 0.035(8) 0.000(6) -0.003(6) -0.003(6)
C20 0.021(7) 0.017(7) 0.024(7) -0.011(6) 0.008(5) -0.002(6)
 
_geom_special_details
;
 All esds (except the esd in the dihedral angle between two l.s. planes)
 are estimated using the full covariance matrix.  The cell esds are taken
 into account individually in the estimation of esds in distances, angles
 and torsion angles; correlations between esds in cell parameters are only
 used when they are defined by crystal symmetry.  An approximate (isotropic)
 treatment of cell esds is used for estimating esds involving l.s. planes.
;
 
loop_
 _geom_bond_atom_site_label_1
 _geom_bond_atom_site_label_2
 _geom_bond_distance
 _geom_bond_site_symmetry_2
 _geom_bond_publ_flag
Zn1 O2 1.940(9) . ?
Zn1 O1 1.965(9) 3_565 ?
Zn1 N5 1.988(10) . ?
Zn1 N1 2.053(11) 3_565 ?
O1 C20 1.288(14) . ?
O2 C13 1.289(15) . ?
O3 N2 1.397(14) . ?
O3 N3 1.408(15) . ?
O4 C20 1.236(14) . ?
O5 C13 1.239(13) . ?
N1 C10 1.293(16) . ?
N1 C11 1.385(17) . ?
N2 C2 1.319(17) . ?
N3 C1 1.284(16) . ?
N4 C7 1.331(16) . ?
N4 C9 1.368(17) . ?
N4 C4 1.424(16) . ?
N5 C7 1.337(16) . ?
N5 C8 1.372(16) . ?
N6 C10 1.368(16) . ?
N6 C6 1.393(18) . ?
N6 C12 1.393(17) . ?
C1 C6 1.436(17) . ?
C1 C2 1.45(2) . ?
C2 C3 1.403(19) . ?
C3 C4 1.376(17) . ?
C4 C5 1.396(19) . ?
C5 C6 1.39(2) . ?
C8 C9 1.34(2) . ?
C11 C12 1.32(2) . ?
C13 C14 1.512(17) . ?
C14 C19 1.403(16) . ?
C14 C15 1.408(16) . ?
C15 C16 1.385(16) . ?
C16 C17 1.384(16) . ?
C16 C20 1.529(17) . ?
C17 C18 1.371(19) . ?
C18 C19 1.355(19) . ?
 
loop_
 _geom_angle_atom_site_label_1
 _geom_angle_atom_site_label_2
 _geom_angle_atom_site_label_3
 _geom_angle
 _geom_angle_site_symmetry_1
 _geom_angle_site_symmetry_3
 _geom_angle_publ_flag
O2 Zn1 O1 116.5(4) . 3_565 ?
O2 Zn1 N5 109.1(4) . . ?
O1 Zn1 N5 115.0(4) 3_565 . ?
O2 Zn1 N1 120.8(4) . 3_565 ?
O1 Zn1 N1 92.9(4) 3_565 3_565 ?
N5 Zn1 N1 101.3(4) . 3_565 ?
C20 O1 Zn1 116.1(8) . 3_465 ?
C13 O2 Zn1 110.7(8) . . ?
N2 O3 N3 112.6(9) . . ?
C10 N1 C11 105.3(11) . . ?
C10 N1 Zn1 117.7(8) . 3_465 ?
C11 N1 Zn1 135.8(10) . 3_465 ?
C2 N2 O3 103.4(11) . . ?
C1 N3 O3 104.2(11) . . ?
C7 N4 C9 106.5(12) . . ?
C7 N4 C4 123.2(11) . . ?
C9 N4 C4 130.0(12) . . ?
C7 N5 C8 104.3(11) . . ?
C7 N5 Zn1 124.0(9) . . ?
C8 N5 Zn1 131.4(9) . . ?
C10 N6 C6 125.6(11) . . ?
C10 N6 C12 106.2(12) . . ?
C6 N6 C12 128.2(12) . . ?
N3 C1 C6 129.6(15) . . ?
N3 C1 C2 110.3(12) . . ?
C6 C1 C2 120.0(12) . . ?
N2 C2 C3 127.1(13) . . ?
N2 C2 C1 109.4(13) . . ?
C3 C2 C1 123.2(12) . . ?
C4 C3 C2 114.0(13) . . ?
C3 C4 C5 124.8(13) . . ?
C3 C4 N4 118.4(12) . . ?
C5 C4 N4 116.7(10) . . ?
C6 C5 C4 122.9(13) . . ?
C5 C6 N6 121.8(12) . . ?
C5 C6 C1 115.0(14) . . ?
N6 C6 C1 123.1(12) . . ?
N4 C7 N5 112.1(12) . . ?
C9 C8 N5 110.0(12) . . ?
C8 C9 N4 107.1(13) . . ?
N1 C10 N6 111.4(11) . . ?
C12 C11 N1 111.4(13) . . ?
C11 C12 N6 105.6(13) . . ?
O5 C13 O2 126.4(13) . . ?
O5 C13 C14 118.4(13) . . ?
O2 C13 C14 115.2(11) . . ?
C19 C14 C15 117.1(12) . . ?
C19 C14 C13 122.5(11) . . ?
C15 C14 C13 120.4(11) . . ?
C16 C15 C14 120.5(11) . . ?
C17 C16 C15 120.9(12) . . ?
C17 C16 C20 119.9(11) . . ?
C15 C16 C20 119.1(10) . . ?
C18 C17 C16 118.0(11) . . ?
C19 C18 C17 122.6(12) . . ?
C18 C19 C14 120.8(13) . . ?
O4 C20 O1 122.9(12) . . ?
O4 C20 C16 119.9(11) . . ?
O1 C20 C16 117.1(10) . . ?
 
_refine_diff_density_max    0.769
_refine_diff_density_min   -0.564
_refine_diff_density_rms    0.093

_shelx_res_file
;
TITL VV-6_a.res in Pca2(1)
    VV-6_a.res
    created by SHELXL-2019/3 at 11:06:09 on 15-Nov-2023
REM Old TITL VV-6 in Pca2(1)
REM SHELXT solution in Pca2(1): R1 0.108, Rweak 0.020, Alpha 0.007
REM <I/s>   0.403 for  195 systematic absences,  Orientation as input
REM Flack x =  0.023 ( 0.020 ) from   727 Parsons' quotients
REM Formula found by SHELXT:  C22 N6 O3 Zn
CELL  0.71073  18.4976   7.5543  13.0944   90.000   90.000   90.000
ZERR   23.000   0.0025   0.0010   0.0015    0.000    0.000    0.000
LATT -1
SYMM -X, -Y, 1/2+Z
SYMM 1/2+X, -Y, Z
SYMM 1/2-X, Y, 1/2+Z
SFAC C H N O ZN
UNIT 23 23 23 23 23
ACTA
TEMP -123.150
L.S. 10
BOND
LIST 6
FMAP 2
PLAN 20
WGHT    0.100000
FVAR       0.36759
ZN1   5    0.546143    0.451129    0.606831    11.00000    0.01869    0.03766 =
         0.02582   -0.00141   -0.00163   -0.00284
O1    4    0.144408    0.509358    0.659018    11.00000    0.02244    0.04639 =
         0.02532    0.01445   -0.00210    0.00263
O2    4    0.478564    0.338150    0.699464    11.00000    0.02022    0.04806 =
         0.03257    0.00708   -0.00209   -0.00622
O3    4    0.253096    0.998228    0.094429    11.00000    0.07883    0.04184 =
         0.02940    0.01112    0.00296    0.00410
O4    4    0.096590    0.349251    0.783847    11.00000    0.02432    0.05724 =
         0.03274    0.00869    0.00958   -0.00446
O5    4    0.400049    0.334586    0.567663    11.00000    0.03000    0.03382 =
         0.01719   -0.00151    0.01437    0.00212
N1    3    0.082807    0.678457    0.479167    11.00000    0.02863    0.03709 =
         0.02726   -0.00008   -0.00824   -0.00705
N2    3    0.325277    1.011302    0.124919    11.00000    0.04169    0.04266 =
         0.02514    0.00699    0.00429    0.00117
N3    3    0.208756    0.922305    0.170094    11.00000    0.04901    0.03889 =
         0.02654    0.00851    0.01629    0.00228
N4    3    0.424211    0.813610    0.446506    11.00000    0.03968    0.01677 =
         0.01938    0.00407    0.00604   -0.00530
N5    3    0.499286    0.662444    0.545143    11.00000    0.03087    0.02687 =
         0.01389   -0.00320    0.00182   -0.00787
N6    3    0.168922    0.764301    0.374585    11.00000    0.03104    0.03546 =
         0.02639    0.00647   -0.01424   -0.00520
C1    1    0.252250    0.889726    0.244192    11.00000    0.05562    0.01990 =
         0.01934    0.00415   -0.00840    0.01171
C2    1    0.325378    0.937981    0.216357    11.00000    0.04757    0.02831 =
         0.02993    0.01119    0.00898   -0.00217
C3    1    0.384277    0.922203    0.283279    11.00000    0.03478    0.02554 =
         0.04720    0.01516    0.00287    0.00684
AFIX  43
H3    2    0.431307    0.964481    0.267313    11.00000   -1.20000
AFIX   0
C4    1    0.367784    0.839979    0.374114    11.00000    0.03039    0.02246 =
         0.01239    0.00491    0.00901    0.01086
C5    1    0.298446    0.787703    0.403587    11.00000    0.05100    0.01886 =
         0.02672    0.00399   -0.00091   -0.01062
AFIX  43
H5    2    0.292199    0.735657    0.469040    11.00000   -1.20000
AFIX   0
C6    1    0.238162    0.808481    0.341349    11.00000    0.03918    0.02616 =
         0.01767    0.00605    0.01310    0.00529
C7    1    0.451378    0.655027    0.468762    11.00000    0.04499    0.02935 =
         0.03267    0.00063   -0.00790    0.00210
AFIX  43
H7    2    0.438268    0.549015    0.434410    11.00000   -1.20000
AFIX   0
C8    1    0.500812    0.837828    0.572234    11.00000    0.05598    0.04406 =
         0.03894   -0.01862   -0.01600    0.00233
AFIX  43
H8    2    0.529413    0.886220    0.625637    11.00000   -1.20000
AFIX   0
C9    1    0.455953    0.931028    0.512196    11.00000    0.07473    0.02936 =
         0.06622   -0.01640   -0.01625   -0.00941
AFIX  43
H9    2    0.447792    1.055102    0.514831    11.00000   -1.20000
AFIX   0
C10   1    0.151929    0.696515    0.468447    11.00000    0.03027    0.04328 =
         0.01456    0.00035   -0.00185   -0.00162
AFIX  43
H10   2    0.186481    0.666537    0.519260    11.00000   -1.20000
AFIX   0
C11   1    0.053422    0.729121    0.386348    11.00000    0.02774    0.05636 =
         0.04874    0.00432   -0.02084   -0.00003
AFIX  43
H11   2    0.003434    0.722531    0.370141    11.00000   -1.20000
AFIX   0
C12   1    0.103534    0.787535    0.323473    11.00000    0.03681    0.05184 =
         0.04412    0.01336   -0.01459   -0.01337
AFIX  43
H12   2    0.096585    0.835500    0.257130    11.00000   -1.20000
AFIX   0
C13   1    0.414817    0.332461    0.659931    11.00000    0.01744    0.02386 =
         0.03238    0.00292    0.00701   -0.00161
C14   1    0.353303    0.326005    0.735915    11.00000    0.02229    0.02119 =
         0.01700   -0.00142   -0.00632   -0.00964
C15   1    0.282574    0.370023    0.705459    11.00000    0.02212    0.02437 =
         0.02459    0.00178   -0.00251   -0.00251
AFIX  43
H15   2    0.273597    0.405083    0.636950    11.00000   -1.20000
AFIX   0
C16   1    0.225971    0.362644    0.774534    11.00000    0.02545    0.01159 =
         0.01739   -0.00728    0.00246   -0.00156
C17   1    0.237510    0.311429    0.874724    11.00000    0.02418    0.02804 =
         0.01774   -0.01207    0.00176   -0.00355
AFIX  43
H17   2    0.198550    0.303699    0.921785    11.00000   -1.20000
AFIX   0
C18   1    0.306819    0.272211    0.903991    11.00000    0.05198    0.02830 =
         0.01196    0.00368   -0.00539    0.00096
AFIX  43
H18   2    0.315361    0.237131    0.972608    11.00000   -1.20000
AFIX   0
C19   1    0.363632    0.281504    0.838913    11.00000    0.02205    0.03237 =
         0.03462    0.00024   -0.00276   -0.00256
AFIX  43
H19   2    0.411007    0.257614    0.863300    11.00000   -1.20000
AFIX   0
C20   1    0.149708    0.409909    0.738580    11.00000    0.02150    0.01691 =
         0.02369   -0.01139    0.00819   -0.00200
HKLF 4




REM  VV-6_a.res in Pca2(1)
REM wR2 = 0.1570, GooF = S = 0.852, Restrained GooF = 0.852 for all data
REM R1 = 0.0590 for 2054 Fo > 4sig(Fo) and 0.0965 for all 2958 data
REM 289 parameters refined using 1 restraints

END

WGHT      0.0445      0.0000

REM Highest difference peak  0.769,  deepest hole -0.564,  1-sigma level  0.093
Q1    1   0.3810  1.0352  0.1144  11.00000  0.05    0.77
Q2    1   0.4080  0.9602  0.2005  11.00000  0.05    0.39
Q3    1   0.5892  0.8267  0.6071  11.00000  0.05    0.37
Q4    1   0.3565  0.2661  0.5609  11.00000  0.05    0.35
Q5    1   0.3090  0.9995  0.1152  11.00000  0.05    0.34
Q6    1   0.1047  0.5039  0.6032  11.00000  0.05    0.34
Q7    1   0.4359  0.2318  0.8555  11.00000  0.05    0.33
Q8    1   0.0777  0.6709  0.5377  11.00000  0.05    0.32
Q9    1   0.1704  0.5073  0.6064  11.00000  0.05    0.32
Q10   1   0.5900  1.0372  0.5257  11.00000  0.05    0.31
Q11   1   0.5901  0.3219  0.6616  11.00000  0.05    0.31
Q12   1   0.3062  0.7141  0.1756  11.00000  0.05    0.30
Q13   1   0.3980  0.9126  0.1124  11.00000  0.05    0.29
Q14   1   0.4369  0.2337  0.5423  11.00000  0.05    0.29
Q15   1   0.3380  0.1462  0.9940  11.00000  0.05    0.29
Q16   1   0.2176  0.5425  0.6041  11.00000  0.05    0.28
Q17   1   0.0858  0.2649  0.6761  11.00000  0.05    0.28
Q18   1   0.2217  0.4870  0.9596  11.00000  0.05    0.28
Q19   1   0.4731  0.6250  0.6525  11.00000  0.05    0.28
Q20   1   0.0218  0.7016  0.2395  11.00000  0.05    0.28
;
_shelx_res_checksum    7227

_shelx_hkl_file
;
   0   1   0 1705.33   55.79
   0  -1   0 1679.93   55.59
   0  -2   0  391.96   24.50
   0   2   0  384.86   24.30
   0  -3   0 1143.49   52.99
   0   3   0 1170.78   53.79
   0  -4   0    4.00    9.80
   0   4   0   -8.20    6.30
   0  -5   0  102.89   22.90
   0   5   0   75.79   20.70
   0   6   0  187.18   31.60
   0   7   0   18.40   17.10
   0   8   0  218.18   40.10
   0   0   1    1.20    1.30
   0   1   1   -2.90    4.60
   0  -1  -1   -1.90    4.10
   0   1  -1    3.30    3.70
   0  -1   1    2.30    3.20
   0   2   1    1.80    7.80
   0   2  -1   -1.70    6.20
   0  -2   1   -0.60    5.90
   0  -2  -1    1.30    7.40
   0   3   1   -1.40    8.30
   0   3  -1    3.40    7.50
   0  -3   1   -7.80    6.00
   0  -3  -1    5.80    9.30
   0  -4  -1   20.40   10.90
   0   4  -1   11.90    8.80
   0   4   1    0.70    8.90
   0  -4   1   -4.20    8.90
   0   5  -1    6.20   10.60
   0  -5  -1   -0.10   12.70
   0   5   1    6.80   10.50
   0   6  -1   17.60   13.90
   0   7   1   10.70   17.40
   0   7  -1   -1.70   14.00
   0   8  -1    6.40   19.30
   0   8   1   -0.40   17.60
   0   0  -2  912.61   33.00
   0   0   2 1051.19   33.50
   0   1  -2 1114.69   34.40
   0  -1  -2 1142.59   46.30
   0   1   2 1165.38   45.20
   0  -2   2 9816.72  287.67
   0  -2  -2 9741.73  299.47
   0   2  -2 9999.00  287.77
   0   2   2 9899.91  299.57
   0  -3  -2   75.59   18.50
   0   3  -2   67.69   12.40
   0   3   2   23.20   10.60
   0  -3   2   29.40    9.70
   0  -4   2  212.08   26.50
   0   4   2  203.28   29.10
   0   4  -2  282.37   23.60
   0   5  -2   -0.30   10.90
   0  -5   2   28.30   13.60
   0   5   2   40.60   15.50
   0   6   2   73.39   25.50
   0   6  -2   83.39   23.30
   0  -6   2   76.89   26.00
   0   7  -2  101.89   25.70
   0   7   2   49.50   21.30
   0   8  -2   39.90   21.40
   0   8   2   17.40   22.30
   0   0  -3    0.50    4.80
   0   0   3    2.30    5.30
   0  -1  -3   -4.70    7.30
   0   1   3    4.60    8.10
   0   2  -3    3.90    4.10
   0  -2  -3    9.80    9.10
   0  -2   3    0.30    4.90
   0   2   3   -5.40    7.30
   0  -3   3   -1.60    6.50
   0   3   3   -2.40    9.40
   0  -3  -3    1.50    8.90
   0   3  -3   10.10    5.60
   0   4  -3    3.00    7.90
   0   4   3    7.80   10.20
   0  -4   3   16.70   10.20
   0  -4  -3   -2.10    9.90
   0   5  -3    8.80    8.90
   0  -5   3   -4.50    9.50
   0   5   3    7.70   12.40
   0  -6   3  -11.60   14.00
   0   6  -3  -17.50   12.00
   0   6   3   -6.60   11.60
   0   7  -3    3.00   17.00
   0   7   3    8.10   17.30
   0   8   3  -10.60   21.70
   0   8  -3    3.20   19.50
   0   0  -4 1426.16   52.29
   0   0   4 1522.95   52.19
   0   1   4  211.98   18.70
   0  -1  -4  162.78   17.90
   0   2   4  238.88   23.50
   0  -2  -4  347.57   28.00
   0   3  -4 1308.47   48.10
   0   3   4 1287.17   65.39
   0  -3   4 1353.76   48.80
   0  -3  -4 1297.37   65.69
   0  -4   4 1570.24   62.69
   0  -4  -4 1460.65   77.79
   0   4  -4 1564.84   61.29
   0   4   4 1490.65   77.49
   0  -5   4   93.29   19.60
   0   5  -4  108.49   19.80
   0   6   4   30.50   21.50
   0   6  -4    2.30   11.70
   0   7   4  200.48   41.20
   0   7  -4  244.88   33.80
   0   8   4   -0.70   22.10
   0   8  -4   -1.90   14.50
   0   0  -5    4.10    6.40
   0   0   5    0.20    5.10
   0  -1   5    1.90    2.60
   0  -1  -5    3.90    6.70
   0   1  -5   -2.90    2.80
   0   1   5   10.50    7.20
   0   2   5   -3.40    8.20
   0  -2  -5    5.10    9.10
   0   3   5    4.70   10.70
   0  -3   5    1.70    4.00
   0   3  -5    0.40    3.60
   0   4  -5    6.00    7.10
   0   4   5   23.30   14.70
   0  -4   5   -5.60    6.50
   0  -5   5   -0.80    8.90
   0   5  -5    8.60    9.10
   0   5   5   11.20   16.90
   0   6  -5   16.60   10.30
   0  -6   5    6.90   15.30
   0   6   5    0.00   13.60
   0  -7   5   28.70   22.60
   0   7   5   -0.80   22.60
   0   7  -5   -6.90   11.40
   0   8   5    2.70   26.20
   0   0  -6  864.41   37.60
   0   0   6  716.63   35.50
   0   1   6  442.56   29.00
   0  -1  -6  370.16   27.80
   0   1  -6  432.36   18.80
   0  -1   6  415.86   17.90
   0  -2  -6 1492.75   69.49
   0   2   6 1411.36   66.59
   0  -3  -6  146.99   27.20
   0   3   6  137.29   25.10
   0  -4   6  100.09   11.90
   0   4   6   88.69   23.60
   0   4  -6   86.69    9.20
   0   5   6  125.19   30.70
   0  -5   6   91.19   16.10
   0   5  -6   75.49   13.20
   0   6   6   30.70   20.40
   0   6  -6   14.90    9.90
   0  -6   6   26.00   14.90
   0   7   6   91.89   31.90
   0   7  -6   94.79   20.00
   0   8   6    5.10   24.80
   0   8  -6   -1.00   15.30
   0   0  -7   10.50    6.30
   0   0   7    9.20    7.30
   0  -1  -7    6.20    9.70
   0  -1   7    7.00    4.60
   0   1  -7   -3.10    4.80
   0   1   7  -10.40    7.10
   0   2   7   -0.10    7.30
   0  -2  -7    2.90   10.50
   0   3   7    6.10   12.00
   0  -3  -7    9.90   10.80
   0   5   7    2.30   14.50
   0  -5   7    9.70    7.60
   0   5  -7   -5.30    5.20
   0  -6   7   -3.20   12.40
   0   6  -7   -3.10    8.10
   0   6   7   21.40   19.00
   0  -7   7  -33.30   20.00
   0   7   7    5.70   25.50
   0   7  -7   23.10   11.20
   0   0  -8 1127.49   51.39
   0   0   8 1149.29   50.19
   0   1   8  189.38   25.90
   0   1  -8  204.18   14.80
   0  -1  -8  272.77   31.20
   0  -1   8  200.38   14.20
   0   2   8  309.97   30.60
   0  -2  -8  314.87   32.00
   0   3   8   80.19   23.40
   0   4   8  109.89   25.80
   0   5   8   17.80   19.00
   0   6   8   81.49   24.90
   0   7   8  213.08   46.50
   0  -7   8  185.68   24.60
   0   7  -8  187.98   20.00
   0   0   9    4.70    6.70
   0  -1   9    7.60    4.80
   0   1  -9    0.10    7.90
   0   1   9    2.10    8.90
   0  -1  -9   -4.90    9.90
   0  -2  -9   -5.30   14.00
   0   2   9    2.40    9.60
   0   3   9  -18.40   13.20
   0   4   9   -5.40   11.10
   0   5   9    9.00   16.10
   0   6   9   17.20   19.30
   0   7   9   -9.80   22.60
   0   0  10  230.58   26.70
   0   0 -10  290.17   25.40
   0   1 -10  115.49   16.00
   0  -1 -10  160.98   26.10
   0  -1  10   96.79   12.90
   0   1  10  116.49   23.00
   0   2  10  517.35   41.80
   0  -2 -10  504.55   43.40
   0   3  10  154.38   30.70
   0   4  10  147.29   32.00
   0   5  10   74.29   31.50
   0   6  10   72.29   30.40
   0   0  11  -10.40    8.50
   0   0 -11   -0.50   10.10
   0   1 -11   -2.40    7.20
   0   1  11   13.70   13.20
   0  -1 -11  -16.50   13.70
   0  -1  11  -12.00    7.20
   0   2  11   -7.00   12.50
   0   3  11    2.30   13.60
   0   4  11  -14.20   20.80
   0   5  11   -7.40   17.70
   0   6  11   -6.10   25.90
   0   0 -12   97.29   19.10
   0   0  12  149.99   23.60
   0   1  12   94.49   21.90
   0  -1 -12   49.90   19.40
   0   1 -12   81.29   12.30
   0   2  12  405.46   56.59
   0   3  12  141.99   33.10
   0   4  12   37.20   21.70
   0   5  12   47.30   28.00
   0   0  13    5.40   11.50
   0   0 -13   25.00   15.20
   0   1  13    6.60   15.20
   0  -1 -13   -2.90   19.30
   0   1 -13   -4.60   10.20
   0   2  13   13.80   19.30
   0   3  13   14.30   22.50
   0   4  13    2.50   18.90
   0   0 -14  217.68   29.40
   0   0  14  198.48   28.30
   0  -1  14  121.39   16.60
   0   1  14  108.39   26.60
   0   2  14   67.19   26.40
   0   3  14   79.19   27.70
   0   0  15   15.40   15.60
   0   0 -15   39.20   24.30
   0   1  15  -10.80   17.10
   0   2  15   46.00   21.30
   1   1   0  131.19   10.50
   1  -1   0  127.09   10.80
  -1  -1   0  129.69   10.30
  -1   1   0  133.69   11.20
   1   2   0 4435.26  143.99
  -1  -2   0 4606.74  148.09
   1  -2   0 4689.73  145.89
  -1   2   0 4777.02  154.78
  -1   3   0   45.60   11.20
  -1  -3   0   40.10   12.50
   1   3   0   50.99   12.90
   1  -3   0   51.29   13.30
  -1  -4   0  440.56   34.60
   1   4   0  467.85   33.70
  -1   4   0  428.96   34.00
   1  -4   0  388.06   33.10
  -1   5   0  357.06   35.20
   1  -5   0  410.36   36.70
   1   5   0  383.66   35.30
  -1  -5   0  340.07   33.60
   1   6   0   17.20   14.40
  -1   6   0    0.80   12.40
  -1   7   0   -1.60   14.40
   1   7   0   18.00   17.40
   1   8   0   33.80   20.60
  -1   8   0   44.00   21.90
   1   0   1    1.10    2.00
  -1   0   1    5.80    2.60
   1  -1   1  246.48   13.30
  -1   1   1  250.77   16.60
  -1  -1  -1  230.98   15.40
   1   1  -1  250.17   12.60
  -1  -1   1  237.28   12.50
   1  -1  -1  216.28   15.90
  -1   1  -1  241.88   13.20
   1   1   1  256.97   16.60
  -1   2   1 1974.30   76.59
   1   2  -1 2049.99   69.89
  -1  -2  -1 2151.88   77.09
   1   2   1 1920.71   73.69
  -1   2  -1 2062.09   72.09
   1  -2  -1 2053.99   75.49
  -1  -2   1 2069.79   75.29
  -1   3   1  441.16   32.00
  -1  -3  -1  369.76   29.70
   1  -3   1  407.96   26.90
   1   3  -1  350.26   25.00
  -1  -3   1  459.85   28.40
   1  -3  -1  390.76   29.40
  -1   3  -1  421.26   28.80
   1   3   1  420.96   30.30
   1   4  -1   90.49   17.30
  -1  -4  -1  116.49   21.80
   1  -4   1   84.79   18.60
  -1   4   1   80.99   18.90
  -1   4  -1   77.39   16.20
  -1  -4   1   99.79   19.00
   1   4   1   73.09   17.60
   1  -4  -1  128.89   22.30
  -1  -5  -1  356.06   35.40
   1  -5   1  360.36   37.70
  -1   5   1  381.66   36.00
   1   5  -1  391.66   34.20
   1   5   1  426.66   37.30
   1  -5  -1  437.06   38.80
  -1   5  -1  367.86   33.30
  -1   6   1  306.57   50.49
   1   6  -1  427.46   40.40
   1   6   1  456.15   78.69
  -1   6  -1  393.96   38.10
   1   7  -1  114.89   27.80
  -1   7   1  193.88   36.30
   1   7   1  210.98   37.70
  -1   7  -1  158.88   31.00
  -1   8   1   99.49   27.30
   1   8  -1   61.19   25.30
  -1   8  -1   89.29   31.30
   1   8   1   79.99   25.60
   1   0   2   -3.20    3.60
  -1   0  -2   -4.40    2.50
   1   0  -2    0.90    4.20
  -1   0   2   -2.50    4.00
   1   1  -2  837.02   27.30
   1  -1   2  845.72   29.00
  -1   1   2  820.62   36.10
  -1  -1   2  817.02   26.80
   1   1   2  855.61   36.60
  -1   1  -2  827.02   28.40
  -1   2   2 2355.56   87.09
   1  -2   2 2302.17   75.79
  -1  -2  -2 2284.57   85.59
   1   2  -2 2268.17   74.39
   1  -2  -2 2352.66   85.69
  -1  -2   2 2264.97   75.59
   1   2   2 2206.68   84.09
  -1   2  -2 2371.76   77.19
  -1  -3  -2  269.77   26.20
   1  -3   2  270.37   21.60
  -1   3   2  220.48   24.00
   1   3  -2  231.08   19.30
  -1   3  -2  230.88   20.20
   1   3   2  240.08   24.10
   1  -3  -2  224.88   24.60
  -1  -3   2  237.58   19.80
  -1   4   2   98.49   23.10
   1   4  -2   78.39   15.60
   1   4   2   57.69   17.10
  -1  -4   2   72.89   15.10
  -1   4  -2   86.69   16.10
   1  -5   2  193.98   29.40
  -1   5   2  303.37   38.40
   1   5  -2  243.58   32.10
  -1  -5   2  254.27   31.50
   1   5   2  263.07   35.50
  -1   5  -2  218.18   29.30
  -1   6   2  143.39   31.20
   1  -6   2  219.58   33.30
   1   6  -2  196.38   32.00
   1   6   2  178.88   33.70
  -1  -6   2  175.08   31.90
  -1   6  -2  213.28   32.90
   1   7  -2   20.70   14.10
  -1   7   2   13.50   15.70
  -1   7  -2   34.30   15.50
   1   7   2   11.80   18.10
  -1   8   2   19.20   19.30
   1   8  -2   -5.90   17.40
  -1   8  -2    4.90   16.50
   1   8   2    1.30   21.20
   1   0   3    3.90    5.50
  -1   0   3   -6.20    4.80
  -1   0  -3    2.70    4.70
   1   0  -3   -2.60    5.40
  -1   1   3  777.32   41.50
  -1  -1  -3  796.92   37.90
  -1   1  -3  807.52   27.90
   1  -1  -3  753.42   36.70
  -1  -1   3  836.82   25.90
  -1   1  -3  821.22   27.10
   1  -2   3  912.71   33.80
   1   2  -3  866.31   32.10
  -1  -2  -3  913.81   46.20
  -1   2  -3  880.61   33.90
  -1  -2   3  903.81   32.90
   1  -2  -3  856.51   44.90
   1   2   3  943.01   45.70
   1  -3   3  488.25   26.90
   1   3  -3  501.45   26.10
  -1  -3  -3  458.85   35.80
  -1   3   3  494.35   36.60
   1  -3  -3  484.25   36.60
  -1  -3   3  490.55   26.80
   1   3   3  485.65   35.40
  -1   3  -3  576.64   31.00
   1   4  -3 1027.00   48.10
   1  -4   3  967.90   48.50
  -1   4   3 1098.89   61.69
  -1  -4  -3 1013.80   59.89
  -1  -4   3  979.10   48.00
   1  -4  -3 1044.80   60.29
  -1   4  -3 1023.60   49.00
   1   4   3 1034.00   59.09
   1   5  -3  200.28   27.30
   1  -5   3  221.98   23.90
  -1   5   3  183.68   32.10
  -1  -5   3  196.98   26.20
  -1   5  -3  184.78   24.00
   1   5   3  229.88   38.50
  -1   6   3  101.09   26.10
   1   6  -3   82.99   21.30
   1  -6   3   99.29   21.00
  -1   6  -3  107.49   24.80
  -1  -6   3  111.79   24.00
   1   6   3   59.09   21.80
   1   7  -3  111.59   26.40
  -1   7   3   87.19   27.60
  -1   7  -3  127.89   27.70
   1   7   3  173.58   34.20
  -1   8   3   55.89   26.40
   1   8  -3   49.10   25.30
  -1   8  -3  138.99   28.90
   1   8   3   18.00   26.50
   1   0  -4   -6.00    5.20
   1   0   4    1.50    5.40
  -1   0   4   -1.80    5.60
  -1   0  -4    2.60    5.40
  -1  -1  -4  119.59   17.70
  -1   1   4  161.88   20.10
  -1   1  -4  114.79    8.40
   1  -1  -4  147.19   18.60
  -1  -1   4  133.69    7.00
   1   1   4  163.08   20.70
  -1  -2  -4   89.09   19.30
  -1   2   4   84.89   17.40
   1  -2   4   68.69    7.00
   1   2  -4   72.99    5.60
  -1   2  -4   75.09    7.20
   1  -2  -4   67.69   17.50
  -1  -2   4   57.69    5.50
   1   2   4   88.59   17.40
  -1   3   4    8.20   11.10
   1  -3   4   17.10    7.60
  -1  -3  -4    9.30    9.10
   1   3  -4   16.10    6.20
   1   3   4   19.60   11.40
   1  -3  -4   26.90   13.90
  -1  -3   4   14.80    6.90
  -1   3  -4   17.70    7.10
   1  -4   4  724.43   37.50
   1   4  -4  662.73   34.50
  -1   4   4  673.43   48.80
  -1  -4  -4  603.44   47.70
   1  -4  -4  719.33   50.69
  -1   4  -4  677.53   35.40
  -1  -4   4  689.03   36.20
   1   4   4  628.84   46.60
   1  -5   4   31.60   13.20
   1   5  -4   17.90   10.50
  -1  -5   4   19.30   11.10
  -1   5  -4   25.70   10.20
  -1   6   4   27.70   20.10
   1   6  -4   55.69   13.70
  -1  -6   4   31.70   16.40
   1   6   4   15.50   19.90
  -1   6  -4   49.50   16.80
  -1   7   4   -6.10   14.20
   1   7  -4   -6.60   14.30
   1   7   4   -2.10   15.90
  -1   7  -4  -20.30   11.60
   1   8  -4    2.30   16.60
  -1   8   4   29.90   23.40
  -1   8  -4    6.30   14.80
   1   8   4   36.20   24.80
  -1   0  -5   -7.10    5.30
   1   0   5    7.50    5.90
  -1   0   5    2.00    6.60
  -1  -1  -5   38.00   11.50
   1   1  -5   40.70    6.20
  -1   1   5   68.29   14.30
   1  -1   5   65.99    7.00
  -1   1  -5   53.59    6.90
   1   1   5   80.39   15.50
  -1  -1   5   53.39    5.80
   1  -1  -5   51.29   12.80
  -1  -2  -5  262.77   25.40
  -1   2   5  266.17   26.30
   1   2   5  282.47   25.90
   1  -2  -5  234.18   25.00
   1  -3   5  461.55   21.60
  -1  -3  -5  495.75   44.30
   1   3  -5  432.06   18.70
  -1   3   5  420.56   36.80
  -1  -3   5  442.66   19.30
   1   3   5  453.15   36.90
   1  -3  -5  488.95   62.59
  -1   3  -5  440.26   20.40
   1   4  -5  280.97   23.90
   1  -4   5  295.67   20.70
  -1   4   5  341.17   35.20
  -1  -4   5  292.27   20.60
   1   4   5  254.07   35.20
  -1   4  -5  317.57   27.20
   1   5  -5  626.44   36.00
  -1   5   5  643.14   52.79
   1  -5   5  596.14   36.60
   1   5   5  639.64   52.39
  -1   5  -5  602.74   35.10
  -1  -5   5  555.84   34.40
  -1   6   5  283.47   44.60
   1   6  -5  217.58   23.40
   1  -6   5  265.67   32.10
   1   6   5  285.97   46.70
  -1   6  -5  275.27   27.50
  -1  -6   5  278.87   32.50
   1  -7   5   39.40   22.20
  -1   7   5   -5.10   21.20
   1   7  -5   31.90   15.60
   1   7   5    8.60   23.40
  -1   7  -5   25.10   13.70
  -1  -7   5   15.30   23.20
  -1   8   5    5.80   22.70
  -1   8  -5   36.70   19.60
   1   8   5   28.00   30.10
  -1   0   6   -3.70    5.10
  -1   0  -6   -5.00    4.70
   1   0  -6    4.40    6.30
   1   1  -6  119.29   10.00
   1  -1   6  124.39    9.90
  -1   1   6  161.28   21.80
  -1  -1  -6  161.68   22.90
   1  -1  -6  179.98   23.20
  -1  -1   6  141.59    9.80
   1   1   6  168.98   22.60
  -1   1  -6  134.49   10.90
  -1  -2  -6  407.36   33.40
  -1   2   6  387.76   30.70
   1   2   6  435.86   32.80
   1  -2  -6  402.76   33.20
  -1  -3  -6  -15.40   11.00
  -1   3   6   13.70   12.40
   1   3   6   13.50    9.90
   1  -3  -6   27.10   13.90
   1  -4   6   49.30    9.70
   1   4  -6   64.29    8.30
  -1   4   6   25.30   17.00
   1   4   6   43.10   18.30
  -1   4  -6   53.89    8.40
  -1  -4   6   35.20    8.50
   1   5  -6   19.20    9.60
  -1   5   6   17.70   18.20
   1  -5   6    7.80   11.10
  -1  -5   6    5.10   10.40
  -1   5  -6   37.10    8.90
   1   5   6   17.90   16.20
   1   6  -6   59.59   12.70
  -1   6   6   87.19   32.70
   1  -6   6   65.79   19.20
  -1  -6   6   80.79   19.20
   1   6   6  116.49   31.90
  -1   6  -6   86.39   16.10
  -1   7   6    7.00   19.00
   1  -7   6    7.00   25.00
   1   7  -6   35.10   15.00
   1   7   6    8.10   18.30
  -1   7  -6    0.60   12.70
   1   8  -6   22.70   15.10
  -1   8   6  -58.89   19.60
  -1   8  -6    5.80   16.50
   1   8   6    5.70   23.60
  -1   0  -7   -2.20    6.40
  -1   0   7   14.50    6.90
   1   0  -7    1.70    6.50
   1   0   7    1.70    5.50
   1  -1   7   34.30    6.50
  -1  -1  -7   36.30   12.90
  -1   1   7   58.19   15.50
  -1  -1   7   44.40    7.60
   1   1   7   26.30   12.00
   1  -1  -7   36.30   12.40
  -1   1  -7   42.10    8.20
  -1   2   7  157.38   26.30
  -1  -2  -7  197.38   28.10
   1   2   7  158.78   26.60
   1  -2  -7  189.28   29.10
  -1   3   7  313.77   33.90
  -1  -3  -7  384.46   34.30
   1  -3  -7  352.36   35.30
   1   3   7  376.66   36.80
   1   4   7  360.86   72.89
   1   5  -7  181.68   13.90
  -1   5   7  250.27   40.00
   1   5   7  259.77   41.30
  -1   5  -7  199.78   15.70
  -1  -5   7  205.78   15.90
   1  -6   7  120.19   21.30
   1   6  -7  137.89   16.70
  -1   6   7  182.48   36.90
   1   6   7  189.28   38.20
  -1   6  -7  152.58   19.10
  -1  -6   7  140.39   21.10
   1   7  -7   61.79   15.00
  -1   7   7   73.39   31.10
   1  -7   7   22.70   21.60
   1   7   7   38.40   28.60
  -1   7  -7   59.89   15.00
  -1  -7   7   11.00   22.70
   1   0   8    7.50    8.40
  -1   0  -8   -1.50    8.00
   1   0  -8   -2.10    8.00
  -1   0   8  -16.20    6.60
   1  -1   8   91.79   11.70
   1   1  -8   98.19   12.00
  -1   1   8   93.89   18.60
  -1  -1  -8   74.19   17.50
  -1   1  -8  106.99   12.10
   1   1   8   94.79   18.00
  -1  -1   8  108.49   12.00
   1  -1  -8   78.49   17.20
  -1   2   8   30.50   14.00
  -1  -2  -8   31.40   13.10
   1   2   8   32.70   15.50
   1  -2  -8   56.49   17.50
  -1   3   8   -2.40   11.10
   1   3   8   13.20   15.20
  -1   4   8   28.60   15.80
   1   4   8   27.50   15.70
  -1   5   8   20.10   19.30
   1   5   8   -7.80   16.80
  -1   6   8   31.40   18.40
  -1   6  -8   26.40    8.80
   1   6   8   58.99   25.00
  -1   7   8   45.10   22.10
   1  -7   8  -12.30   16.80
   1   7  -8   43.30   11.90
   1   7   8   35.90   28.10
  -1  -7   8   11.60   17.40
  -1   7  -8   13.20   11.30
   1   0   9    3.00    5.70
  -1   0  -9    6.00    8.00
   1   0  -9   18.40    8.50
  -1   0   9    8.10    7.70
   1   1  -9  226.18   18.80
  -1  -1  -9  247.58   26.30
  -1   1   9  223.48   28.90
   1  -1   9  248.18   17.10
   1  -1  -9  311.37   35.00
  -1   1  -9  239.68   22.80
   1   1   9  232.78   24.00
  -1  -1   9  218.78   15.40
  -1   2   9  324.47   38.80
  -1  -2  -9  373.96   43.90
   1  -2  -9  343.17   35.70
   1   2   9  355.36   41.50
  -1   3   9  150.38   31.00
   1   3   9  122.79   29.50
  -1   4   9  168.68   34.40
   1   4   9  214.58   38.90
  -1   5   9   84.69   25.20
   1   5   9   96.19   30.20
  -1   6   9   51.79   27.50
   1   6   9  100.19   31.80
  -1   7   9   83.49   34.00
   1   7   9   56.09   31.20
   1   0 -10    2.00    9.60
  -1   0 -10   -8.80    8.90
   1   0  10    0.50    7.80
  -1   0  10   -7.20    7.10
   1  -1  10    0.60    6.70
  -1  -1 -10    5.00   11.40
   1   1 -10   -1.50    8.60
  -1   1  10   24.20   13.70
   1   1  10    1.00    9.20
   1  -1 -10    7.70   10.80
  -1  -1  10    5.00    6.90
  -1   1 -10   -0.70    7.60
  -1  -2 -10   65.59   20.90
  -1   2  10   49.80   16.00
   1  -2 -10   27.50   16.30
   1   2  10   63.29   22.00
  -1   3  10    3.50   12.90
   1   3  10   28.20   17.70
  -1   4  10   18.20   17.50
   1   4  10    3.80   15.20
   1   5  10   79.29   28.70
  -1   6  10   19.30   23.70
   1   6  10   23.00   26.60
   1   0  11   14.90   10.60
   1   0 -11   25.90   11.80
  -1   0  11  -11.20    8.10
  -1   0 -11    6.60   11.10
  -1  -1 -11   35.70   17.00
   1   1 -11   47.10   10.40
  -1   1  11   12.30   12.90
  -1   1 -11   43.60   11.70
   1   1  11   33.20   15.80
   1  -1 -11   -5.70   15.40
  -1  -1  11   20.20    8.70
  -1   2  11   24.80   14.70
   1   2  11   14.20   14.70
  -1   3  11  270.37   41.70
   1   3  11  297.67   45.30
  -1   4  11  325.57   52.29
   1   4  11  300.37   45.70
  -1   5  11   57.89   25.60
   1   5  11   75.79   28.00
  -1   6  11    7.70   32.30
   1   6  11   29.30   30.50
   1   0 -12    2.30   12.10
  -1   0  12   -9.20   11.70
   1   0  12  -14.30    9.40
  -1   0 -12   -0.40   11.30
  -1  -1 -12   22.50   15.30
   1  -1  12   -4.10    8.60
   1   1 -12   -3.50    9.40
  -1   1  12    8.50   12.40
   1  -1 -12    4.70   16.60
  -1   1 -12   -6.80    9.90
   1   1  12   -0.50   13.30
  -1  -1  12   24.20   14.20
  -1   2  12  -11.70   16.90
  -1   3  12   -9.40   20.00
   1   3  12   14.10   21.00
  -1   4  12   26.20   23.90
   1   4  12   -0.20   16.80
  -1   5  12    9.60   25.50
   1   5  12   24.40   26.00
  -1   0 -13    3.10   15.90
  -1   0  13    0.70   11.90
   1   0 -13    2.70   15.10
   1   0  13    6.40   10.70
  -1  -1 -13  -54.39   20.40
  -1   1  13  -10.00   11.70
   1   1 -13    5.00   11.50
   1  -1 -13    4.20   20.50
   1   1  13   16.10   17.80
  -1  -1  13   -9.60    9.70
  -1   1 -13    4.00   11.20
  -1   2  13   94.49   27.90
   1   2  13   63.39   21.40
  -1   3  13   80.09   29.80
   1   3  13   67.99   26.50
  -1   4  13  103.59   35.20
   1   4  13   68.79   26.40
  -1   0  14   22.80   16.00
   1   0  14   15.80   15.20
  -1   0 -14   34.50   18.30
   1   0 -14    6.90   18.80
  -1   1  14   46.10   20.80
   1   1  14   69.79   23.30
  -1   1 -14   32.90   12.50
  -1  -1  14   32.30   10.90
  -1   2  14   21.90   20.30
   1   2  14   19.80   19.90
  -1   3  14  -18.70   18.00
   1   3  14   20.80   23.10
   1   0 -15  -49.70   17.70
  -1   0  15    3.40   16.60
   1   0  15    5.10   17.50
  -1   1  15   17.80   20.60
   1   1  15  -15.40   16.60
   2   1   0 2970.30   92.59
   2  -1   0 2888.11   93.39
  -2  -1   0 2821.82   89.89
  -2   1   0 2858.01   91.29
  -2   2   0   69.59   12.80
   2   2   0   81.69   15.50
  -2  -2   0   70.19   13.00
   2  -2   0   70.59   13.70
   2  -3   0  165.58   23.10
  -2  -3   0  184.18   23.50
   2   3   0  137.59   20.50
  -2   3   0  148.09   21.70
  -2  -4   0   30.10   14.10
  -2   4   0   43.70   15.90
   2  -4   0   57.19   16.90
   2   5   0   59.29   18.80
  -2   5   0   65.49   19.70
   2  -5   0   97.89   21.90
  -2  -5   0   16.80   14.20
  -2   6   0    6.90   13.80
   2   6   0    4.40   14.70
  -2   7   0   21.00   17.40
   2   7   0   10.30   17.60
  -2   8   0  139.49   33.00
   2   8   0  139.19   34.60
  -2   0  -1  776.82   29.00
   2   0   1  814.12   29.60
  -2   0   1  792.32   29.90
   2   0  -1  791.32   30.00
   2   1  -1  514.15   21.70
   2  -1   1  484.85   23.00
  -2  -1  -1  510.25   24.50
  -2   1   1  472.55   25.50
  -2  -1   1  469.25   21.30
  -2   1  -1  492.35   22.60
   2   1   1  483.95   24.90
  -2  -2  -1 2664.93   96.59
   2   2  -1 2791.22   92.59
   2  -2   1 2829.02   94.29
  -2   2   1 2780.12   98.39
  -2  -2   1 2860.91   92.69
   2  -2  -1 2736.43   98.49
  -2   2  -1 2807.72   94.19
   2   2   1 2805.32   97.69
   2   3  -1  344.77   24.80
   2  -3   1  376.66   26.90
  -2   3   1  375.56   29.10
  -2  -3  -1  288.77   26.50
   2   3   1  362.76   29.10
   2  -3  -1  307.77   26.70
  -2  -3   1  327.87   24.70
  -2   3  -1  310.37   25.00
   2   4  -1  582.64   36.90
   2  -4   1  543.35   38.20
  -2  -4  -1  594.64   40.80
  -2   4   1  606.34   43.30
   2  -4  -1  505.05   38.00
  -2   4  -1  591.64   39.40
   2   4   1  589.34   41.90
  -2  -4   1  565.64   37.70
   2   5  -1   51.99   15.90
  -2   5   1   73.59   22.00
  -2  -5  -1   54.99   16.00
   2  -5   1   59.99   16.90
   2  -5  -1   52.79   16.80
   2   5   1   72.59   20.10
  -2   5  -1   60.79   17.40
  -2  -5   1   35.40   16.80
  -2   6   1   37.30   18.20
   2   6  -1   50.99   17.10
   2   6   1   24.80   18.90
  -2   6  -1   53.39   18.10
   2   7  -1   94.79   26.20
  -2   7   1   58.99   21.60
   2   7   1   98.89   24.70
  -2   7  -1  119.09   28.90
   2   8  -1   18.60   20.40
  -2   8   1  -25.20   17.00
   2   8   1   12.20   18.20
  -2   8  -1  -11.50   19.10
   2   0   2 4498.75  138.49
  -2   0  -2 4859.81  141.69
  -2   0   2 4569.94  141.59
   2   0  -2 4751.42  139.39
   2  -1   2 2358.26   74.19
  -2  -1  -2 2302.87   78.89
   2   1  -2 2307.07   71.89
  -2   1   2 2342.87   79.99
   2   1   2 2293.17   79.59
  -2  -1   2 2241.98   70.49
  -2   1  -2 2243.88   72.99
   2  -1  -2 2309.07   81.09
   2  -2   2  232.08   18.80
   2   2  -2  291.47   17.20
  -2  -2  -2  291.07   23.10
  -2   2   2  249.38   22.70
   2   2   2  213.78   21.40
  -2  -2   2  210.98   15.50
   2  -2  -2  302.07   23.60
  -2   2  -2  270.17   18.70
  -2   3   2  452.45   34.60
   2  -3   2  432.16   28.00
  -2  -3  -2  388.26   30.80
   2   3  -2  380.56   24.40
  -2   3  -2  418.06   26.90
   2   3   2  365.56   30.40
  -2  -3   2  397.66   26.10
   2  -3  -2  417.86   32.70
  -2  -4  -2  242.48   36.70
   2   4  -2  218.68   20.80
  -2   4   2  231.38   33.50
   2  -4   2  227.88   23.60
  -2   4  -2  222.78   23.10
   2  -4  -2  245.98   33.00
   2   4   2  266.07   36.30
  -2  -4   2  231.18   23.10
  -2   5   2   34.40   18.10
   2   5  -2   38.40   14.90
   2  -5   2   22.70   12.50
  -2  -5   2   41.50   14.70
  -2   5  -2   37.40   13.60
   2   5   2   23.40   13.80
   2   6  -2   -4.20   10.40
   2  -6   2   12.70   16.50
  -2   6   2   15.10   17.90
   2   6   2   14.60   14.70
  -2  -6   2   -4.10   17.70
  -2   6  -2   17.50   15.70
  -2   7   2   45.00   20.60
   2   7  -2   48.00   18.40
  -2   7  -2   27.40   15.90
   2   7   2   54.49   25.80
  -2   8   2   68.29   28.50
   2   8  -2  107.29   28.10
  -2   8  -2   94.69   27.10
   2   8   2   88.89   30.60
  -2   0  -3  361.56   20.40
  -2   0   3  423.86   22.30
   2   0  -3  352.46   21.50
   2   0   3  426.76   21.20
  -2   1   3   63.59   12.90
  -2  -1  -3   84.49   12.60
   2  -1  -3   67.89   14.40
   2   1   3   55.69   12.80
  -2   1  -3   73.59    9.30
  -2   1  -3   62.29    9.30
  -2  -1   3   66.99    6.90
  -2  -1   3   72.09    9.20
   2   2  -3  541.55   23.70
  -2  -2  -3  535.35   33.70
  -2   2   3  505.95   33.40
   2  -2   3  558.24   26.10
  -2  -2   3  544.65   23.90
   2   2   3  562.14   34.40
  -2   2  -3  545.75   25.80
   2  -2  -3  523.05   33.90
  -2   3   3 1046.00   56.79
  -2  -3  -3 1102.89   57.09
   2  -3   3 1111.99   47.00
   2  -3  -3 1076.79   57.69
   2   3   3 1088.09   57.69
  -2   3  -3 1031.80   46.00
  -2  -3   3 1089.59   45.00
   2  -4   3  524.85   33.60
  -2  -4  -3  583.64   43.40
   2   4  -3  549.85   32.50
  -2   4   3  516.85   41.70
   2  -4  -3  496.85   41.20
  -2  -4   3  589.04   34.40
   2   4   3  550.04   42.50
  -2   4  -3  469.15   31.70
   2   5  -3   83.79   16.70
   2  -5   3   83.49   20.00
  -2   5   3   88.79   23.00
  -2   5  -3   79.59   17.80
  -2  -5   3   81.29   15.90
   2   5   3   69.49   18.90
   2  -6   3   92.99   22.20
   2   6  -3   98.89   22.50
  -2   6   3   78.49   23.00
  -2  -6   3  116.79   24.50
  -2   6  -3   49.10   19.30
   2   6   3   69.49   23.40
   2   7  -3   24.20   17.00
  -2   7   3   -3.10   19.60
   2   7   3   -7.30   15.80
  -2   7  -3   23.70   20.10
   2   8  -3   66.09   23.40
  -2   8   3  -42.80   18.40
   2   8   3   12.30   28.90
  -2   8  -3    7.40   17.10
   2   0   4  517.05   27.00
   2   0  -4  653.33   29.60
  -2   0   4  521.45   26.60
  -2   1   4 1364.66   55.99
  -2  -1  -4 1273.87   54.39
  -2  -1   4 1277.17   43.30
   2  -1  -4 1297.57   55.19
   2   1   4 1294.17   54.49
  -2   1  -4 1293.57   44.60
   2  -2   4  521.95   23.00
   2   2  -4  471.25   19.90
  -2  -2  -4  544.45   35.30
  -2   2   4  474.45   34.20
   2  -2  -4  467.95   34.30
  -2  -2   4  517.25   20.20
  -2   2  -4  487.25   22.50
   2   2   4  587.04   35.70
  -2   3   4  606.84   42.90
   2   3  -4  551.04   26.90
   2  -3   4  581.84   29.30
  -2  -3  -4  554.44   41.00
   2  -3  -4  634.64   43.20
  -2   3  -4  569.74   29.10
  -2  -3   4  595.04   29.80
   2   3   4  616.24   43.10
   2  -4   4   24.30    8.80
   2   4  -4   20.70    9.50
  -2  -4  -4   13.70   15.50
  -2   4   4   25.50   16.00
   2  -4  -4   33.50   17.20
  -2   4  -4   40.40   11.60
   2   4   4   50.49   18.60
  -2  -4   4   21.90   10.20
   2   5  -4   65.69   15.10
  -2   5   4   61.19   25.80
   2  -5   4   60.29   15.50
  -2  -5   4   71.29   15.00
  -2   5  -4   52.69   13.90
   2   5   4   57.59   33.30
  -2   6   4  133.09   34.00
   2   6  -4  153.28   23.60
   2  -6   4  135.49   23.10
   2   6   4  106.19   28.20
  -2   6  -4  152.48   25.70
   2   7  -4   16.80   18.30
  -2   7   4   26.90   20.60
   2   7   4   61.29   25.30
  -2   7  -4   40.10   15.60
  -2   8   4   -5.80   17.90
   2   8  -4    6.90   17.30
  -2   8  -4    5.70   18.40
   2   8   4   16.20   24.00
  -2   0  -5  628.84   30.40
   2   0  -5  632.54   31.00
  -2   0   5  588.04   30.30
  -2  -1  -5  264.87   22.00
   2  -1   5  278.67   16.00
  -2   1   5  276.87   23.50
   2   1  -5  261.27   14.50
  -2   1  -5  259.97   15.50
   2   1   5  300.17   23.40
   2  -1  -5  268.17   22.60
  -2  -1   5  285.77   14.70
  -2   2   5  473.05   34.90
   2   2   5  525.75   36.10
  -2   2  -5  486.85   21.50
   2  -2  -5  428.76   33.50
  -2   2  -5  497.15   20.50
   2   3  -5   17.10    5.10
   2  -3   5   24.40    6.90
  -2  -3  -5   42.60   17.70
  -2   3   5   36.20   15.30
  -2  -3   5   18.30    5.90
  -2   3  -5   27.40    7.10
   2   3   5    9.00   13.00
   2  -3  -5    1.00   10.60
   2  -4   5   23.80   10.60
  -2   4   5   49.10   18.50
   2   4   5   31.00   16.70
  -2  -4   5   20.80    8.10
  -2   4  -5   16.40    7.70
   2   5  -5   47.10   12.30
   2  -5   5   75.19   14.80
  -2   5   5   70.59   22.40
  -2  -5   5   58.59   15.60
   2   5   5   49.70   20.10
  -2   5  -5   52.19   12.90
   2   6  -5  113.29   18.40
  -2   6   5   83.99   29.60
   2  -6   5   95.09   21.80
  -2   6  -5  110.09   19.20
   2   6   5  129.09   35.80
  -2  -6   5   91.29   20.30
  -2   7   5  -18.30   20.10
   2  -7   5   35.50   21.90
   2   7  -5   -5.40   10.50
  -2   7  -5    8.70   14.90
  -2  -7   5  -10.50   21.50
   2   7   5   40.60   21.40
  -2   8   5   -7.00   18.50
   2   8  -5    7.00   24.20
  -2   8  -5   -2.00   16.80
   2   8   5    1.20   26.60
  -2   0   6  562.04   33.70
   2   0  -6  505.35   28.80
   2   0   6  497.15   28.10
  -2   0  -6  445.96   27.10
   2  -1   6  615.64   27.20
  -2  -1  -6  665.13   37.80
  -2   1   6  618.94   37.40
   2   1  -6  655.23   27.20
   2  -1  -6  659.43   38.20
  -2  -1   6  621.04   26.40
  -2   1  -6  642.64   27.80
   2   1   6  628.74   37.00
  -2   2   6  168.98   24.80
  -2  -2  -6  115.89   22.40
  -2   2  -6  163.38   10.20
   2   2   6  132.49   23.30
  -2   2  -6  164.48   10.50
   2  -2  -6  151.28   25.30
  -2   3   6  714.93   50.19
  -2  -3  -6  845.12   54.09
  -2   3  -6  753.62   29.40
   2  -3  -6  789.42   52.99
  -2   3  -6  749.42   28.60
   2   3   6  775.92   51.49
  -2   4   6   52.69   18.90
   2  -4   6   20.30    8.60
   2   4  -6   17.60    5.80
  -2   4  -6   22.30    6.70
   2   4   6   10.70   14.30
  -2  -4   6   25.40    7.50
  -2   5   6    7.00   16.50
   2  -5   6   -2.50    9.30
   2   5  -6   -6.50    5.80
  -2   5  -6   -7.00    6.90
   2   5   6  -10.80   11.00
  -2  -5   6    4.10    8.60
  -2   6   6   28.00   22.80
   2  -6   6   54.59   16.90
   2   6  -6   27.10   12.50
   2   6   6   47.40   23.10
  -2   6  -6   40.20   11.40
  -2  -6   6   97.49   20.90
  -2   7   6   -3.70   18.60
   2   7  -6   11.90   14.80
   2  -7   6   12.00   21.20
  -2   7  -6  -10.50   11.90
   2   7   6   -9.70   15.60
   2   8  -6   72.09   19.20
  -2   8   6  117.79   42.40
  -2   8  -6   98.99   20.00
   2   8   6   65.39   31.00
  -2   0  -7 1544.95   62.59
   2   0  -7 1497.45   62.49
   2   0   7 1642.04   62.49
  -2   0   7 1557.04   61.59
  -2   1   7  227.68   27.50
   2   1  -7  166.08   14.00
  -2  -1  -7  198.28   26.10
   2  -1   7  187.98   13.60
  -2   1  -7  192.08   15.70
  -2  -1   7  204.68   14.10
   2   1   7  213.58   26.70
   2  -1  -7  164.68   24.10
  -2  -2  -7  219.28   30.70
  -2   2   7  184.98   28.50
   2   2   7  182.68   27.80
   2  -2  -7  201.18   28.20
  -2   2  -7  199.28   10.90
  -2   2  -7  199.48   10.40
  -2  -3  -7  117.59   22.90
  -2   3   7   62.49   20.60
   2  -3  -7  116.79   27.50
   2   3   7   49.20   17.80
  -2   4   7   11.90   16.30
   2   4   7  -11.20   13.70
  -2   4  -7    7.50    4.30
  -2   4  -7    4.70    4.50
   2   5  -7   16.10    6.40
  -2   5   7    2.30   11.10
   2  -5   7   -1.10    9.10
   2   5   7   25.80   14.90
  -2  -5   7    6.90    7.50
   2  -6   7   38.90   16.10
  -2   6   7   37.20   23.20
   2   6  -7   30.50   10.90
  -2   6  -7   36.00   10.30
   2   6   7   63.29   22.80
  -2  -6   7   32.80   15.00
  -2   7   7   54.29   29.00
   2   7  -7   11.40   12.80
   2  -7   7   41.60   22.30
  -2  -7   7   54.49   23.20
  -2   7  -7   35.90   13.00
   2   7   7   48.20   29.60
  -2   0   8  175.68   22.00
   2   0   8  178.08   22.60
  -2   0  -8  246.48   21.90
   2   0  -8  220.68   21.20
   2   1  -8  590.74   27.00
  -2  -1  -8  496.95   36.30
   2  -1   8  534.45   26.10
  -2   1   8  603.34   38.00
   2  -1  -8  522.35   38.70
   2   1   8  572.04   37.40
  -2  -1   8  535.95   25.90
  -2   1  -8  585.64   28.80
  -2  -2  -8  261.07   28.60
  -2   2   8  293.47   29.70
   2   2   8  312.07   31.30
   2  -2  -8  289.17   36.20
  -2   3   8  246.58   36.10
   2   3   8  250.57   37.60
  -2   4   8   69.69   24.70
   2   4   8   64.19   23.30
  -2   5   8   -1.70   15.70
   2   5   8    7.70   16.10
  -2   6   8   84.59   25.40
   2   6   8   86.39   29.60
  -2   6  -8   80.49   18.90
   2  -7   8  -21.80   17.90
  -2   7   8   76.59   29.20
   2   7  -8   -6.30    8.80
  -2   7  -8   -2.00   10.00
   2   7   8   18.90   25.80
  -2  -7   8  -12.70   16.80
  -2   0   9  158.88   19.90
  -2   0  -9  139.49   20.30
   2   0  -9  139.29   18.80
   2   0   9  157.88   20.80
  -2  -1  -9   49.50   17.50
  -2   1   9   34.80   11.60
   2   1   9   37.00   14.80
   2  -1  -9   18.80   12.00
  -2   1  -9   18.60    9.10
  -2  -1   9   44.60    9.50
  -2   2   9   82.19   23.00
  -2  -2  -9   44.20   18.30
   2   2   9  135.19   25.30
   2  -2  -9  118.49   25.10
  -2   3   9  -20.30   12.70
   2   3   9   -8.90   13.90
  -2   4   9   19.60   18.00
   2   4   9   55.39   23.90
  -2   5   9   33.30   18.40
   2   5   9   21.80   18.90
  -2   6   9   17.90   23.40
   2   6   9   60.49   24.50
  -2   7   9    0.10   21.70
   2   7   9   33.30   25.80
  -2   0 -10  216.48   25.80
   2   0  10  172.08   24.40
  -2   0  10  188.68   23.60
   2   0 -10  211.08   25.50
  -2   1  10  304.47   35.20
   2  -1  10  249.78   19.10
   2   1 -10  215.98   19.50
   2   1  10  237.58   26.10
   2  -1 -10  294.37   29.80
  -2   1 -10  214.68   19.70
  -2  -1  10  253.47   17.80
  -2   2  10  229.88   33.40
   2  -2 -10  176.58   32.70
   2   2  10  227.88   33.50
  -2   3  10  190.48   33.10
   2   3  10  142.39   28.70
  -2   4  10    4.10   18.60
   2   4  10   27.50   21.10
  -2   5  10   -0.90   19.60
   2   5  10   54.29   26.20
  -2   6  10   33.80   25.30
   2   6  10   21.60   21.50
   2   0  11  225.58   28.40
  -2   0  11  218.18   26.90
   2   0 -11  259.97   30.70
  -2   0 -11  220.48   29.20
  -2  -1 -11   82.19   19.80
   2   1 -11   62.79   12.60
  -2   1  11   50.09   16.50
   2  -1  11   39.30   10.90
  -2  -1  11   40.50   15.70
  -2   1 -11   51.79   12.40
   2   1  11   25.40   13.70
   2  -1 -11   62.09   20.90
  -2   2  11   45.80   16.00
   2   2  11   41.80   15.80
  -2   3  11   28.70   18.30
   2   3  11   17.70   20.00
  -2   4  11   10.20   18.40
   2   4  11  -32.40   15.40
  -2   5  11   27.40   22.10
   2   5  11    3.50   21.50
  -2   6  11   43.70   32.70
   2   6  11   -7.20   34.80
   2   0  12  229.18   28.80
   2   0 -12  187.58   25.00
  -2   0  12  223.78   28.60
  -2   0 -12  199.88   29.50
  -2   1  12  108.29   22.30
   2  -1  12  155.08   18.50
  -2  -1 -12  141.19   27.20
   2   1 -12  132.99   17.00
  -2   1 -12  126.49   17.10
   2  -1 -12  214.88   32.70
   2   1  12  177.98   27.00
  -2   3  12   80.19   26.00
   2   3  12  133.99   27.60
  -2   4  12   22.80   20.50
   2   4  12   42.50   23.80
  -2   5  12  -28.50   20.60
   2   5  12    5.00   20.90
  -2   0  13  141.59   22.00
   2   0 -13   64.19   17.50
  -2   0 -13   33.20   17.40
   2   0  13  107.79   22.30
   2  -1  13  112.69   15.70
   2   1 -13  136.39   17.80
  -2   1  13   94.39   23.90
  -2   1 -13  114.59   17.70
   2  -1 -13  131.69   29.00
   2   1  13  109.29   24.00
  -2  -1  13  121.19   22.50
  -2   2  13   14.70   19.60
   2   2  13   30.50   21.30
  -2   3  13   60.29   27.00
   2   3  13   75.39   29.50
  -2   4  13   -5.10   22.40
   2   4  13   12.10   20.70
   2   0 -14   70.49   21.70
  -2   0  14   69.89   18.80
   2   0  14   76.19   20.20
   2  -1  14  166.38   20.40
  -2   1  14  165.98   28.80
  -2  -1  14  167.28   18.20
   2   1  14  156.18   30.70
  -2   1 -14  169.38   20.60
  -2   2  14   38.60   23.00
   2   2  14   16.00   19.80
  -2   3  14   -7.40   21.50
   2   3  14   26.10   26.60
   2   0 -15  106.59   25.20
  -2   0  15  107.09   23.30
   2   0  15   82.09   20.60
  -2   0 -15   93.99   27.10
  -2   1  15  118.69   27.10
  -3   0   0   -2.60    4.80
  -3   0   0    4.20    5.60
  -3  -1   0  344.97   22.50
  -3   1   0  351.56   22.00
   3   1   0  357.96   20.60
   3  -2   0  186.08   19.30
  -3   2   0  187.88   19.50
  -3  -2   0  169.88   17.00
   3   2   0  192.78   18.30
   3  -3   0  187.68   25.00
  -3  -3   0  195.28   19.10
   3   3   0  205.48   21.00
  -3   3   0  215.68   22.80
  -3  -4   0  478.75   37.00
   3  -4   0  454.85   36.10
  -3   4   0  477.25   37.50
   3   4   0  475.95   34.90
  -3  -5   0  328.47   33.40
  -3   5   0  371.36   35.20
   3   5   0  293.57   31.90
   3  -5   0  352.06   34.30
   3   6   0  114.09   27.40
  -3   6   0  149.88   34.70
   3   7   0  113.99   28.60
  -3   7   0   35.70   19.10
   3   8   0   -5.20   17.40
  -3   8   0   -5.90   16.20
   3   0   1    7.20    5.10
   3   0  -1    1.50    4.90
  -3   0   1   -2.20    5.00
  -3   0  -1    2.70    4.60
  -3   1   1  103.49   15.30
   3  -1   1  104.19   13.80
   3   1  -1   92.29   11.00
  -3  -1  -1  107.19   14.10
   3  -1  -1   80.99   14.20
  -3  -1   1  109.39   11.30
   3   1   1  111.49   14.80
  -3   1  -1   93.39   13.20
  -3  -2  -1  314.27   24.30
   3  -2   1  369.96   23.50
  -3   2   1  362.66   26.50
  -3  -2   1  362.16   22.20
  -3   2  -1  301.67   22.20
   3  -2  -1  300.37   24.70
   3   2   1  352.76   25.70
   3  -3   1  233.28   21.20
   3   3  -1  180.58   22.80
  -3   3   1  217.68   27.10
  -3  -3  -1  223.08   27.20
  -3  -3   1  188.38   19.50
  -3   3  -1  137.69   20.90
   3   3   1  228.58   22.40
   3  -3  -1  209.58   22.70
  -3   4   1  512.05   39.50
  -3  -4  -1  510.05   38.80
   3  -4   1  480.85   36.20
   3   4  -1  533.85   35.10
  -3   4  -1  495.05   36.60
  -3  -4   1  534.75   36.80
   3   4   1  475.85   37.60
   3  -4  -1  512.75   40.60
  -3  -5  -1  340.97   35.00
   3  -5   1  314.87   33.10
   3   5  -1  350.36   33.10
  -3   5   1  363.36   37.40
   3  -5  -1  417.96   39.40
   3   5   1  327.57   34.20
  -3   5  -1  340.07   34.30
  -3  -5   1  329.67   33.40
  -3   6   1  125.79   27.20
   3   6  -1  117.49   23.90
  -3   6  -1  103.49   26.30
   3   6   1   80.19   22.90
  -3   7   1   18.10   19.10
   3   7  -1   21.10   14.50
  -3   7  -1  -11.70   13.10
   3   7   1    9.90   15.20
   3   8  -1   -6.70   19.30
  -3   8   1  -10.00   16.10
   3   8   1    9.50   22.90
  -3   8  -1   -3.50   18.20
   3   0   2   -2.00    4.70
  -3   0  -2   -2.50    4.90
   3   0  -2    3.80    8.70
  -3   0   2    6.30    8.40
   3   1  -2 1327.67   46.00
   3  -1   2 1251.97   47.90
  -3  -1  -2 1290.77   50.99
   3   1   2 1261.37   51.69
  -3  -1   2 1256.07   45.20
  -3   1  -2 1280.27   48.30
   3   2  -2  114.89   12.20
   3  -2   2  105.49   15.10
  -3  -2  -2  121.09   18.60
  -3   2   2   67.09   15.50
   3  -2  -2   94.29   17.20
   3   2   2  106.79   16.80
  -3  -2   2   90.89   11.90
  -3   2  -2  127.89   16.50
  -3  -3  -2  340.77   29.60
   3   3  -2  338.17   23.40
  -3   3   2  364.36   31.00
   3  -3   2  370.76   26.30
   3  -3  -2  311.87   29.40
  -3  -3   2  359.46   25.00
  -3   3  -2  355.36   25.90
   3   3   2  337.67   29.60
  -3  -4  -2  968.30   55.99
   3  -4   2  984.80   52.79
   3   4  -2 1023.00   51.19
  -3   4   2 1011.30   59.09
   3   4   2 1070.59   59.09
  -3  -4   2 1013.30   50.59
  -3   4  -2  906.51   50.29
   3  -4  -2  983.20   58.69
   3   5  -2  375.76   31.00
  -3   5   2  453.85   41.60
   3   5   2  417.26   38.10
  -3  -5   2  466.25   36.70
  -3   5  -2  397.66   35.80
  -3   6   2  107.99   28.10
   3   6  -2  161.28   27.10
  -3   6  -2  152.68   28.70
   3   6   2  114.69   27.60
  -3  -6   2   81.19   22.20
   3   7  -2   46.10   20.70
  -3   7   2   57.49   23.90
   3   7   2   32.40   20.60
  -3   7  -2   65.79   21.10
   3   8  -2   25.10   19.60
  -3   8   2   28.80   23.30
  -3   8  -2   17.90   19.50
   3   8   2   18.50   19.20
  -3   0   3   -4.90    9.00
   3   0   3    1.20    6.00
   3   0  -3   -2.50   10.60
  -3   0  -3    3.80    5.90
  -3   1   3  663.63   35.00
  -3  -1  -3  619.94   32.80
  -3  -1   3  626.04   26.10
  -3   1  -3  606.94   27.60
  -3  -1   3  619.14   27.50
  -3   1  -3  621.94   29.00
   3   1   3  675.13   34.60
   3  -1  -3  651.53   35.60
  -3   2   3   92.29   17.90
   3   2  -3   90.59   10.60
  -3  -2  -3   76.59   16.40
   3  -2   3  132.19   17.70
   3  -2  -3  112.29   19.40
   3   2   3  112.19   17.10
  -3   2  -3   90.99   13.00
  -3  -2   3  100.79   12.30
  -3  -3  -3  313.47   29.20
  -3   3   3  310.57   30.50
   3   3  -3  322.07   21.70
   3  -3   3  320.27   24.30
  -3   3  -3  295.87   23.00
  -3  -3   3  343.77   22.50
   3   3   3  345.97   30.80
   3  -3  -3  302.67   29.70
   3  -4   3   68.39   15.30
  -3   4   3   46.00   18.20
   3   4  -3  115.79   17.00
  -3  -4  -3  104.09   22.90
   3   4   3   60.99   18.10
  -3  -4   3   87.59   17.70
   3  -4  -3  108.19   23.60
  -3   4  -3  112.19   17.10
   3   5  -3  307.87   28.30
   3  -5   3  258.97   27.90
  -3   5   3  315.47   44.30
   3   5   3  345.87   34.60
  -3   5  -3  346.57   31.10
  -3  -5   3  295.47   28.80
  -3   6   3  112.49   31.90
   3   6  -3  123.59   24.70
   3  -6   3  102.49   20.70
   3   6   3  166.08   33.60
  -3  -6   3  134.49   26.00
  -3   6  -3  110.49   23.10
   3   7  -3   86.79   22.20
  -3   7   3  125.09   34.50
   3   7   3   86.59   29.40
   3   8  -3   18.00   20.60
  -3   8   3   30.30   22.90
   3   8   3    9.80   23.20
  -3   8  -3   30.10   19.60
  -3   0   4    4.20    7.20
  -3   0  -4    0.70    5.10
   3   0   4    4.50    6.90
   3   0  -4    5.60    6.40
  -3   1   4  214.08   21.60
  -3  -1  -4  185.28   18.30
   3  -1  -4  192.78   23.90
   3   1   4  215.48   20.20
  -3   1  -4  187.08   13.80
  -3  -1   4  202.28   13.60
  -3   1  -4  162.18   14.10
  -3  -1   4  189.68   14.30
  -3   2   4  273.97   25.40
  -3  -2  -4  196.38   24.40
  -3  -2   4  238.18   15.00
   3   2   4  255.47   24.80
  -3   2  -4  206.98   16.20
   3  -2  -4  234.38   25.60
  -3  -3  -4  303.47   30.40
   3  -3   4  374.36   24.50
   3   3  -4  380.06   21.50
  -3   3   4  373.16   33.20
  -3   3  -4  410.26   24.60
   3   3   4  345.57   32.20
  -3  -3   4  325.07   20.60
   3  -3  -4  325.17   32.60
  -3   4   4  342.67   35.10
  -3  -4  -4  336.47   33.50
   3  -4   4  385.06   27.50
   3   4  -4  343.57   24.60
  -3  -4   4  354.96   26.40
  -3   4  -4  355.06   26.10
   3  -4  -4  343.77   36.10
   3   4   4  325.67   33.90
   3   5  -4  360.16   27.80
   3  -5   4  299.27   30.00
  -3   5   4  400.56   42.10
   3   5   4  394.16   39.60
  -3  -5   4  296.27   27.90
  -3   5  -4  352.26   29.90
   3   6  -4  287.37   29.10
  -3   6   4  358.16   47.30
   3  -6   4  302.47   37.30
  -3  -6   4  336.47   34.00
   3   6   4  365.96   54.69
  -3   6  -4  283.27   31.10
   3   7  -4   18.80   15.50
  -3   7   4   47.70   26.30
  -3   7  -4   39.20   16.40
   3   7   4   26.10   21.80
   3   8  -4   -3.30   15.90
  -3   8   4   -9.50   19.30
   3   8   4   33.60   25.40
  -3   8  -4  -29.70   14.50
  -3   0  -5    1.20    5.20
   3   0  -5    1.80    6.40
   3   0   5    5.90    5.00
  -3  -1  -5  283.87   23.00
  -3   1   5  257.57   23.30
   3   1  -5  267.67   16.70
   3  -1   5  294.27   18.00
   3   1   5  241.78   22.70
  -3  -1   5  285.77   17.50
   3  -1  -5  283.77   24.90
  -3   1  -5  255.87   19.20
  -3   2   5  194.18   27.20
  -3  -2  -5  227.98   29.00
   3   2   5  195.08   26.60
  -3  -2   5  147.99   11.00
   3  -2  -5  202.98   28.90
  -3   2  -5  202.68   14.60
  -3   2  -5  181.58   13.20
  -3  -2   5  159.68   12.30
  -3  -3  -5  157.08   26.30
  -3   3   5  168.78   27.10
   3   3  -5  174.48   12.80
   3  -3   5  144.79   15.50
   3  -3  -5  181.68   31.30
  -3  -3   5  155.28   13.30
   3   3   5  146.29   24.70
  -3   3  -5  150.18   15.00
  -3   4   5  104.89   25.70
   3   4  -5  104.49   13.90
   3  -4   5  105.29   16.70
   3   4   5   98.69   22.60
  -3   4  -5  133.99   18.60
  -3  -4   5  112.89   15.20
  -3   5   5  165.18   32.80
   3   5  -5  165.88   21.60
   3  -5   5  179.98   23.70
  -3  -5   5  164.08   20.90
   3   5   5  120.59   26.60
  -3   5  -5  170.08   22.10
  -3   6   5   64.09   24.50
   3  -6   5   15.00   15.10
   3   6  -5   66.49   15.50
  -3  -6   5   14.50   17.10
  -3   6  -5   22.90   15.70
   3   6   5   68.29   22.10
  -3   7   5   -9.80   23.60
   3  -7   5    8.30   28.70
  -3  -7   5   43.40   23.30
   3   7   5   43.90   23.10
  -3   7  -5   53.79   18.80
   3   8  -5   23.70   18.30
  -3   8   5   15.00   18.80
  -3   8  -5   38.70   21.50
   3   8   5   30.10   27.70
  -3   0  -6    8.60    5.40
   3   0   6   -6.70    5.10
  -3   0   6   -0.80    8.40
   3   0  -6   -7.70    7.20
   3  -1   6  172.88   15.10
  -3  -1  -6  219.98   26.40
  -3   1   6  218.68   26.60
   3   1  -6  200.78   14.90
  -3   1  -6  180.08   15.50
   3  -1  -6  172.78   23.50
  -3  -1   6  184.48   14.60
   3   1   6  222.18   21.60
  -3  -2  -6   29.90   12.40
  -3   2   6   43.80   16.40
  -3  -2   6   53.79    5.80
   3   2   6   40.50   13.80
  -3   2  -6   58.79   10.20
  -3   2  -6   62.19    9.30
  -3  -2   6   44.60    6.50
   3  -2  -6   78.99   19.40
  -3   3   6  181.28   30.90
  -3  -3  -6  175.18   31.30
  -3  -3   6  196.98   11.50
  -3  -3   6  189.28   12.00
   3  -3  -6  186.48   31.40
  -3   3  -6  184.48   14.40
  -3   3  -6  168.98   13.10
   3   3   6  229.18   33.10
  -3   4   6  278.57   39.90
   3   4  -6  288.07   18.20
   3  -4   6  309.17   21.60
  -3   4  -6  286.87   21.40
   3   4   6  341.37   47.60
   3   5  -6  187.58   17.70
   3  -5   6  162.28   22.70
  -3   5   6  143.49   33.10
  -3  -5   6  218.48   19.70
  -3   5  -6  150.78   20.20
   3   5   6  165.38   32.00
   3   6  -6   44.90   13.40
  -3   6   6   44.40   22.90
   3  -6   6   23.50   18.70
  -3  -6   6   35.80   17.20
   3   6   6   56.69   24.90
  -3   6  -6   56.19   15.40
   3   7  -6   67.59   18.30
  -3   7   6   89.69   34.10
   3  -7   6   55.69   26.70
   3   7   6   80.99   33.80
  -3   7  -6   45.20   18.10
  -3  -7   6   61.99   27.30
  -3   8   6   56.79   32.90
   3   8  -6   49.99   19.00
  -3   8  -6   35.40   19.40
   3   8   6    6.80   22.90
  -3   0   7    0.50    7.10
   3   0  -7   12.00    9.30
   3   0   7   -1.20    6.70
  -3   0  -7   -1.50    5.90
  -3  -1  -7   27.60   11.00
   3  -1   7   32.50    6.70
   3   1  -7   19.70    8.20
  -3   1   7   43.50   13.90
  -3  -1   7   29.10    7.90
  -3   1  -7   29.40   10.10
   3  -1  -7   16.40   10.60
   3   1   7   47.90   14.10
  -3   2   7  140.69   26.30
  -3   2  -7  198.68   13.50
   3   2   7  192.88   27.90
   3  -2  -7  244.68   35.60
  -3   2  -7  191.48   14.60
  -3  -3  -7  268.17   41.30
  -3   3   7  321.87   41.60
   3   3   7  293.67   31.30
  -3   3  -7  247.68   15.00
  -3   3  -7  240.28   14.80
   3  -3  -7  246.78   38.70
  -3   4   7  235.08   38.80
  -3   4  -7  229.58   16.00
   3   4   7  219.98   36.70
  -3   4  -7  237.28   19.70
   3   5  -7  178.38   14.80
   3  -5   7  171.88   21.50
  -3   5   7  123.29   32.70
   3   5   7  108.69   27.50
  -3   5  -7  155.98   17.00
  -3   6   7   50.79   25.40
   3   6  -7   37.70   11.30
   3  -6   7   33.10   16.40
   3   6   7   25.70   20.20
  -3  -6   7   47.20   15.00
  -3   6  -7   42.40   11.50
   3  -7   7  -16.10   19.70
  -3   7   7   10.00   23.50
   3   7  -7   -3.10   12.40
   3   7   7   14.10   28.90
  -3  -7   7   39.40   20.10
  -3   7  -7   19.70   12.90
   3   0  -8   -0.50    7.20
  -3   0  -8    1.90    8.00
  -3   0   8   -5.90    8.30
   3   0   8    6.60    7.30
   3   1  -8  205.58   23.90
  -3  -1  -8  194.78   27.90
   3  -1   8  181.88   16.70
  -3   1   8  255.67   32.00
   3   1   8  186.08   25.80
  -3  -1   8  147.49   15.30
   3  -1  -8  216.18   28.00
  -3   1  -8  171.28   15.90
  -3   2   8  439.26   37.30
  -3  -2  -8  391.16   36.30
  -3   2  -8  453.35   21.50
   3  -2  -8  399.46   37.80
   3   2   8  430.16   37.10
  -3   2  -8  427.86   22.10
  -3   3   8  153.48   30.60
   3   3   8  153.28   30.50
  -3   4   8  108.59   26.00
   3   4   8   41.90   22.80
  -3   5   8   26.50   19.20
   3   5   8   21.60   18.40
  -3   5  -8   15.60    6.60
  -3   5  -8   20.00    7.10
  -3   6   8   79.79   26.70
  -3  -6   8   72.29   13.30
   3   6   8   57.19   26.30
  -3   6  -8   69.49   12.20
   3  -7   8   30.50   20.80
   3   7  -8   56.79   14.50
  -3   7   8   84.69   26.70
  -3   7  -8   95.59   16.30
   3   7   8  103.39   34.80
  -3  -7   8   61.99   20.90
   3   0   9    7.60    6.50
  -3   0   9   -8.70    8.30
  -3   0  -9   -0.30    7.70
   3   0  -9   -1.20    9.70
  -3   1   9   61.79   18.60
  -3  -1  -9   50.49   16.50
   3  -1   9  111.99   16.00
   3   1  -9   79.69   14.20
  -3  -1   9   65.69   12.80
   3  -1  -9  100.99   20.10
  -3   1  -9   80.59   13.30
   3   1   9   86.29   20.20
  -3   2   9   77.19   22.60
  -3  -2  -9   21.90   16.70
  -3   2  -9   80.19    9.00
  -3   2  -9   84.59   10.10
   3   2   9   53.19   18.90
   3  -2  -9   77.59   20.80
  -3   3   9   75.99   25.10
  -3   4   9  311.17   47.10
   3   4   9  275.87   41.60
  -3   5   9   72.19   28.00
   3   5   9   16.20   18.90
  -3   6   9   61.39   28.00
   3   6   9   93.99   28.10
  -3   7   9   44.90   28.30
   3   7   9   70.29   29.50
   3   0  10    9.00   10.00
  -3   0 -10  -19.90    8.90
   3   0 -10   -0.50   10.00
  -3   0  10    2.40    9.10
  -3  -1 -10  102.89   21.60
   3   1 -10  105.49   15.80
  -3   1  10  106.99   21.00
   3  -1  10  111.09   15.90
  -3   1 -10   73.29   15.70
   3   1  10  100.99   20.40
  -3   2  10   75.09   21.30
   3   2  10   82.49   21.60
  -3   2 -10   70.49    9.20
  -3   2 -10   75.99    8.50
  -3   3  10   98.49   27.00
   3   3  10  197.98   36.10
  -3   4  10   56.19   24.40
   3   4  10   41.10   20.20
  -3   5  10  124.19   35.10
   3   5  10  139.39   33.50
  -3   6  10   26.20   27.20
   3   6  10  138.79   39.70
  -3   0  11    0.00   10.10
   3   0  11  -13.10    8.60
   3   0 -11   14.40   15.60
  -3   0 -11   16.80   12.60
   3  -1  11  185.68   18.50
  -3   1  11  136.09   26.50
   3   1 -11  173.98   20.50
  -3  -1 -11  185.98   28.80
  -3  -1  11  189.98   23.90
   3   1  11  196.78   29.40
  -3   1 -11  164.88   18.10
   3  -1 -11  191.38   29.40
  -3   2  11  280.77   39.60
   3   2  11  179.18   32.90
  -3   3  11   17.70   18.20
   3   3  11   19.20   18.80
  -3   4  11   49.99   23.30
   3   4  11   63.39   24.80
  -3   5  11  -17.60   18.80
   3   5  11  -34.50   18.30
   3   0 -12   -2.20   14.10
  -3   0 -12  -18.40   13.30
   3   0  12    2.10   10.00
  -3   0  12   -6.80   11.80
   3  -1  12  160.98   19.20
  -3   1  12  173.18   28.70
  -3  -1 -12  134.49   28.90
   3   1 -12  124.19   18.50
   3  -1 -12  115.89   25.80
  -3  -1  12  163.58   21.10
   3   1  12  206.08   31.60
  -3   1 -12  133.09   19.10
   3   2  12   27.20   16.60
  -3   3  12  187.28   35.80
   3   3  12  172.58   35.80
  -3   4  12   67.39   27.70
   3   4  12   95.49   29.80
  -3   5  12   -0.70   24.70
   3   5  12   18.60   23.90
   3   0 -13   29.70   17.90
  -3   0  13    8.10   13.40
   3   0  13    2.20   11.70
  -3   1  13   17.60   17.90
   3  -1  13    3.30   10.20
   3   1 -13    1.70   11.40
   3   1  13   17.70   15.10
  -3   1 -13    6.90   10.60
  -3   2  13    7.00   15.90
   3   2  13   -0.90   12.20
  -3   3  13  158.58   39.20
   3   3  13  125.99   31.00
  -3   4  13   48.60   29.10
   3   4  13  -13.40   21.00
   3   0 -14   25.50   21.20
  -3   0 -14   11.20   17.30
  -3   0  14   15.10   15.60
   3   0  14  -14.60   13.70
   3   1 -14   49.70   17.10
  -3   1  14   30.50   18.50
  -3  -1  14   54.89   18.60
  -3   1 -14   40.30   15.00
   3   1  14   50.79   18.70
  -3   2  14  120.49   31.20
   3   2  14   74.39   29.50
  -3   3  14   30.70   24.50
   3   3  14  -14.50   21.90
  -3   0  15   14.50   17.70
  -3   0 -15  -59.79   18.70
   3   0  15   13.10   17.90
  -3   1  15   30.20   20.90
   3   1  15   37.80   23.20
  -3   1 -15    7.00   14.00
  -4   0   0   69.69   11.60
  -4   0   0   59.49   10.60
  -4  -1   0   22.50    7.90
   4  -1   0   17.90    9.80
  -4   2   0  264.77   22.70
   4  -2   0  239.38   21.40
   4   2   0  257.07   21.50
  -4  -2   0  215.88   19.50
   4  -3   0    0.60    7.40
  -4  -3   0    8.90    8.50
   4   3   0   -2.50    6.00
  -4   3   0    1.00    8.40
  -4   4   0   39.40   16.30
   4   4   0   28.60   13.20
  -4  -4   0   43.90   13.30
   4  -4   0   33.40   13.40
   4  -5   0    7.60   15.70
  -4  -5   0   41.50   20.30
   4   5   0   33.40   13.60
  -4   5   0   32.00   14.00
  -4   6   0   19.00   17.90
  -4   7   0   24.00   21.80
   4   7   0   -0.40   14.30
  -4   8   0   -4.80   19.90
   4   8   0    0.80   17.40
  -4   0  -1  114.89   14.50
  -4   0   1  200.08   18.20
   4   0  -1   92.29   13.90
   4   0   1  156.68   14.90
   4  -1   1 1168.48   48.50
   4   1  -1 1198.98   46.20
  -4   1   1 1116.09   49.60
  -4  -1  -1 1179.98   48.20
  -4  -1   1 1114.49   45.20
   4  -1  -1 1131.99   50.29
   4   1   1 1148.39   48.20
  -4   1  -1 1239.68   54.19
  -4   2   1  409.26   29.60
   4   2  -1  400.06   25.50
  -4  -2  -1  395.56   26.90
   4  -2   1  407.06   26.60
  -4  -2   1  402.06   24.80
   4   2   1  376.76   27.60
   4  -2  -1  458.35   30.40
  -4   2  -1  408.46   27.60
  -4  -3  -1  638.24   38.70
  -4   3   1  608.14   40.30
   4  -3   1  640.94   38.70
   4   3  -1  622.04   36.20
  -4   3  -1  618.64   38.30
  -4  -3   1  573.64   35.30
   4  -3  -1  648.44   41.80
   4   3   1  630.94   40.40
   4  -4   1    8.80    9.30
  -4   4   1   16.30    9.30
   4   4  -1   26.20    9.80
   4   4   1   16.40   11.00
   4  -4  -1   15.70   13.50
  -4  -4   1    3.30    9.60
  -4   4  -1   15.20   10.30
  -4   5   1    4.60   13.90
   4   5  -1    5.00    8.90
   4  -5   1   27.90   15.40
  -4  -5  -1  -39.70   21.60
  -4  -5   1  -15.20   13.00
  -4   5  -1  -16.40    9.30
   4   5   1   18.90   13.30
   4   6  -1   68.09   19.50
  -4   6   1   42.50   21.70
  -4   6  -1  109.49   26.70
   4   6   1  102.89   24.40
  -4   7   1   28.80   20.80
   4   7  -1   55.39   22.80
  -4   7  -1   88.39   29.20
   4   7   1   51.39   20.20
  -4   8   1    7.50   22.30
   4   8  -1   65.39   26.20
  -4   8  -1   -7.90   18.50
   4   8   1   12.10   23.70
  -4   0   2 1403.46   56.09
   4   0  -2 1454.55   56.39
  -4   0  -2 1429.46   53.79
   4   0   2 1416.16   58.29
   4   1  -2   59.19   10.90
   4  -1   2   65.19   12.10
  -4  -1  -2   73.19   13.10
  -4   1   2   45.70   12.20
  -4   1  -2   63.89   12.30
   4   1   2   45.20   11.00
  -4  -1   2   65.49   10.70
   4  -1  -2   46.90   13.00
   4  -2   2  127.69   17.60
  -4  -2  -2  125.89   19.10
  -4   2   2   99.29   18.80
   4   2  -2  144.79   13.70
   4   2   2   84.89   16.20
  -4  -2   2   94.59   13.80
   4  -2  -2  126.99   20.00
  -4   2  -2  183.48   21.60
  -4  -3  -2   32.60   12.70
   4   3  -2   31.70    9.70
  -4   3   2   19.80   11.70
   4  -3   2   23.80   11.00
  -4  -3   2   39.20   10.70
   4   3   2   41.80   14.20
  -4   3  -2   29.60   10.50
   4  -3  -2   34.30   12.50
   4   4  -2   53.89   12.20
   4  -4   2   30.90   14.50
  -4  -4  -2   80.29   20.10
  -4   4   2   53.09   17.00
   4   4   2   43.80   13.90
  -4  -4   2   50.19   13.80
   4  -4  -2   60.19   19.30
  -4   4  -2   54.89   15.20
   4  -5   2   20.00   16.00
   4   5  -2    0.30   10.50
  -4   5   2   20.20   14.80
   4   5   2   17.20   13.30
  -4   5  -2   23.40   14.90
  -4   6   2    5.50   16.80
   4   6  -2    9.10   12.10
   4   6   2   14.80   14.60
  -4   6  -2   17.20   15.00
   4   7  -2   57.39   17.40
  -4   7   2    4.10   18.70
  -4   7  -2   64.89   26.40
   4   7   2   17.10   15.80
   4   8  -2    4.40   16.80
  -4   8   2    6.20   20.10
   4   8   2   12.80   24.30
  -4   8  -2   -5.80   19.20
  -4   0   3  873.41   43.40
  -4   0  -3  839.92   37.70
   4   0  -3  908.11   40.70
   4   0   3  875.91   39.00
  -4  -1  -3  814.72   41.20
  -4   1   3  869.81   43.20
  -4   1  -3  872.71   37.60
   4   1   3  803.02   40.80
  -4  -1   3  934.01   38.30
  -4   1  -3  822.52   38.60
   4  -1  -3  819.02   41.40
   4  -2   3  423.96   26.00
  -4   2   3  411.46   31.60
  -4  -2  -3  384.56   30.40
   4   2  -3  414.66   23.70
   4  -2  -3  420.26   31.40
   4   2   3  428.86   31.10
  -4   2  -3  429.06   25.50
  -4  -2   3  415.96   23.10
  -4   3   3  787.92   49.00
   4   3  -3  811.92   38.30
   4  -3   3  785.32   41.70
  -4  -3  -3  761.32   46.30
   4   3   3  816.62   48.80
   4  -3  -3  768.02   49.30
  -4  -3   3  764.92   38.20
  -4   3  -3  809.22   41.90
   4   4  -3   86.69   17.00
  -4  -4  -3   22.00   14.30
  -4   4   3   32.00   14.50
   4  -4   3   63.99   15.50
   4  -4  -3   65.59   18.90
  -4   4  -3   54.39   14.70
   4   4   3   27.00   16.10
  -4  -4   3   29.60   11.50
  -4   5   3   15.00   16.90
   4  -5   3   22.60   11.80
   4   5  -3    7.90    8.90
  -4   5  -3   -5.80    9.00
  -4  -5   3   16.40   13.30
   4   5   3   19.60   13.00
   4  -6   3   97.19   24.60
   4   6  -3  125.39   24.30
  -4   6   3  174.48   37.20
  -4   6  -3  103.49   26.20
  -4  -6   3   86.69   24.20
   4   6   3  175.08   35.10
  -4   7   3   17.50   18.70
   4   7   3   28.90   19.20
  -4   7  -3   59.89   19.50
   4   8  -3   19.10   18.30
  -4   8   3   24.40   23.60
   4   8   3   86.69   25.80
  -4   8  -3   67.79   25.10
  -4   0   4  228.68   19.80
  -4   0  -4  289.77   20.20
   4   0  -4  255.37   20.60
   4   0   4  257.87   19.30
  -4  -1  -4   91.59   17.50
  -4   1   4   75.39   16.00
   4   1   4  102.59   17.20
  -4   1  -4  104.29   18.70
  -4  -1   4  110.69   14.80
  -4   1  -4  130.49   16.00
   4  -1  -4  107.09   19.40
  -4   2   4  209.98   23.00
  -4  -2  -4  226.38   24.20
  -4  -2   4  253.07   29.10
   4  -2  -4  230.58   25.00
  -4  -2   4  233.58   17.80
   4   2   4  215.78   23.60
   4   3  -4  154.98   14.00
  -4  -3  -4  186.98   29.50
  -4   3   4  180.68   27.80
   4  -3   4  174.88   20.70
  -4  -3   4  172.48   17.30
   4  -3  -4  203.18   34.20
  -4   3  -4  189.58   18.70
   4   3   4  143.49   23.40
   4   4  -4   78.49   14.00
   4  -4   4   56.49   14.40
  -4   4   4   88.59   23.90
  -4   4  -4  120.29   18.40
   4   4   4   58.39   19.10
  -4  -4   4   92.09   15.70
   4  -5   4   20.40   14.70
   4   5  -4   31.80   13.00
  -4   5   4   16.60   16.90
  -4  -5   4   15.20   12.40
  -4   5  -4   18.20   13.60
   4   5   4   30.30   12.70
  -4   6   4   93.79   28.90
   4  -6   4   53.79   19.20
   4   6  -4   53.29   18.10
  -4   6  -4   28.80   16.90
  -4  -6   4   72.49   17.60
   4   6   4   85.49   27.40
   4   7  -4   33.50   15.50
  -4   7   4   74.69   28.80
   4   7   4   38.00   25.10
  -4   7  -4   76.29   21.40
  -4   8   4  120.99   34.80
   4   8  -4   42.20   22.70
  -4   8  -4   63.79   23.50
   4   8   4   53.89   31.70
   4   0  -5 1077.89   47.60
  -4   0  -5 1117.69   47.80
  -4   0   5 1015.40   47.50
   4   0   5 1011.40   45.70
  -4  -1  -5  757.72   40.70
  -4   1   5  660.23   40.10
   4   1  -5  728.53   36.60
   4  -1  -5  691.33   40.90
  -4  -1   5  694.83   33.10
   4   1   5  752.02   41.00
  -4   1  -5  722.83   33.50
  -4   2   5  520.15   37.90
  -4  -2  -5  490.45   35.90
  -4  -2   5  515.05   24.40
   4  -2  -5  555.54   39.80
  -4   2  -5  526.65   27.00
  -4  -2   5  509.65   25.80
   4   2   5  558.94   38.90
  -4   2  -5  550.54   36.10
   4  -3   5  222.18   19.50
   4   3  -5  264.17   18.40
  -4   3   5  262.07   35.50
  -4  -3  -5  293.67   38.20
  -4   3  -5  267.97   21.00
  -4  -3   5  254.17   17.80
   4  -3  -5  242.58   35.90
   4   3   5  275.37   29.50
   4  -4   5   31.40   10.30
  -4   4   5   19.80   11.80
   4   4  -5   21.80    9.20
  -4  -4   5   11.10   10.30
  -4   4  -5   17.50   10.40
   4   4   5   22.30   15.70
   4  -5   5    2.90   12.00
   4   5  -5   19.00   10.20
  -4   5   5   16.00   15.60
   4   5   5   -3.20   13.40
  -4  -5   5   17.50   11.80
  -4   5  -5  -10.30    9.80
  -4   6   5  212.28   43.50
   4  -6   5  116.79   21.90
   4   6  -5  132.79   21.70
   4   6   5  102.59   28.10
  -4  -6   5  116.49   22.00
  -4   6  -5  132.29   24.90
  -4   7   5   32.40   23.80
   4   7  -5   22.80   13.10
  -4  -7   5   -6.20   23.90
   4   7   5  -11.10   17.80
  -4   7  -5   21.90   13.40
  -4   8   5   30.60   32.20
   4   8  -5   82.49   23.10
  -4   8  -5   36.80   23.20
   4   8   5   79.79   37.40
  -4   0  -6  456.55   38.70
   4   0  -6  446.96   28.80
   4   0   6  426.76   27.80
  -4   0   6  426.76   28.30
  -4  -1  -6   36.90   11.80
   4  -1   6   30.00    9.30
  -4   1   6   41.60   13.30
   4   1  -6   40.60   11.00
  -4   1  -6   44.00    9.70
   4   1   6   50.59   14.70
   4  -1  -6   33.80   12.20
  -4  -1   6   23.50    9.40
  -4   2   6  228.58   31.70
  -4  -2  -6  240.18   26.30
   4   2   6  250.97   27.00
  -4   2  -6  243.08   17.70
  -4  -2   6  225.58   16.00
  -4   2  -6  227.48   20.50
  -4  -2   6  227.78   14.40
   4  -2  -6  260.57   31.80
  -4   3   6  325.57   45.50
  -4  -3  -6  204.48   32.80
   4  -3  -6  311.17   39.10
  -4   3  -6  241.88   25.50
  -4  -3   6  218.18   14.90
   4   3   6  269.27   36.30
  -4  -3   6  227.98   16.10
  -4   3  -6  239.28   17.50
  -4   4   6  100.69   27.70
   4  -4   6  154.78   20.50
  -4   4  -6  135.79   17.90
  -4  -4   6  140.39   16.10
   4   5  -6   47.10   11.30
  -4   5   6   41.70   21.20
   4  -5   6   11.00   11.40
   4   5   6   65.59   24.50
  -4   5  -6   49.60   12.30
  -4  -5   6   45.30   13.60
   4  -6   6   23.10   18.00
   4   6  -6   39.40   12.10
  -4   6   6    1.60   18.50
  -4  -6   6    7.00   14.20
   4   6   6   25.30   19.30
  -4   6  -6   10.80   12.90
   4   7  -6   46.80   16.60
  -4   7   6   41.90   25.00
   4  -7   6   46.70   29.30
   4   7   6   25.10   25.60
  -4   7  -6   61.99   18.30
  -4  -7   6    1.10   23.90
   4   8  -6   21.00   15.90
  -4   8   6   29.40   25.60
   4   8   6    4.60   23.20
  -4   8  -6  -14.80   30.70
  -4   0   7  281.77   23.70
   4   0   7  322.27   24.50
   4   0  -7  289.07   24.10
  -4   0  -7  311.27   24.00
  -4   1   7  950.10   50.09
   4  -1   7  855.41   39.70
   4   1  -7  927.51   40.00
  -4  -1  -7  847.82   47.50
   4  -1  -7  843.82   48.70
  -4  -1   7  825.32   40.20
   4   1   7  830.02   47.90
  -4   1  -7  839.12   39.80
  -4  -2  -7  229.88   29.50
  -4   2   7  269.47   37.10
  -4   2  -7  238.98   17.20
   4  -2  -7  229.08   30.90
  -4  -2   7  228.98   14.00
   4   2   7  274.17   35.20
  -4   2  -7  289.97   20.80
  -4  -2   7  232.38   14.90
  -4   3   7  144.69   28.60
  -4   3  -7  141.29   18.20
   4   3   7  130.29   28.80
  -4   3  -7  133.69   13.80
  -4  -3   7  138.99   10.10
  -4  -3   7  113.39    9.90
  -4   4   7   65.09   21.10
  -4  -4   7   73.09   10.60
  -4   4  -7   77.49   13.30
  -4   4  -7   59.59   11.80
   4   4   7   75.19   22.80
  -4  -4   7   52.99    9.80
   4   5  -7   57.49   12.30
   4  -5   7   64.29   14.40
  -4   5   7   92.79   28.10
  -4   5  -7   66.79   14.00
   4   5   7   96.69   28.40
  -4  -5   7   45.10   11.60
   4   6  -7   19.20   10.50
  -4   6   7  -10.80   18.30
   4  -6   7    6.10   14.00
   4   6   7    8.90   20.00
  -4   6  -7   20.10   11.80
  -4  -6   7    7.70   13.30
  -4   7   7  -11.60   27.90
   4   7  -7    8.30   12.00
  -4   7  -7   34.00   15.90
  -4  -7   7   34.40   19.70
   4   7   7    6.00   24.30
   4   0   8  146.29   22.30
   4   0  -8  137.99   19.70
  -4   0  -8  126.59   18.50
  -4   0   8   75.59   16.10
   4   1  -8   42.80   11.20
   4  -1   8   21.20    9.10
  -4  -1  -8   45.60   14.60
  -4   1   8   22.60   11.80
  -4   1  -8   63.39   12.60
   4  -1  -8   47.90   15.20
   4   1   8   32.00   14.30
  -4   2   8  319.67   40.30
  -4  -2  -8  345.57   40.30
  -4  -2   8  286.77   15.10
  -4  -2   8  283.47   15.70
   4  -2  -8  315.67   34.00
   4   2   8  306.97   33.40
  -4   2  -8  293.17   22.00
  -4   2  -8  304.47   20.10
  -4   3   8  111.89   26.40
  -4   3  -8   96.49   11.90
  -4   3  -8   97.89   11.50
   4   3   8  102.29   27.40
  -4   4   8   52.59   23.10
  -4   4  -8   29.10    8.00
  -4   4  -8    9.50    7.10
   4   4   8   42.60   20.60
  -4   5   8   36.80   22.50
  -4   5  -8   18.50    8.20
   4   5   8   20.40   15.00
  -4   6   8   48.50   27.20
   4   6   8   13.70   22.10
  -4   6  -8   15.40   10.10
   4   7  -8   19.40   12.40
  -4   7   8   22.60   23.50
   4  -7   8   23.60   21.30
   4   7   8  -21.20   27.50
  -4  -7   8    8.20   20.00
  -4   7  -8    7.50   12.80
   4   0  -9  474.65   33.90
  -4   0   9  433.46   32.00
   4   0   9  475.65   31.70
  -4   0  -9  473.45   33.10
   4   1  -9  780.82   37.90
  -4   1   9  811.32   49.70
   4  -1   9  846.22   39.90
  -4  -1   9  795.12   38.20
  -4   1  -9  774.22   39.70
   4  -1  -9  786.82   49.90
   4   1   9  835.72   50.19
  -4   2   9  114.89   26.10
  -4  -2  -9  124.99   27.00
  -4   2  -9  173.08   19.90
   4   2   9   93.09   23.00
   4  -2  -9  171.58   30.60
  -4   2  -9  134.89   14.80
   4   3   9  178.38   34.50
  -4   3  -9  100.99    9.20
  -4   4   9   -5.80   16.50
   4   4   9    3.90   14.10
  -4   5   9   21.70   18.50
   4   5   9   20.80   11.50
  -4   6   9    1.80   18.40
   4   6   9   35.90   23.90
  -4   7   9   23.60   26.20
  -4   7  -9   16.20   12.30
   4   7   9   91.79   39.30
   4   0 -10  289.27   32.00
  -4   0  10  269.87   27.20
  -4   0 -10  276.37   26.20
   4   0  10  313.57   27.50
  -4   1  10  151.78   26.20
   4  -1  10  216.58   19.80
  -4  -1 -10  165.58   27.20
   4   1 -10  169.78   21.20
  -4  -1  10  180.78   20.40
   4  -1 -10  188.08   27.70
   4   1  10  151.98   25.00
  -4   1 -10  187.88   22.50
  -4   2  10   19.50   18.20
   4   2  10   43.40   20.40
  -4   2 -10   37.90   11.10
  -4   3  10   25.10   16.30
   4   3  10   32.30   19.20
  -4   4  10   57.39   20.80
   4   4  10   36.50   20.90
  -4   5  10    3.80   19.00
   4   5  10   13.30   21.80
  -4   6  10  -13.90   17.20
   4   6  10   32.60   21.20
   4   0  11  334.77   30.40
   4   0 -11  342.37   31.30
  -4   0  11  288.27   27.90
  -4   0 -11  316.27   30.80
  -4  -1 -11  371.26   37.80
   4  -1  11  492.35   30.40
  -4   1  11  432.96   37.10
   4   1 -11  481.45   30.40
   4  -1 -11  484.05   42.50
  -4  -1  11  425.26   25.90
  -4   1 -11  375.06   28.10
   4   1  11  481.95   39.90
  -4   2  11  149.49   29.40
  -4   2 -11  136.39   16.20
   4   2  11  133.89   30.70
  -4   3  11   41.50   25.20
   4   3  11   49.50   21.20
  -4   4  11   -4.60   15.20
   4   4  11   29.40   23.40
  -4   5  11   -5.90   18.20
   4   5  11  -11.60   21.70
  -4   6  11   18.80   40.00
   4   6  11    8.00   33.00
   4   0  12  246.78   31.40
  -4   0 -12  234.68   37.70
  -4   0  12  259.67   30.20
   4   0 -12  257.67   29.90
  -4   1  12  318.67   34.50
   4   1 -12  272.37   25.20
   4  -1  12  295.77   24.10
  -4   1 -12  279.57   25.60
   4   1  12  345.17   34.40
  -4  -1  12  297.77   22.00
   4  -1 -12  266.07   35.60
  -4   2  12   -4.70   15.90
  -4   2 -12   32.70    8.50
   4   2  12   35.70   17.00
  -4   2 -12   44.50    8.60
  -4   3  12   86.59   24.20
   4   3  12   46.20   22.00
  -4   4  12   47.50   25.10
   4   4  12   16.40   23.00
  -4   5  12   37.30   30.00
   4   5  12    9.00   25.90
   4   0  13  158.38   24.80
   4   0 -13  117.59   27.00
  -4   0  13  117.69   24.20
  -4   0 -13  115.09   23.40
   4   1 -13  139.19   18.60
   4  -1  13  126.69   20.10
  -4   1  13  140.19   29.80
  -4   1 -13  111.89   19.50
   4   1  13  169.28   32.10
  -4  -1  13  167.88   20.00
  -4   2  13  120.39   27.30
   4   2  13  128.09   32.90
  -4   3  13   38.50   22.50
   4   3  13   17.80   20.90
  -4   4  13  -22.00   22.10
   4   4  13    6.80   24.60
  -4   0 -14   87.69   25.30
   4   0  14   64.69   19.00
  -4   0  14   75.99   20.00
  -4   1  14   52.29   21.40
  -4   1 -14   30.10   15.80
  -4   2  14   23.50   22.10
   4   2  14   62.89   28.60
  -4   3  14   14.50   21.00
   4   3  14   32.40   22.70
   4   0  15  120.09   27.90
  -4   0  15  123.99   25.00
  -4   0 -15  104.19   25.50
   4   1  15   15.20   23.90
  -4   1 -15   23.70   16.10
  -5   0   0    1.90    8.50
  -5   0   0   -5.10    5.20
  -5  -1   0  424.96   26.40
   5   1   0  349.27   23.60
  -5   1   0  381.96   27.90
   5  -1   0  395.56   26.50
   5   2   0  135.59   19.20
   5  -2   0  114.49   19.00
  -5  -2   0  100.39   16.90
  -5   2   0   79.19   15.50
   5   3   0  504.35   35.70
  -5  -3   0  513.95   34.10
  -5   3   0  569.74   38.50
   5  -3   0  580.24   37.10
   5  -4   0  567.44   72.59
  -5  -4   0  504.25   41.80
  -5   4   0  565.14   42.10
   5   4   0  561.34   40.30
   5  -5   0  499.65   50.09
  -5   5   0  517.25   43.20
  -5  -5   0  544.75   43.30
   5   5   0  519.65   41.80
   5   6   0  207.38   35.40
  -5   6   0  279.17   42.10
  -5   7   0   98.59   28.50
   5   7   0  101.39   26.90
  -5   8   0   15.80   24.10
   5   8   0   34.10   24.20
  -5   0   1   -1.10    8.70
  -5   0  -1   -0.20    7.40
   5   0   1    0.90    7.60
   5   0  -1  -10.60    8.10
   5  -1   1  503.05   30.00
  -5   1   1  487.75   30.50
  -5  -1  -1  468.45   27.80
   5   1  -1  480.75   27.80
   5  -1  -1  476.35   30.60
  -5  -1   1  493.55   27.30
   5   1   1  469.35   28.60
  -5   1  -1  435.96   29.60
  -5  -2  -1  284.47   23.90
   5   2  -1  260.87   21.40
   5  -2   1  299.17   24.10
  -5   2   1  298.67   26.00
  -5   2  -1  252.47   23.30
   5   2   1  292.87   23.80
  -5  -2   1  288.47   21.30
   5  -2  -1  256.77   23.80
  -5  -3  -1   33.00   12.80
   5   3  -1   22.30    9.80
   5  -3   1   16.10    9.90
  -5   3   1   10.40    8.50
  -5   3  -1   17.30   11.80
   5  -3  -1   29.40   13.10
  -5  -3   1   14.30    9.50
   5   3   1    0.80    9.30
  -5   4   1  229.68   31.90
   5  -4   1  252.17   27.40
  -5  -4  -1  181.68   27.50
   5   4  -1  250.57   25.60
   5  -4  -1  210.38   30.60
  -5  -4   1  234.38   30.10
  -5   4  -1  245.78   32.80
   5   4   1  237.38   32.10
   5  -5   1   20.10   18.00
   5   5  -1   42.70   16.80
  -5   5   1   22.80   15.70
  -5   5  -1   61.39   18.50
  -5  -5   1   37.10   17.50
   5   5   1   33.30   14.70
   5   6  -1   -0.10   12.70
  -5   6   1   23.70   15.80
   5   6   1   14.20   14.20
   5   7  -1    4.30   15.70
  -5   7   1   24.60   17.60
  -5   7  -1   16.20   21.30
   5   7   1    9.10   15.90
   5   8  -1   10.10   17.30
  -5   8   1   32.00   24.30
  -5   8  -1   35.50   21.30
   5   8   1   61.59   27.60
  -5   0   2    5.40    9.40
   5   0  -2    3.70    7.60
  -5   0  -2   -4.20    5.00
   5   0   2    9.00    6.60
  -5   1   2   66.89   14.60
  -5  -1  -2  127.09   17.40
   5   1   2   80.49   14.10
  -5   1  -2  120.89   15.70
  -5  -1   2  107.79   13.40
  -5  -1   2  108.49   16.10
   5  -1  -2  148.79   21.60
  -5   1  -2  125.59   17.80
  -5   2   2  173.58   24.80
   5  -2   2  166.48   18.10
  -5  -2  -2  187.18   19.50
   5   2  -2  171.98   15.50
   5   2   2  157.18   23.00
  -5   2  -2  174.08   19.10
   5  -2  -2  214.28   27.20
  -5  -2   2  154.08   16.30
  -5  -3  -2  673.13   43.60
   5   3  -2  719.93   38.50
  -5   3   2  629.54   44.30
   5  -3   2  660.43   40.80
   5   3   2  679.53   43.40
   5  -3  -2  727.73   46.40
  -5  -3   2  653.53   37.20
  -5   3  -2  756.42   41.90
  -5   4   2  382.76   36.80
   5   4  -2  372.66   29.50
  -5  -4  -2  442.76   36.30
   5  -4   2  361.96   32.00
   5   4   2  393.06   36.00
   5  -4  -2  350.96   42.30
  -5   4  -2  382.46   31.80
  -5  -4   2  414.16   31.90
  -5   5   2  368.26   39.60
   5   5  -2  418.96   34.70
   5  -5   2  365.96   35.20
   5   5   2  392.16   40.80
  -5   5  -2  380.46   36.10
  -5  -5   2  351.96   33.60
   5   6  -2  194.38   29.30
  -5   6   2  227.48   39.50
   5   6   2  221.08   38.40
  -5   6  -2  233.58   35.40
  -5   7   2   72.99   25.30
   5   7  -2  154.38   28.10
   5   7   2   62.89   28.00
  -5   7  -2   73.69   27.10
   5   8  -2   48.90   22.50
  -5   8   2   33.50   26.20
  -5   8  -2   29.30   22.90
   5   8   2   13.40   21.50
  -5   0  -3   -4.10    5.40
   5   0   3   -0.90    6.80
  -5   0   3   -1.70    7.10
   5   0  -3   -6.20    6.20
  -5  -1  -3  590.04   33.70
  -5   1   3  626.94   37.10
  -5   1  -3  574.84   31.00
  -5  -1   3  589.64   31.80
  -5  -1   3  622.54   30.80
   5   1   3  669.83   36.30
  -5   1  -3  566.94   32.50
   5  -1  -3  570.34   36.20
  -5  -2  -3  221.88   22.60
   5  -2   3  198.28   20.20
  -5   2   3  205.48   25.90
   5   2  -3  181.68   17.10
   5   2   3  233.48   24.20
  -5  -2   3  221.48   18.00
   5  -2  -3  205.78   27.40
  -5   2  -3  198.88   19.40
   5   3  -3    4.30    6.00
  -5   3   3    7.60   10.90
   5  -3   3   -6.30    7.50
   5   3   3    2.90    9.10
  -5   3  -3   12.60    8.20
  -5  -3   3    6.40    6.60
  -5  -4  -3   67.69   19.70
  -5   4   3   51.99   17.80
   5   4  -3   97.19   17.20
   5  -4   3   53.99   15.70
   5   4   3   92.29   22.70
  -5  -4   3   85.59   18.70
   5  -4  -3   57.59   18.90
  -5   4  -3   83.89   18.10
  -5   5   3  165.28   33.60
   5   5  -3  176.78   25.80
   5  -5   3  164.18   27.30
   5   5   3  187.08   37.20
  -5   5  -3  197.08   29.80
  -5  -5   3  205.68   28.80
   5   6  -3   27.40   15.90
  -5   6   3   34.60   17.80
  -5   6  -3   43.20   18.90
   5   6   3   38.80   21.40
  -5  -6   3    2.60   19.70
   5   7  -3   18.40   16.40
  -5   7   3   85.29   27.70
   5   7   3   19.60   22.60
  -5   7  -3   23.30   15.30
   5   8  -3   -8.50   16.60
  -5   8   3    2.80   20.20
   5   8   3    6.50   22.20
  -5   8  -3  -20.70   16.90
   5   0  -4    4.70    7.20
  -5   0  -4   -1.40    6.20
  -5   0   4    0.90    7.60
   5   0   4    2.00    6.80
  -5  -1  -4   50.09   13.40
  -5   1   4   30.70   12.10
  -5   1  -4   42.60   10.60
   5  -1  -4   59.49   15.20
  -5  -1   4   43.80   10.90
  -5  -1   4   46.60    9.80
  -5   1  -4   54.49   12.70
  -5  -2  -4  323.97   28.30
  -5   2   4  277.07   28.20
  -5   2  -4  319.77   22.00
  -5   2  -4  332.77   24.70
   5  -2  -4  330.77   29.80
  -5  -2   4  286.07   19.90
  -5  -2   4  310.97   22.70
   5   2   4  285.17   27.60
   5  -3   4  235.38   22.00
   5   3  -4  229.68   18.50
  -5   3   4  209.58   30.00
  -5  -3  -4  228.28   30.90
  -5  -3   4  204.98   18.70
   5   3   4  269.57   34.20
  -5   3  -4  246.28   21.50
   5  -3  -4  194.78   29.50
  -5   4   4  437.66   41.10
   5   4  -4  375.96   27.60
   5  -4   4  397.06   32.50
   5   4   4  345.17   36.90
  -5  -4   4  363.16   28.10
  -5   4  -4  372.16   30.50
   5   5  -4  514.45   35.60
   5  -5   4  444.06   39.30
  -5   5   4  467.15   45.80
  -5   5  -4  500.45   38.30
  -5  -5   4  450.85   35.60
   5   5   4  521.65   47.70
   5  -6   4  196.78   30.20
   5   6  -4  149.49   26.10
  -5   6   4  116.69   30.40
   5   6   4  144.99   32.50
  -5  -6   4  154.78   29.30
  -5   6  -4  146.19   27.70
  -5   7   4   52.89   26.10
   5   7  -4   81.69   22.10
   5   7   4   89.89   26.50
  -5   7  -4   46.80   22.70
   5   8  -4   15.10   19.80
  -5   8   4   28.70   21.50
   5   8   4  -34.30   22.10
  -5   8  -4    0.80   17.60
  -5   0   5   -1.30    6.40
  -5   0  -5   -1.30    5.20
   5   0  -5   15.60   10.10
   5   0   5    5.50    5.70
  -5  -1  -5   21.20    9.70
  -5   1   5   23.50   11.50
  -5   1  -5   32.40   10.00
   5  -1  -5   27.30   12.00
  -5  -1   5   12.70    8.40
   5   1   5   15.10   10.10
  -5  -2  -5   -2.50    9.00
  -5   2   5    7.30    9.80
  -5  -2   5   -0.20    5.40
   5  -2  -5    7.20   11.00
  -5   2  -5   13.70    8.00
   5   2   5    8.50   10.00
  -5   2  -5   13.70    8.30
   5  -3   5   -5.50    6.80
   5   3  -5   -5.50    5.90
  -5  -3  -5   -9.00   10.40
  -5   3   5    0.40    9.40
   5   3   5   -0.60    8.90
   5  -3  -5    7.20   13.10
  -5   3  -5    3.60    6.70
  -5  -3   5    2.90    7.10
   5   4  -5   45.20   10.90
  -5   4   5   41.10   18.30
   5  -4   5   29.30   12.30
  -5  -4   5   36.40   12.00
   5   4   5   64.99   21.80
  -5   4  -5   36.70   12.90
   5  -5   5   20.10   17.30
  -5   5   5   38.10   19.20
   5   5  -5   19.40   10.70
  -5  -5   5    9.50   14.10
  -5   5  -5   21.10   12.70
   5   5   5    3.70   16.00
   5  -6   5   47.80   19.70
  -5   6   5    5.00   19.10
   5   6  -5   20.50   13.30
  -5   6  -5   30.40   14.40
   5   6   5   26.40   21.80
   5   7  -5   19.20   16.60
  -5   7   5   13.00   21.00
  -5   7  -5    9.50   16.70
   5   7   5   -2.30   18.70
   5   8  -5    0.60   16.80
  -5   8   5   27.70   38.50
  -5   8  -5   21.80   19.50
   5   0  -6   -6.50    6.80
   5   0   6    0.70    6.70
  -5   0   6   -9.20    7.30
  -5   0  -6   -4.80    5.80
  -5   1   6  236.08   24.80
  -5  -1  -6  254.97   31.00
   5   1  -6  254.47   19.70
   5  -1   6  204.98   18.10
  -5   1  -6  224.78   18.90
  -5  -1   6  233.18   19.90
   5   1   6  203.38   22.30
   5  -1  -6  225.78   24.00
  -5  -2  -6  303.67   30.40
  -5   2   6  309.27   29.70
  -5   2  -6  292.17   23.10
  -5  -2   6  280.57   18.80
  -5   2  -6  303.77   21.70
   5   2   6  312.47   29.90
  -5  -2   6  274.97   20.30
  -5  -3  -6  292.67   43.30
  -5   3   6  344.57   35.60
  -5   3  -6  348.17   25.40
  -5  -3   6  320.97   20.50
  -5  -3   6  321.37   23.00
   5  -3  -6  256.97   36.40
   5   3   6  337.07   42.40
  -5   3  -6  307.97   23.00
  -5   4   6  406.16   43.40
   5   4  -6  465.85   26.70
   5  -4   6  457.75   31.50
  -5  -4   6  405.86   26.00
   5   4   6  430.26   43.50
  -5   4  -6  450.95   29.80
   5   5  -6  186.08   19.20
   5  -5   6  160.88   23.50
  -5   5   6  148.09   30.90
  -5  -5   6  160.68   21.80
  -5   5  -6  132.99   21.30
   5   5   6  169.38   35.80
   5   6  -6  139.29   20.10
  -5   6   6  204.48   37.80
  -5  -6   6  126.49   22.40
   5   6   6  132.59   34.00
  -5   6  -6  191.98   28.00
   5   7  -6  139.49   23.60
   5  -7   6   70.59   34.40
  -5   7   6  151.38   37.80
  -5   7  -6   78.29   20.50
   5   7   6  168.98   39.20
  -5  -7   6   95.29   27.50
  -5   0  -7    3.90    7.30
  -5   0   7   -1.30    7.80
   5   0  -7   13.00   11.30
   5   0   7    8.20    7.60
  -5  -1  -7   30.40   12.10
   5  -1   7   33.90   10.70
  -5   1   7   23.90   12.90
   5   1  -7   44.40   13.20
   5   1   7   96.89   19.60
   5  -1  -7   64.79   14.80
  -5  -1   7   57.19   12.10
  -5   1  -7   45.50   10.50
  -5   2   7   30.40   16.00
  -5  -2  -7    9.60   11.90
  -5   2  -7   22.00    8.40
   5   2   7    8.00    9.60
   5  -2  -7   21.50   15.10
  -5   2  -7   11.90   10.50
  -5  -2   7   24.80    9.10
  -5  -2   7   29.30    7.70
  -5   3   7  101.89   25.40
  -5   3  -7   78.49   12.50
   5   3   7  134.09   27.40
  -5  -3   7   92.89   13.50
  -5  -3   7   79.19   12.10
  -5   3  -7   81.29   14.10
  -5   4   7   51.69   21.00
  -5  -4   7   20.20    8.20
  -5   4  -7    6.40    9.30
   5   4   7   54.49   20.40
  -5   4  -7    9.70    7.90
  -5  -4   7    1.90    7.80
  -5   5   7    4.30   15.70
   5   5   7   13.20   17.80
  -5  -5   7   33.20    9.90
  -5   5  -7   16.40   10.60
   5   6  -7    0.40    9.50
   5  -6   7  -36.50   16.20
  -5   6   7   55.89   28.60
  -5   6  -7   -3.00   11.60
  -5  -6   7   26.60   15.60
   5   6   7   32.00   24.40
  -5   7   7  -14.60   21.30
   5   7  -7   16.80   12.50
   5  -7   7  -55.89   23.90
  -5  -7   7  -13.90   22.70
   5   7   7  -32.90   21.40
  -5   7  -7   37.20   16.70
   5   0  -8   -2.90    8.90
  -5   0  -8    5.10    8.60
   5   0   8   -7.10    5.80
  -5   0   8    4.10    8.70
  -5   1   8  172.48   26.30
   5   1  -8  161.28   17.00
  -5  -1  -8  183.38   29.70
   5  -1   8  175.98   18.20
  -5   1  -8  168.18   18.30
   5   1   8  144.59   24.70
  -5  -1   8  174.48   20.70
   5  -1  -8  198.98   29.60
  -5   2   8  306.37   38.80
  -5  -2  -8  328.07   40.60
   5   2   8  389.16   35.50
  -5  -2   8  353.46   21.20
  -5   2  -8  323.87   23.90
  -5   2  -8  308.57   22.80
   5  -2  -8  343.27   37.10
  -5   3   8  409.46   42.00
  -5   3  -8  411.26   25.10
  -5  -3   8  419.16   18.60
   5   3   8  490.15   61.89
  -5   3  -8  368.56   25.10
  -5  -3   8  425.96   19.20
  -5   4   8  230.28   39.60
  -5   4  -8  246.98   19.70
   5   4   8  244.68   41.30
  -5   4  -8  241.08   19.80
  -5   5   8  167.48   34.70
   5   5   8  129.59   33.70
  -5  -5   8  112.69   12.80
  -5   5  -8  103.59   14.80
  -5  -5   8  125.09   13.50
  -5   5  -8   82.69   14.90
  -5   6   8  106.39   35.00
  -5   6  -8  129.89   16.20
  -5  -6   8  152.58   19.60
   5   6   8  122.79   35.80
   5   7  -8   40.90   12.60
  -5  -7   8   51.99   24.50
  -5   7  -8   32.20   15.40
  -5   0  -9   -0.70    9.20
  -5   0   9    3.90    9.10
   5   0   9    0.50    7.70
   5   0  -9   -3.20   10.90
   5  -1   9  118.49   17.70
  -5  -1  -9  121.59   23.30
   5   1  -9  141.09   18.80
  -5   1   9  106.39   23.60
   5   1   9  114.39   23.60
  -5   1  -9  106.39   16.20
  -5  -1   9  155.98   19.20
  -5   2   9   26.40   16.80
  -5   2  -9   13.50    8.50
  -5   2  -9   15.40    9.90
   5   2   9   17.90   13.30
  -5  -2   9   39.30    8.80
  -5  -2   9    7.60    7.10
   5  -2  -9  -16.10   16.10
  -5   3   9  102.19   26.90
   5   3   9  109.29   27.60
  -5   3  -9   88.09   16.40
  -5   3  -9  115.09   16.50
  -5   4   9   -1.60   19.00
  -5   4  -9   23.50   10.10
  -5   4  -9   32.40    7.80
   5   4   9   31.70   17.20
  -5   5   9  -21.70   18.00
   5   5   9   26.50   19.60
  -5   5  -9   13.50    8.60
  -5   6   9   18.00   22.30
  -5   6  -9   -6.30    9.30
   5   6   9  -12.70   23.60
  -5   6  -9  -25.10   16.00
   5   0 -10  -10.70   11.00
  -5   0  10  -10.00    9.90
  -5   0 -10    3.30   10.80
   5   0  10   -2.50    9.00
   5   1 -10  161.48   21.80
  -5   1  10  173.88   27.00
  -5  -1 -10  182.08   27.20
   5  -1  10  170.08   23.20
  -5   1 -10  193.58   23.60
   5  -1 -10  198.28   29.30
   5   1  10  248.28   34.20
  -5  -1  10  190.38   19.10
  -5   2  10  120.19   28.20
  -5   2 -10  109.29   15.70
  -5  -2  10  126.19   11.50
  -5  -2  10  136.39   11.60
  -5   2 -10  128.99   18.20
   5   2  10  146.09   29.30
  -5   3  10   83.29   28.30
   5   3  10   82.99   28.50
  -5   3 -10  102.69   11.30
  -5   3 -10   67.79   10.70
  -5   4  10  128.89   33.70
   5   4  10  172.18   37.70
  -5   5  10  170.88   41.40
   5   5  10  265.67   47.10
  -5   6  10   77.89   26.70
   5   6  10  128.49   33.10
   5   0 -11  -39.40   11.90
  -5   0  11    7.00   12.60
   5   0  11    3.10   11.00
  -5  -1 -11  200.28   31.60
   5   1 -11  204.28   23.40
   5  -1  11  204.28   25.10
  -5   1  11  180.48   30.10
   5   1  11  229.38   35.30
  -5   1 -11  197.08   26.60
  -5  -1  11  184.38   19.80
   5  -1 -11  191.68   30.80
  -5   2  11  136.49   33.70
  -5   2 -11  121.99   16.30
   5   2  11  120.49   26.00
  -5   2 -11  130.59   17.60
  -5   3  11   19.80   20.80
   5   3  11   22.20   18.10
  -5   4  11   55.49   21.30
   5   4  11    8.20   20.50
  -5   5  11    7.20   26.50
   5   5  11   40.10   28.60
  -5   0 -12   -2.90   15.20
  -5   0  12   -4.40   12.40
   5   0 -12   27.40   19.60
   5   0  12   -8.30   10.00
  -5   1  12   82.69   22.70
   5  -1  12   70.59   15.10
   5   1 -12  116.09   18.80
  -5  -1  12   68.39   14.90
   5   1  12   85.99   21.50
   5  -1 -12  132.69   36.70
  -5   1 -12   56.39   17.00
  -5   2  12   10.50   16.70
  -5   2 -12    5.10   10.10
   5   2  12  -15.80   14.10
  -5   2 -12   11.70    8.90
  -5   3  12   40.20   25.20
   5   3  12   72.99   24.90
  -5   4  12  139.89   33.20
   5   4  12  137.19   36.00
  -5   5  12  112.79   34.20
   5   5  12   97.79   33.30
  -5   0 -13  -32.80   16.20
   5   0  13   -2.20   10.30
  -5   0  13   -0.90   13.90
   5   1 -13   48.50   15.20
  -5   1  13  101.99   24.40
   5   1  13   62.09   22.80
  -5  -1  13   52.79   13.30
  -5   1 -13   61.09   15.80
  -5   2  13   25.20   21.50
   5   2  13  -11.60   15.50
  -5   2 -13    3.50   11.30
  -5   3  13   61.39   22.50
   5   3  13   18.70   21.50
  -5   4  13    5.10   22.00
   5   4  13   14.80   22.90
   5   0 -14  -20.30   19.90
   5   0  14    1.60   14.80
  -5   0 -14  -13.70   18.60
  -5   0  14   -5.20   16.70
  -5   1  14   32.50   19.60
   5   1  14   55.49   20.90
  -5   1 -14   51.79   17.50
  -5  -1  14   50.29   14.50
  -5   2  14   66.79   23.30
   5   2  14   36.90   21.40
  -5   3  14   77.99   29.60
   5   3  14  173.18   40.80
  -6   0   0  235.28   20.40
  -6   0   0  246.28   22.60
   6   1   0    5.10    6.90
   6  -1   0   17.20    8.40
  -6   1   0    2.20    8.70
  -6  -1   0   -5.30    6.00
   6   2   0    9.20    8.80
   6  -2   0   11.40    8.40
  -6   2   0    6.50    9.70
  -6  -2   0    7.30    8.00
   6  -3   0   15.60   12.40
   6   3   0   33.80   11.30
  -6  -3   0   37.00   13.60
  -6   3   0   37.60   14.80
   6   4   0  102.59   21.80
  -6  -4   0  105.29   21.00
  -6   4   0  106.39   23.40
   6  -4   0   92.69   21.70
   6   5   0   32.90   14.40
  -6   5   0   -7.60   10.20
   6   6   0   27.40   17.00
  -6   6   0   76.69   21.30
  -6   7   0   19.60   20.60
   6   7   0   -2.40   14.80
  -6   8   0  -11.40   17.70
   6   8   0   28.30   22.00
  -6   0  -1  181.48   18.80
  -6   0   1  186.98   19.90
  -6   0   1  205.98   19.70
   6   0   1  134.89   17.90
   6   0  -1  213.88   20.00
  -6   0  -1  215.18   21.30
  -6  -1  -1  739.73   38.10
  -6   1   1  702.03   40.60
   6   1  -1  691.43   36.60
   6  -1   1  750.62   39.50
  -6   1  -1  673.23   39.10
  -6  -1   1  774.82   38.10
   6  -1  -1  753.12   40.90
   6   1   1  710.63   37.60
  -6  -2  -1  316.57   26.00
   6   2  -1  364.76   25.50
  -6   2   1  277.17   27.60
   6  -2   1  344.67   28.10
   6  -2  -1  362.06   29.60
  -6   2  -1  364.76   28.80
   6   2   1  297.27   26.20
  -6  -2   1  294.27   23.00
  -6   3   1  230.08   31.00
   6   3  -1  246.98   23.50
  -6  -3  -1  240.38   30.70
   6  -3   1  231.48   25.40
  -6  -3   1  212.88   22.80
   6  -3  -1  271.57   28.20
   6   3   1  252.37   26.80
  -6   3  -1  262.07   26.90
  -6   4   1  177.48   31.00
   6   4  -1  168.38   26.00
   6  -4   1  177.78   29.40
  -6  -4  -1  174.28   28.60
   6   4   1  194.68   31.20
  -6   4  -1  184.28   28.20
   6  -4  -1  193.28   28.60
  -6  -4   1  173.08   26.40
   6   5  -1    4.80   10.40
  -6   5   1    2.60   15.90
   6  -5   1   20.30   15.70
  -6  -5   1  -12.20   12.30
   6   5   1   -0.10   10.40
  -6   5  -1    9.00   11.90
  -6   6   1    4.50   17.10
   6   6   1    6.60   17.30
  -6   6  -1   34.00   19.60
  -6   7   1  130.49   31.40
   6   7  -1  183.78   35.60
   6   7   1  188.68   38.40
  -6   7  -1  137.89   30.00
  -6   8   1   75.49   31.00
   6   8  -1   35.40   20.70
   6   8   1   63.09   29.90
  -6   8  -1   68.29   29.50
   6   0   2   90.19   15.40
  -6   0   2  140.19   19.90
   6   0  -2   97.69   15.80
  -6   0  -2  158.88   18.90
  -6  -1  -2   39.60   12.10
  -6   1   2   26.00   11.00
  -6   1  -2   46.30   13.00
   6  -1  -2   27.10   10.80
  -6   1  -2   44.80   11.20
  -6  -1   2   35.30   10.90
  -6  -1   2   27.80    9.00
   6   1   2   27.60    9.00
   6   2  -2   89.19   14.20
  -6   2   2   63.09   15.50
   6  -2   2   85.49   15.80
  -6  -2  -2   84.69   16.90
   6  -2  -2   81.49   18.60
   6   2   2   85.09   17.80
  -6   2  -2   88.19   16.90
  -6  -2   2   79.99   14.30
   6   3  -2   35.50   12.20
   6  -3   2   25.20   12.10
  -6  -3  -2   91.29   20.20
  -6   3   2   40.80   15.20
  -6  -3   2   33.10   11.40
   6   3   2   35.20   14.40
  -6   3  -2   36.30   12.30
  -6  -4  -2   55.89   17.20
  -6   4   2   72.09   18.70
   6   4  -2   71.99   16.60
   6  -4   2   77.19   21.00
   6   4   2   46.20   16.40
   6  -4  -2   63.99   24.60
  -6  -4   2   94.19   19.00
  -6   4  -2   60.39   17.00
   6   5  -2   -3.00   11.00
   6  -5   2   -7.00   13.70
  -6  -5   2    6.90   13.90
  -6   5  -2    4.20   14.50
   6   6  -2   63.89   18.00
  -6   6   2   45.20   25.00
   6   6   2   53.69   22.00
  -6   6  -2   36.90   20.60
   6   7  -2   16.00   15.70
  -6   7   2   50.39   23.20
  -6   7  -2   33.00   22.40
   6   7   2    3.20   18.10
   6   8  -2   25.30   20.40
  -6   8   2   29.90   26.60
  -6   8  -2   42.80   25.70
   6   8   2   22.20   21.30
  -6   0   3 1841.42   75.29
  -6   0  -3 1919.21   73.79
   6   0   3 1789.82   72.59
   6   0  -3 1991.30   75.99
  -6  -1  -3 1068.99   50.99
  -6   1   3 1025.00   53.19
  -6  -1   3 1021.30   46.70
   6  -1  -3 1111.59   54.89
  -6  -1   3 1003.10   48.60
   6   1   3 1115.39   52.89
  -6   1  -3 1166.68   51.99
  -6   1  -3 1144.99   49.40
   6  -2   3  659.13   38.00
   6   2  -3  677.03   35.70
  -6  -2  -3  570.54   37.30
  -6   2   3  605.54   40.70
   6   2   3  668.13   41.80
  -6   2  -3  670.13   37.60
   6  -2  -3  618.94   41.60
  -6  -2   3  586.24   33.00
   6   3  -3   93.89   16.50
  -6  -3  -3   84.49   21.60
  -6   3   3  152.88   29.20
   6  -3   3  116.19   19.90
   6  -3  -3  110.79   23.40
   6   3   3  129.59   26.60
  -6  -3   3   99.09   16.40
  -6   3  -3   92.49   18.80
  -6   4   3    6.40   12.70
   6   4  -3    1.10    7.90
   6  -4   3   17.20   11.80
   6   4   3   11.30   12.00
  -6   4  -3   13.80   10.40
  -6  -4   3    2.10    9.50
  -6   5   3   -1.30   13.40
   6  -5   3   -1.20   14.00
   6   5  -3   16.60   11.50
  -6  -5   3   16.60   16.00
   6   5   3    0.10   12.70
  -6   5  -3  -17.40   10.70
  -6   6   3   16.30   15.60
   6   6  -3   14.60   12.90
   6   6   3    4.00   15.30
  -6   6  -3   11.20   14.50
   6   7  -3   25.70   16.90
  -6   7   3   44.60   25.30
  -6   7  -3   -6.30   16.10
   6   7   3   36.10   23.10
   6   8  -3   68.69   23.10
  -6   8   3  106.89   33.20
   6   8   3   80.69   31.80
  -6   8  -3   75.29   26.40
   6   0  -4  379.96   28.50
  -6   0  -4  376.36   26.60
   6   0   4  395.76   27.10
  -6   0   4  375.36   28.50
  -6  -1  -4  113.09   19.70
  -6   1   4  107.89   19.90
  -6   1  -4  111.79   16.90
   6  -1  -4  105.49   21.30
   6   1   4  137.09   22.30
  -6  -1   4  120.19   17.40
  -6   1  -4   98.29   16.70
  -6  -1   4  100.79   16.40
  -6  -2  -4   70.69   17.20
  -6   2   4   67.79   16.90
  -6   2  -4   54.09   13.50
   6  -2  -4   77.29   19.60
  -6  -2   4   79.99   14.00
   6   2   4   52.79   15.70
  -6  -2   4   59.49   12.30
  -6   2  -4   60.79   13.90
   6   3  -4  117.59   17.70
   6  -3   4   95.39   18.10
  -6  -3  -4   54.69   16.70
  -6   3   4   91.09   22.30
   6   3   4  135.89   26.20
  -6   3  -4  110.69   19.10
   6  -3  -4  111.29   24.00
  -6  -3   4  114.99   17.90
   6   4  -4   23.40    9.50
   6  -4   4   43.00   15.40
  -6   4   4    8.70   12.40
  -6  -4   4   29.20   13.40
   6   4   4   31.20   17.50
  -6   4  -4   52.89   16.20
   6   5  -4    4.50   10.30
  -6   5   4  -13.40   10.90
   6  -5   4    9.10   17.20
  -6  -5   4   -2.20   13.10
  -6   5  -4    4.90   11.60
   6   5   4   22.20   16.60
   6   6  -4    6.10   12.00
  -6   6   4   22.70   14.30
  -6   6  -4   16.40   13.30
  -6  -6   4   21.50   18.80
   6   6   4   -1.40   16.00
  -6   7   4   15.10   21.30
   6   7   4   54.79   26.70
  -6   7  -4   23.60   18.00
  -6   8   4   54.39   36.10
   6   8  -4   57.69   22.30
   6   8   4   46.60   30.00
  -6   8  -4  101.69   23.80
   6   0  -5 2678.23   98.29
  -6   0  -5 2827.12  101.19
   6   0   5 2565.94   95.89
  -6   0   5 2618.94  100.79
  -6  -1  -5 1037.00   50.99
  -6   1   5  940.31   52.39
  -6  -1   5  937.31   43.70
   6  -1  -5 1022.90   54.09
  -6  -1   5  924.21   45.60
  -6   1  -5  977.10   46.30
  -6   1  -5  981.70   47.50
   6   1   5 1035.70   52.89
  -6   2   5  376.26   33.70
  -6  -2  -5  266.57   41.10
  -6   2  -5  337.57   24.90
  -6   2  -5  305.97   25.60
   6  -2  -5  411.56   50.69
  -6  -2   5  356.36   24.50
   6   2   5  365.76   33.00
  -6  -2   5  346.17   23.30
  -6   3   5   30.10   13.20
  -6  -3  -5    9.10   14.40
   6  -3  -5   26.60   16.30
   6   3   5   26.20   12.00
  -6  -3   5   39.60   12.40
  -6   3  -5   33.10   10.80
   6  -4   5   65.29   17.20
   6   4  -5   45.10   12.00
  -6  -4   5   33.80    9.70
  -6   4  -5   58.59   18.00
   6   5  -5   13.10   10.30
   6  -5   5  -10.30   12.10
  -6   5   5    0.30   17.50
   6   5   5  -12.00   15.20
  -6  -5   5   19.80   14.20
  -6   5  -5   -2.20   10.70
   6  -6   5   68.49   24.90
   6   6  -5  101.59   20.60
  -6   6   5   48.00   22.50
   6   6   5   59.69   26.00
  -6  -6   5   79.29   24.90
  -6   6  -5   33.10   15.90
   6   7  -5   82.69   21.90
  -6   7   5  126.29   35.30
   6   7   5   98.69   31.00
  -6   8   5  -13.70   22.00
   6   8  -5   24.70   19.90
   6   8   5   16.50   25.40
  -6   8  -5   35.30   24.40
   6   0   6  660.23   37.60
  -6   0  -6  590.74   36.70
   6   0  -6  644.04   39.50
  -6   0   6  639.54   38.90
  -6  -1  -6   37.30   13.40
  -6   1   6   31.60   13.40
   6  -1  -6   53.69   14.40
  -6  -1   6   67.59   14.10
   6   1   6   39.30   13.20
  -6   1  -6   48.50   10.90
  -6   2   6  207.48   30.40
  -6  -2  -6  290.07   37.00
   6  -2  -6  233.48   31.70
  -6  -2   6  221.68   20.30
  -6  -2   6  197.18   18.50
   6   2   6  232.18   32.00
  -6   2  -6  198.28   19.10
  -6   2  -6  181.68   19.80
  -6   3   6   14.10   13.60
  -6   3  -6   22.30    8.40
   6   3   6   25.60   13.10
  -6  -3   6   -4.10    8.70
  -6   3  -6    1.90    8.30
  -6  -3   6   11.70   10.30
  -6   4   6   20.50   17.60
  -6   4  -6   32.20   11.70
   6   4   6   77.99   23.50
  -6  -4   6   41.30   12.20
  -6   5   6   -0.80   20.40
   6   5  -6   13.80   10.70
   6  -5   6   29.50   15.10
  -6   5  -6   24.90   10.20
  -6  -5   6   26.10   14.90
   6   5   6   50.09   23.60
   6   6  -6    6.40   12.30
  -6   6   6   23.80   15.70
   6  -6   6  -16.60   18.00
  -6   6  -6    8.50   11.90
   6   6   6   -6.30   18.30
  -6  -6   6  -21.30   16.00
   6   7  -6   29.10   14.90
  -6   7   6   49.30   28.30
  -6   7  -6   -1.50   17.80
  -6  -7   6  -12.80   24.30
   6   7   6   15.80   23.40
  -6   0   7  628.84   39.50
  -6   0  -7  637.04   38.80
   6   0  -7  586.54   38.80
   6   0   7  664.33   38.50
  -6   1   7  372.96   32.50
  -6  -1  -7  374.46   31.40
   6   1  -7  382.56   27.70
   6  -1   7  400.36   28.50
  -6   1  -7  444.46   29.10
  -6  -1   7  406.16   29.30
   6   1   7  430.06   34.40
   6  -1  -7  399.36   33.90
  -6  -2  -7  759.22   49.50
  -6   2   7  707.83   50.99
  -6   2  -7  814.62   40.60
   6  -2  -7  734.63   51.59
  -6  -2   7  764.22   38.30
  -6   2  -7  742.63   41.40
   6   2   7  763.62   51.39
  -6  -2   7  830.72   36.90
  -6   3   7  206.98   33.20
  -6  -3   7  139.69   15.50
  -6   3  -7  171.28   18.40
   6   3   7  229.28   35.80
  -6   3  -7  162.98   21.70
  -6  -3   7  190.78   20.40
  -6   4   7   50.29   23.90
  -6   4  -7   50.59   13.60
  -6  -4   7   32.80   11.30
   6   4   7    8.20   16.90
  -6  -4   7   34.90   11.30
  -6   4  -7   62.49   13.80
  -6   5   7  124.89   32.30
   6   5   7  116.99   29.70
  -6  -5   7   96.09   20.20
  -6   5  -7  125.79   20.80
   6   6  -7   22.40   12.30
  -6   6   7   13.70   21.70
   6  -6   7   10.50   19.10
   6   6   7   -7.60   18.10
  -6   6  -7  -13.70   13.60
  -6  -6   7    0.80   16.70
   6   7  -7   18.30   13.50
   6  -7   7   -1.70   24.50
  -6   7   7   -5.70   18.60
   6   7   7   37.30   31.00
  -6   7  -7   34.70   19.20
   6   0  -8   46.80   15.80
  -6   0  -8   40.70   11.70
   6   0   8   38.00   11.80
  -6   0   8   49.20   15.10
  -6   1   8   16.60   12.10
  -6  -1  -8   -3.00   11.20
   6  -1   8   22.20    9.30
   6   1  -8   20.90   10.30
  -6   1  -8    6.90    8.50
   6   1   8   22.20   11.60
  -6  -1   8   19.30   10.00
  -6   2   8   36.00   14.90
  -6   2  -8   21.70    8.60
   6  -2  -8    6.40   14.00
  -6   2  -8   42.00   11.60
  -6  -2   8   14.10    8.40
   6   2   8   28.60   16.60
  -6  -2   8   -6.00    8.10
  -6  -3   8   69.29   11.10
  -6   3  -8   88.69   15.30
   6   3   8   74.19   22.70
  -6  -3   8   40.10   11.00
  -6   3  -8   47.90   11.60
  -6   4   8   68.19   25.60
   6   4   8   79.59   23.20
  -6   4  -8   57.09   13.00
  -6  -4   8   81.29   11.70
  -6   4  -8   55.19   12.00
  -6   5   8   62.29   24.50
  -6   5  -8   67.69   14.80
   6   5   8  101.59   28.90
  -6  -5   8   89.89   14.50
  -6   5  -8  104.19   15.90
  -6   6   8   48.00   27.90
  -6   6  -8   40.10   13.20
  -6  -6   8  -12.10   11.50
   6   6   8   14.60   24.10
  -6  -6   8   -8.70   15.70
  -6   6  -8    7.50   12.70
  -6   7   8  -11.30   21.30
   6   7   8   -2.80   22.80
  -6  -7   8  -31.70   23.10
  -6   7  -8   -0.60   14.60
   6   0  -9  738.23   46.80
  -6   0   9  771.72   45.80
  -6   0  -9  747.33   46.50
   6   0   9  825.52   46.20
   6   1  -9  205.28   24.40
  -6   1   9  185.98   28.90
  -6  -1  -9  210.68   29.40
   6  -1   9  187.38   24.70
  -6   1  -9  198.78   24.10
  -6  -1   9  187.18   24.00
   6  -1  -9  170.58   28.90
   6   1   9  244.18   34.30
  -6   2   9  269.77   40.50
  -6  -2   9  245.88   18.70
  -6   2  -9  297.27   24.60
   6   2   9  253.47   38.90
  -6   2  -9  282.47   23.70
  -6   3   9  291.37   42.60
  -6  -3   9  286.97   16.60
  -6   3  -9  312.17   24.30
  -6   3  -9  313.37   23.50
   6   3   9  341.37   44.10
  -6  -3   9  279.37   16.00
  -6   4   9  107.59   34.60
  -6   4  -9  123.59   16.00
   6   4   9   92.99   28.90
  -6   4  -9  113.19   16.70
  -6   5   9   72.49   27.30
   6   5   9   33.50   21.70
  -6   5  -9   45.40   11.50
  -6   5  -9   43.50   11.20
  -6   6   9   49.60   19.10
  -6   6  -9   10.00   11.80
   6   6   9   29.10   26.20
  -6   6  -9    9.00   12.70
  -6   0  10   93.19   19.80
   6   0  10  110.09   23.10
   6   0 -10  104.49   22.10
  -6   1  10   55.39   17.90
  -6  -1 -10   52.39   17.90
   6  -1  10   70.99   16.00
   6   1 -10   55.89   14.90
  -6   1 -10   68.19   16.80
   6  -1 -10   48.50   19.60
   6   1  10   86.19   19.00
  -6  -1  10   38.50   11.80
  -6   2  10   66.59   24.10
  -6  -2  10   68.39   12.20
  -6   2 -10   74.19   13.30
  -6   2 -10   78.69   16.40
  -6   3  10  354.56   48.30
   6   3  10  373.56   50.09
  -6   3 -10  300.27   22.70
  -6   3 -10  347.47   24.60
  -6   4  10   34.30   22.70
  -6   4 -10   15.90    8.00
   6   4  10   36.80   23.80
  -6   5  10    3.40   21.80
   6   5  10   -1.90   19.00
  -6   6  10   15.70   25.30
   6   6  10  -11.20   23.90
  -6   0 -11   87.89   21.90
   6   0  11  132.99   23.10
   6   0 -11  162.18   25.10
  -6   0  11  136.49   26.10
  -6   1  11  315.67   38.70
   6   1 -11  321.17   27.30
   6  -1  11  295.87   27.90
  -6  -1  11  257.77   24.50
  -6   1 -11  315.97   28.50
   6   1  11  302.47   40.10
   6  -1 -11  290.97   38.40
  -6   2  11  335.17   47.00
   6   2  11  351.56   46.00
  -6  -2  11  259.97   18.30
  -6   2 -11  223.98   22.90
  -6   2 -11  221.38   23.30
  -6   3  11  145.99   34.80
   6   3  11  144.09   32.50
  -6   3 -11  130.39   17.10
  -6   4  11   51.39   31.40
   6   4  11   57.79   23.60
  -6   5  11  -10.40   17.90
   6   5  11   22.50   25.70
  -6   0 -12  128.79   26.50
   6   0  12  116.49   20.40
  -6   0  12   86.69   18.60
   6   0 -12  128.19   37.30
   6   1 -12   31.20   16.70
  -6   1  12   23.00   20.20
   6  -1  12   48.20   14.10
  -6  -1  12   40.20   13.80
  -6   1 -12   41.40   16.40
   6   1  12   34.60   19.50
  -6   2  12   -2.00   17.00
  -6   2 -12   10.40   11.20
  -6   2 -12   28.10   13.10
   6   2  12   25.80   15.90
  -6   3  12   14.40   21.40
   6   3  12    7.30   17.30
  -6   4  12   22.70   24.50
   6   4  12   -7.30   18.40
  -6   5  12   11.50   25.20
   6   5  12    2.60   20.90
   6   0 -13   96.09   28.00
  -6   0  13  137.59   25.40
   6   0  13  149.49   24.70
  -6   0 -13  138.19   29.40
  -6   1  13   97.99   23.00
   6   1  13  138.29   29.80
  -6  -1  13  105.69   18.20
  -6   1 -13  112.39   23.10
  -6   2  13  116.99   33.40
   6   2  13  145.99   28.80
  -6   2 -13   75.29   17.20
  -6   2 -13  112.89   16.80
  -6   3  13   55.79   28.30
   6   3  13   44.20   23.30
  -6   4  13  -19.60   17.60
   6   4  13    1.00   24.20
   6   0  14   -3.50   17.90
   6   0 -14  -62.09   21.00
  -6   0  14   12.60   17.40
  -6   1  14   79.09   32.40
  -6   1 -14   -2.40   17.00
  -6  -1  14   42.50   13.80
   6   1  14   44.20   18.20
  -6   2  14   48.70   19.70
  -6   2 -14   -4.50   14.10
   6   2  14   19.70   22.80
  -7   0   0   10.40    7.30
  -7   0   0   -5.50    7.10
  -7  -1   0  385.26   27.70
   7  -1   0  436.66   32.10
   7   1   0  420.56   29.60
  -7   1   0  372.06   30.50
  -7  -2   0 1446.56   65.19
  -7   2   0 1453.05   67.69
   7   2   0 1398.16   62.69
   7  -2   0 1379.26   66.09
   7   3   0  295.47   28.10
   7  -3   0  259.37   27.60
  -7   3   0  267.87   28.10
  -7  -3   0  284.27   25.90
  -7   4   0   32.70   16.80
  -7  -4   0   17.60   12.70
   7  -4   0   37.50   18.50
   7   4   0   54.09   16.40
   7   5   0  282.67   39.10
  -7   5   0  251.47   37.60
  -7   6   0   73.89   23.70
   7   6   0  127.99   29.00
  -7   7   0   69.49   31.30
   7   7   0  151.08   36.60
  -7   8   0   89.29   30.40
   7   8   0   79.19   30.70
  -7   0  -1    3.50    8.90
  -7   0  -1   15.20   11.00
  -7   0   1   -2.60    6.90
  -7   0   1   -8.90    5.40
   7  -1   1  162.28   24.00
  -7   1   1  105.19   21.50
   7   1  -1  139.49   21.00
  -7  -1  -1  144.79   20.50
   7   1   1  124.19   20.10
  -7  -1   1  157.38   21.40
   7  -1  -1  140.59   21.60
  -7   1  -1  137.89   20.50
   7  -2   1  281.97   26.40
  -7   2   1  308.77   29.60
  -7  -2  -1  361.26   28.00
   7   2  -1  293.87   24.80
   7   2   1  348.37   28.90
  -7   2  -1  306.97   28.50
  -7  -2   1  336.17   25.80
   7  -2  -1  351.36   29.70
   7   3  -1  154.48   23.70
  -7   3   1  135.19   26.70
   7  -3   1  190.68   29.70
  -7  -3   1  133.39   21.40
   7  -3  -1  205.48   31.50
   7   3   1  140.19   23.30
  -7   3  -1  114.39   22.70
  -7   4   1  267.77   37.90
   7  -4   1  277.27   30.10
  -7  -4  -1  261.37   33.10
   7   4  -1  255.87   33.00
   7  -4  -1  266.47   36.20
   7   4   1  335.47   33.20
  -7  -4   1  227.08   29.90
  -7   4  -1  267.37   35.60
   7   5  -1   29.80   15.70
  -7   5  -1   27.60   15.10
   7   5   1   71.39   22.70
   7   6  -1   60.09   21.10
  -7   6   1   21.10   19.90
   7   6   1   59.49   23.10
  -7   6  -1   63.39   20.70
   7   7  -1   83.59   26.40
  -7   7   1   36.70   24.40
   7   7   1   22.00   20.30
  -7   7  -1   33.40   16.80
   7   8  -1   -0.20   18.00
  -7   8   1    8.50   23.20
   7   8   1  -23.90   17.90
  -7   8  -1   11.30   22.60
   7   0  -2  -12.50    6.40
   7   0   2    1.60    6.90
  -7   0   2    0.70    9.60
  -7   0  -2    0.20    6.50
  -7  -1  -2  198.88   21.40
  -7   1   2  210.78   23.10
  -7   1  -2  223.48   21.00
   7   1   2  183.98   19.80
  -7  -1   2  208.78   21.50
  -7  -1   2  174.98   18.00
   7  -1  -2  221.88   28.80
  -7   1  -2  246.28   24.40
  -7  -2  -2   34.00   12.40
   7  -2   2   55.29   13.80
  -7   2   2   60.79   16.30
   7   2  -2   35.60   11.20
  -7   2  -2   58.19   16.40
   7   2   2   41.40   13.80
  -7  -2   2   38.10   11.10
   7  -2  -2   57.29   14.90
   7  -3   2  616.14   40.00
  -7  -3  -2  557.84   39.30
   7   3  -2  587.44   37.20
  -7   3   2  544.65   43.70
  -7   3  -2  594.24   40.70
  -7  -3   2  623.54   38.30
   7   3   2  602.14   42.20
   7  -3  -2  487.65   39.80
  -7   4   2  429.56   41.00
   7  -4   2  442.56   38.20
   7   4  -2  459.15   35.60
   7   4   2  456.15   40.60
  -7   4  -2  373.86   34.60
  -7  -4   2  441.56   38.80
  -7   5   2  169.78   32.80
   7   5  -2  178.78   27.30
  -7   5  -2  180.18   31.40
   7   5   2  190.08   31.30
  -7  -5   2  173.18   27.50
  -7   6   2  120.79   32.80
   7   6  -2  181.18   36.40
   7   6   2  111.09   26.60
  -7   6  -2  130.89   29.90
  -7   7   2   81.29   24.30
   7   7  -2  139.39   28.40
   7   7   2  125.89   35.40
  -7   7  -2   95.79   28.90
  -7   8   2   67.29   30.20
   7   8  -2   43.00   25.50
  -7   8  -2   40.40   25.40
   7   8   2   27.60   19.40
  -7   0  -3   -2.80    7.40
  -7   0   3    8.20   10.30
   7   0  -3    4.50    8.60
   7   0   3   -0.10    6.60
  -7   1   3  978.40   51.69
  -7  -1  -3  939.51   48.90
   7   1   3  930.11   47.80
  -7   1  -3  972.10   46.80
  -7  -1   3  878.51   44.60
   7  -1  -3  925.91   51.09
  -7   1  -3  844.32   47.10
  -7  -1   3  876.31   47.10
   7   2  -3  153.68   21.30
   7  -2   3  137.79   22.20
  -7  -2  -3  119.59   21.60
  -7   2   3  159.88   26.00
   7  -2  -3  130.39   23.20
  -7   2  -3  164.48   23.70
   7   2   3  180.68   25.20
  -7  -2   3  165.78   20.60
   7  -3   3    3.60    9.80
   7   3  -3   16.30    8.00
  -7   3   3   11.50   11.30
  -7  -3  -3    6.40   11.30
   7   3   3   17.50   15.00
  -7   3  -3    6.90   10.40
   7  -3  -3    7.60   12.10
  -7  -3   3   12.90    8.50
   7   4  -3   55.59   14.90
  -7   4   3   85.39   22.70
  -7  -4   3   57.99   15.10
  -7   4  -3   59.69   19.30
   7   4   3   74.19   21.80
   7  -5   3  -18.50   14.60
   7   5  -3    3.90   10.90
  -7   5   3   -5.00   13.30
  -7  -5   3    3.80   12.50
   7   5   3   -2.50   14.70
  -7   5  -3    7.40   13.20
  -7   6   3  -10.60   18.60
   7   6  -3    4.50   13.20
  -7   6  -3   21.10   19.60
   7   6   3   18.00   16.80
  -7   7   3   97.79   27.30
   7   7  -3   98.19   25.90
  -7   7  -3   76.49   28.40
   7   7   3  198.08   39.20
   7   8  -3   61.89   22.10
  -7   8   3   67.69   31.70
  -7   8  -3   99.99   29.10
   7   8   3   74.29   28.10
   7   0  -4   -4.60    6.40
  -7   0   4   -3.90    7.20
  -7   0  -4    5.60    7.30
   7   0   4    0.50    7.00
  -7  -1  -4  227.38   23.70
  -7   1   4  264.37   27.60
  -7  -1   4  263.67   24.50
  -7  -1   4  259.07   23.00
  -7   1  -4  298.97   23.60
   7   1   4  253.37   24.80
   7  -1  -4  294.57   28.10
  -7   1  -4  259.17   24.10
  -7  -2  -4  805.32   51.69
  -7   2   4  688.33   47.90
   7   2   4  668.73   44.70
  -7  -2   4  682.73   40.50
  -7   2  -4  746.93   40.40
  -7   2  -4  743.73   43.40
  -7  -2   4  643.94   37.20
   7   3  -4  172.08   22.70
  -7   3   4  137.09   25.10
  -7  -3  -4  153.18   26.60
   7  -3   4  165.38   23.30
  -7  -3   4  145.59   20.50
  -7   3  -4  157.58   22.30
   7   3   4  176.28   29.20
   7  -3  -4  183.28   29.40
   7   4  -4  238.98   29.10
   7  -4   4  250.47   27.30
  -7   4   4  218.78   38.20
  -7  -4   4  227.88   28.30
  -7   4  -4  209.58   29.00
   7   4   4  214.68   38.10
  -7   5   4  192.08   38.40
   7   5  -4  227.38   29.40
   7  -5   4  241.28   34.00
  -7  -5   4  238.48   29.90
  -7   5  -4  225.98   33.90
   7   5   4  228.98   36.70
   7   6  -4  228.48   31.70
  -7   6   4  361.16   53.69
  -7   6  -4  232.58   32.70
  -7  -6   4  174.08   35.40
   7   6   4  330.87   49.80
  -7   7   4    1.00   20.20
   7   7  -4   27.30   14.30
  -7   7  -4   48.10   20.90
   7   7   4   25.50   23.20
   7   8  -4   21.70   19.00
  -7   8   4   19.80   39.80
  -7   8  -4   41.00   26.30
  -7   0  -5    4.80    8.30
  -7   0   5    1.50   11.10
   7   0   5    5.70    6.30
   7   0  -5   16.70   12.50
  -7   1   5  251.37   27.00
  -7  -1  -5  237.48   29.80
   7  -1  -5  274.97   34.40
  -7  -1   5  247.88   24.50
  -7  -1   5  217.78   20.80
  -7   1  -5  222.98   22.80
  -7   1  -5  230.58   22.40
   7   1   5  250.47   25.30
  -7   2   5   67.29   19.00
  -7  -2  -5   55.19   15.90
  -7  -2   5   65.39   13.10
  -7   2  -5   48.30   13.90
   7  -2  -5   34.00   15.60
  -7   2  -5   27.20   11.70
  -7  -2   5   46.90   12.80
   7   2   5   77.69   19.70
  -7   3   5   81.59   23.50
  -7  -3   5  105.39   17.90
   7   3   5   81.69   20.30
  -7   3  -5  107.49   18.40
  -7   3  -5  114.29   20.10
  -7  -3   5  105.59   17.70
   7  -4   5   26.20   16.30
   7   4  -5   41.00   10.30
  -7   4   5   40.40   20.50
  -7  -4   5   39.60   14.90
   7   4   5   28.70   15.80
  -7   4  -5   52.39   15.10
   7  -5   5   49.90   17.80
   7   5  -5   40.20   14.90
  -7   5   5   60.89   22.90
  -7  -5   5   34.80   14.90
  -7   5  -5   38.30   15.00
   7   5   5   46.00   22.80
  -7   6   5   89.39   29.30
   7   6  -5  118.39   20.20
  -7  -6   5   90.69   25.10
  -7   6  -5  114.09   25.30
   7   6   5  130.69   32.20
  -7   7   5   41.40   31.90
   7   7  -5   71.59   20.20
   7   7   5   27.50   20.70
  -7   7  -5   32.30   21.30
   7   0  -6    0.30    9.40
  -7   0   6   -8.80    7.70
   7   0   6    2.30    7.50
  -7   0  -6   10.20    7.30
  -7   1   6   49.40   17.60
  -7   1  -6   86.89   16.00
   7   1   6   40.50   14.10
  -7   1  -6   66.39   15.00
  -7  -1   6   77.59   15.50
  -7  -1   6   80.79   15.00
   7  -1  -6   69.19   17.90
  -7   2   6  395.16   37.90
  -7  -2  -6  398.56   35.50
  -7   2  -6  469.45   31.20
   7  -2  -6  435.66   39.50
   7   2   6  484.05   37.80
  -7  -2   6  479.25   31.60
  -7  -2   6  438.16   27.80
  -7   2  -6  445.86   33.10
  -7   3   6  224.78   36.50
  -7   3  -6  229.58   27.90
  -7  -3   6  262.57   23.80
   7   3   6  296.77   41.50
  -7   3  -6  190.18   24.10
  -7  -3   6  239.78   20.70
  -7   4   6  419.66   45.40
  -7  -4   6  432.46   30.10
  -7   4  -6  444.76   33.90
   7   4   6  408.66   43.40
  -7   5   6    3.30   19.00
   7   5  -6   46.30   12.30
  -7   5  -6   61.59   18.30
  -7  -5   6   38.60   15.20
   7   5   6   39.90   21.70
   7   6  -6  110.39   19.70
  -7   6   6   65.99   26.30
   7  -6   6   85.19   25.10
  -7   6  -6   60.89   16.70
   7   6   6   89.39   30.10
  -7  -6   6   52.09   23.20
   7   7  -6  123.09   24.90
  -7   7   6  134.39   36.80
  -7   7  -6   74.49   33.40
   7   7   6  154.88   36.30
  -7   0   7   13.20    8.90
   7   0  -7    7.10   12.00
   7   0   7   28.90   10.20
  -7   0  -7   10.10    8.80
  -7   1   7   12.40   10.80
  -7  -1  -7   10.80   11.10
  -7  -1   7    7.50   10.60
   7   1   7   26.10   14.60
  -7   1  -7   15.70    9.10
  -7   2   7    4.50   13.00
  -7  -2  -7   29.50   16.00
  -7   2  -7   35.70   13.10
  -7  -2   7   -6.50    7.80
   7  -2  -7    9.80   13.60
  -7  -2   7    8.50    9.30
  -7   2  -7   19.70   10.80
   7   2   7    8.70   10.20
  -7   3   7  110.89   34.00
  -7  -3   7  160.98   18.70
  -7   3  -7  182.18   22.50
  -7  -3   7  134.59   19.30
  -7   3  -7  179.88   23.90
  -7   4   7  107.19   29.10
   7   4   7  216.18   37.00
  -7  -4   7  161.28   20.30
  -7  -4   7  147.69   18.80
  -7   4  -7  134.29   21.90
  -7   4  -7  146.79   21.60
  -7   5   7  340.97   56.39
  -7  -5   7  299.77   30.00
  -7   5  -7  295.77   27.90
   7   5   7  328.17   49.20
  -7   5  -7  285.07   29.20
  -7  -5   7  269.47   27.00
   7  -6   7   43.20   21.10
   7   6  -7   33.90   15.30
  -7   6   7   41.10   21.20
  -7  -6   7   23.80   20.20
   7   6   7   10.00   17.10
  -7   6  -7   15.90   15.60
   7   7  -7   19.00   18.10
  -7   7   7   50.69   49.40
  -7   7  -7   12.60   16.60
   7   7   7   14.20   38.80
  -7  -7   7   45.80   28.40
   7   0  -8   -4.20   11.50
  -7   0   8   10.30   11.00
   7   0   8   21.50   11.00
  -7   0  -8    2.90   10.00
   7   1  -8   32.60   12.20
  -7  -1  -8   37.90   16.30
   7  -1   8   60.19   15.20
  -7   1   8   73.99   19.40
  -7   1  -8   26.00   12.20
   7   1   8   38.70   15.40
  -7  -1   8   43.10   14.00
   7  -1  -8   49.90   14.90
  -7   2   8   63.19   21.80
  -7  -2   8   65.69   14.70
  -7  -2   8   83.79   14.40
  -7   2  -8   63.79   14.60
  -7   2  -8   50.39   15.20
   7   2   8   67.49   20.10
  -7   3   8   79.89   23.30
  -7   3  -8  162.88   20.10
   7   3   8  124.19   31.30
  -7  -3   8   98.69   14.60
  -7   3  -8   87.39   16.90
  -7  -3   8  125.99   18.20
  -7   4   8  144.89   32.20
  -7  -4   8  139.19   17.10
  -7   4  -8   68.99   14.90
   7   4   8  129.39   32.50
  -7  -4   8  116.89   18.10
  -7   4  -8  110.59   18.70
  -7   5   8  345.17   51.59
  -7  -5   8  316.27   28.70
  -7  -5   8  336.27   25.70
  -7   5  -8  339.47   27.80
   7   5   8  410.06   56.59
  -7   5  -8  262.77   27.60
  -7   6   8   86.79   30.20
  -7  -6   8   61.09   20.70
   7   6   8   83.69   28.90
  -7   6  -8   91.19   21.10
  -7  -6   8   54.59   17.70
  -7   6  -8  103.19   20.70
  -7   7   8   49.70   30.60
  -7  -7   8   34.30   27.80
  -7   7  -8   62.19   19.90
   7   7   8   54.89   32.40
   7   0  -9  -14.20   11.40
  -7   0  -9   -0.10   11.50
  -7   0   9    2.90    8.90
   7   0   9    3.10    8.80
  -7  -1  -9   27.70   15.20
   7   1  -9   24.60   12.80
   7  -1   9   23.50   11.80
  -7   1   9   13.00   14.20
   7   1   9   38.20   18.50
  -7  -1   9   18.70   12.80
   7  -1  -9   41.30   19.40
  -7   1  -9   28.40   11.30
  -7   2   9   18.60   16.80
   7   2   9   35.10   16.50
  -7   2  -9   20.20   11.70
  -7  -2   9   23.60    9.50
  -7   2  -9   22.40   11.80
  -7  -2   9   26.10    9.50
  -7   3   9  222.98   36.50
  -7  -3   9  171.98   17.50
   7   3   9  238.08   40.30
  -7   3  -9  213.48   24.90
  -7   3  -9  204.88   21.20
  -7   4   9   87.29   29.00
  -7  -4   9   88.59   12.50
   7   4   9  123.09   35.60
  -7   4  -9   77.79   14.20
  -7   4  -9   63.19   16.00
  -7   5   9   69.49   28.60
  -7  -5   9   35.20   13.80
   7   5   9   53.39   20.00
  -7   5  -9    3.10   12.70
  -7   5  -9   29.60    9.80
  -7  -5   9   41.40   10.50
  -7   6   9   21.90   22.50
  -7   6  -9    2.80   12.40
  -7   6  -9   28.40   14.10
  -7  -6   9   -3.30   11.30
   7   6   9   26.40   20.80
  -7   0  10   14.00   13.50
   7   0 -10  -26.10   14.20
   7   0  10   22.90   12.80
  -7   0 -10    5.90   14.00
   7   1 -10  111.19   18.90
  -7   1  10   73.59   18.50
   7  -1  10   87.69   18.10
  -7  -1  10   64.19   16.00
   7  -1 -10   82.09   23.00
   7   1  10   74.79   21.80
  -7   1 -10  109.89   20.60
  -7  -2  10   28.30   11.20
   7   2  10   18.70   14.60
  -7  -2  10   32.50    9.30
  -7   2 -10    2.80    9.70
  -7   2 -10   43.40   15.60
  -7   3  10  221.28   37.80
  -7  -3  10  234.88   17.80
  -7  -3  10  220.68   15.90
  -7   3 -10  252.77   23.10
   7   3  10  295.17   43.60
  -7   3 -10  217.78   23.80
  -7   4  10  197.68   41.30
   7   4  10  294.57   49.90
  -7   4 -10  233.08   22.90
  -7   4 -10  242.48   20.30
  -7   5  10  171.38   41.90
  -7   5 -10  126.79   17.20
   7   5  10  179.28   43.60
  -7   5 -10  132.89   16.60
  -7   6 -10   55.99   13.50
  -7   6 -10   -1.00   12.80
   7   6  10   19.60   28.90
   7   0 -11  -37.10   16.10
  -7   0 -11   -7.20   12.90
  -7   0  11    0.60   12.90
   7   0  11    6.80   13.00
   7   1 -11  -13.70   12.80
  -7   1  11  -10.60   13.80
  -7  -1  11   18.10   12.50
   7   1  11    7.60   12.80
  -7   1 -11   -9.00   13.80
  -7   2  11    8.00   17.60
   7   2  11   44.80   19.20
  -7  -2  11    4.90    9.00
  -7   2 -11    2.30   10.80
  -7  -2  11   17.60   12.00
  -7   2 -11   10.40   13.20
  -7   3  11   22.10   20.30
  -7   3 -11   17.60    9.30
  -7   3 -11   34.90   13.60
   7   3  11   23.70   18.10
  -7   4  11    2.80   24.00
  -7   4 -11   22.00   10.90
   7   4  11    5.20   20.60
  -7   5  11   69.59   31.50
   7   5  11   95.29   32.50
   7   0 -12  -33.90   18.20
  -7   0 -12  -45.60   16.40
  -7   0  12   -6.30   14.70
   7   0  12    8.10   12.90
  -7   1  12   55.29   19.20
   7   1  12   50.49   21.20
  -7  -1  12   48.10   15.10
  -7   2  12   52.89   24.20
  -7  -2  12   75.89   14.30
  -7   2 -12   49.40   16.40
   7   2  12   38.90   17.40
  -7   2 -12   40.00   15.00
  -7   3  12   37.70   25.20
   7   3  12   58.19   22.40
  -7   3 -12   87.29   17.60
  -7   3 -12   69.69   13.40
  -7   4  12  132.39   37.30
   7   4  12  101.19   30.20
   7   0  13    6.60   13.00
   7   0 -13    9.10   20.60
  -7   0  13   22.10   15.20
  -7  -1  13   -4.50   14.30
  -7   1 -13    9.00   20.30
   7   1  13   28.40   16.30
  -7   2  13    7.80   21.60
  -7   2 -13    8.00   14.20
   7   2  13   -4.20   19.80
  -7   2 -13    2.80   12.20
  -7   3  13   14.50   18.90
   7   3  13   40.70   21.60
   7   0  14   13.90   19.20
   7   0 -14  -37.10   22.60
  -7   0  14  -12.30   18.50
  -7   1  14    3.90   17.40
  -7   1 -14   58.19   20.60
  -7   1 -14    9.00   15.10
  -7  -1  14   -6.40   20.20
  -7  -1  14    8.10   15.00
   7   1  14    2.70   17.10
  -7   2  14   23.00   26.20
   7   2  14   27.20   24.10
  -7   2 -14   -9.50   14.10
  -7   2 -14   51.29   13.20
  -8   0   0   59.39   15.70
  -8   0   0   61.79   15.90
   8   1   0  230.58   23.40
  -8  -1   0  204.28   21.70
  -8   1   0  188.98   28.20
   8  -1   0  192.98   27.30
   8   2   0  199.88   25.30
  -8  -2   0  178.38   23.50
  -8   2   0  180.88   26.30
   8  -2   0  174.28   24.70
   8   3   0   86.89   19.80
   8  -3   0   59.39   16.50
  -8   3   0   85.79   22.00
  -8  -3   0   93.99   18.10
   8  -4   0  235.88   36.90
  -8  -4   0  192.48   27.70
   8   4   0  206.78   31.00
  -8   4   0  235.08   36.30
   8   5   0   26.70   15.10
  -8   5   0   11.30   27.40
   8   6   0  177.98   33.00
  -8   6   0  124.99   31.20
   8   7   0   15.90   17.80
  -8   7   0   -0.70   17.90
  -8   8   0   11.00   21.50
   8   8   0   33.30   27.00
  -8   0  -1 1721.43   73.09
  -8   0   1 1730.63   75.39
  -8   0  -1 1780.82   75.79
  -8   0   1 1663.23   71.59
  -8  -1  -1  647.14   38.70
  -8   1   1  617.24   42.00
  -8   1  -1  646.64   39.20
  -8  -1   1  612.94   37.10
   8   1   1  639.54   39.60
  -8  -1   1  594.24   38.70
   8  -1  -1  652.73   41.60
  -8   1  -1  626.54   41.20
  -8  -2  -1  741.23   45.00
   8   2  -1  763.12   44.30
   8  -2   1  889.01   49.50
  -8   2   1  737.03   47.90
  -8   2  -1  679.53   45.70
  -8  -2   1  775.22   43.30
   8   2   1  813.92   46.70
   8  -2  -1  859.71   50.69
  -8   3   1  444.66   38.20
  -8  -3  -1  449.95   34.90
   8  -3   1  461.25   42.30
   8   3  -1  443.86   34.50
  -8   3  -1  435.56   38.10
   8   3   1  478.65   37.70
   8  -3  -1  481.95   40.10
  -8  -3   1  459.35   34.90
   8  -4   1   92.69   21.90
  -8   4   1   93.29   24.70
   8   4  -1  140.89   26.60
   8   4   1   71.09   20.40
  -8   4  -1   99.49   22.20
  -8  -4   1  117.19   22.00
  -8   5   1   41.50   20.20
   8   5  -1   15.70   15.30
   8   5   1   33.90   17.30
  -8   5  -1   17.80   15.70
   8   6  -1   29.00   17.50
  -8   6   1   -7.50   16.20
  -8   6  -1   37.40   18.60
   8   6   1   22.10   17.30
  -8   7   1  -11.20   21.30
   8   7  -1   24.20   20.80
  -8   7  -1   -3.80   18.40
   8   7   1   19.00   22.50
  -8   8   1   41.90   26.50
   8   8  -1    1.80   22.10
  -8   8  -1   75.59   29.00
   8   8   1   32.90   25.20
  -8   0  -2  925.91   46.70
  -8   0   2  767.72   46.70
   8   0  -2  864.41   47.30
   8   0   2  763.02   43.60
  -8  -1  -2  178.48   22.00
  -8   1   2  147.99   22.70
  -8   1  -2  177.38   25.40
  -8  -1   2  198.48   25.60
  -8   1  -2  185.28   23.40
   8  -1  -2  199.88   28.10
  -8  -1   2  150.08   21.20
   8   1   2  172.88   23.40
  -8   2   2  418.06   35.60
  -8  -2  -2  444.96   37.60
   8  -2   2  446.26   33.50
   8   2  -2  411.36   29.90
   8  -2  -2  356.26   48.50
  -8  -2   2  444.66   31.50
  -8   2  -2  404.66   34.20
   8   2   2  414.06   33.70
   8   3  -2  112.59   20.80
  -8   3   2  107.39   23.50
   8  -3   2  104.79   25.30
  -8  -3  -2  107.29   21.30
   8  -3  -2  162.48   27.00
   8   3   2  118.69   24.50
  -8  -3   2  113.89   20.30
  -8   3  -2  149.79   27.40
   8   4  -2   10.50    8.70
  -8   4   2    0.00   12.80
   8  -4   2   24.20   14.70
  -8   4  -2    7.50   12.00
  -8  -4   2   -0.10   10.30
   8   4   2    6.60   11.30
  -8   5   2   19.50   20.00
   8   5  -2   -1.40   11.80
   8   5   2   19.20   13.70
  -8   5  -2   15.50   16.20
  -8   6   2    0.20   18.00
   8   6  -2   13.80   15.30
   8   6   2   24.60   21.30
  -8   6  -2   19.80   16.40
  -8   7   2   65.09   27.80
   8   7  -2   27.70   17.20
  -8   7  -2   23.10   17.60
   8   7   2   41.10   26.10
   8   8  -2   69.49   25.00
  -8   8   2   62.09   29.90
   8   8   2   36.30   21.60
  -8   8  -2   87.69   28.50
   8   0   3 1864.91   76.79
  -8   0  -3 1820.52   77.59
  -8   0   3 1872.71   81.29
   8   0  -3 1744.93   76.59
  -8   1   3 1035.70   56.49
  -8  -1  -3  926.01   52.09
  -8  -1   3 1029.00   51.09
  -8  -1   3 1107.19   54.89
  -8   1  -3 1024.90   54.09
  -8   1  -3 1084.39   52.79
   8  -1  -3  943.31   53.19
   8   1   3 1018.90   52.19
  -8   2   3  515.95   41.00
  -8  -2  -3  527.35   38.50
  -8   2  -3  558.24   38.90
   8   2   3  548.45   40.00
  -8  -2   3  565.74   35.70
   8  -2  -3  503.65   40.90
   8   3  -3   88.69   16.20
  -8   3   3   81.99   21.50
   8  -3   3   46.60   16.00
  -8  -3  -3   51.49   16.30
  -8  -3   3   65.59   15.70
  -8   3  -3   51.79   15.90
   8  -3  -3   65.59   20.70
   8   3   3   63.69   19.20
   8   4  -3    4.00    9.50
  -8   4   3   18.40   15.50
   8  -4   3    0.20   13.80
  -8  -4   3  -17.00   10.40
  -8   4  -3   16.00   12.70
   8   4   3    2.40   11.30
   8   5  -3   46.00   15.10
  -8   5   3   53.99   24.20
  -8   5  -3  141.89   23.80
   8   5   3  121.69   33.10
  -8  -5   3   50.69   20.60
   8   6  -3   27.80   18.20
  -8   6   3   13.60   19.20
   8   6   3   54.69   24.40
  -8   6  -3   56.89   20.60
   8   7  -3   17.00   20.00
  -8   7   3   10.40   20.50
  -8   7  -3   48.80   21.40
   8   7   3   -8.60   19.30
   8   8  -3   22.80   20.20
  -8   8   3   80.19   53.69
  -8   8  -3   45.80   25.70
   8   8   3   13.50   27.60
   8   0   4  907.71   47.40
   8   0  -4  768.52   46.70
  -8   0  -4  790.82   45.60
  -8   0   4 1019.00   53.29
  -8   1   4  584.94   42.20
  -8  -1  -4  556.94   38.60
  -8  -1   4  527.35   38.10
  -8   1  -4  586.74   36.50
  -8   1  -4  604.74   38.80
   8  -1  -4  554.14   39.90
  -8  -1   4  584.54   36.20
   8   1   4  563.04   38.40
  -8   2   4  347.57   36.00
  -8  -2  -4  419.96   35.10
  -8   2  -4  401.66   33.90
  -8  -2   4  353.76   27.90
   8   2   4  378.46   34.40
  -8   2  -4  360.16   28.30
  -8  -2   4  410.76   30.80
   8  -2  -4  376.56   36.10
   8  -3   4  128.09   20.20
   8   3  -4  115.59   19.20
  -8   3   4  119.29   25.00
   8   3   4  139.09   25.60
  -8   3  -4  147.89   24.40
  -8  -3   4   97.99   18.90
   8  -4   4   21.70   12.50
  -8   4   4   31.60   17.50
   8   4  -4   36.90   13.30
  -8   4  -4   -1.90   11.10
   8   4   4   39.50   22.50
  -8  -4   4    3.80   11.90
   8  -5   4    7.80   16.10
  -8   5   4   -9.20   14.70
   8   5  -4   17.30   11.00
  -8   5  -4   12.80   14.70
   8   5   4   40.50   22.70
  -8  -5   4   -2.40   13.70
   8   6  -4   96.59   21.40
  -8   6   4  130.49   30.60
   8   6   4   69.99   26.00
   8   7  -4   31.50   19.60
  -8   7   4   -4.90   21.40
  -8   7  -4   45.70   23.60
   8   7   4   27.30   27.10
  -8   0   5  836.82   49.60
   8   0  -5  786.22   47.70
  -8   0  -5  863.31   48.10
   8   0   5  946.21   50.09
  -8  -1  -5  222.18   31.10
  -8   1   5  239.08   31.80
  -8  -1   5  216.98   22.40
   8  -1  -5  304.87   32.10
   8   1   5  277.17   27.50
  -8  -1   5  218.28   23.70
  -8   1  -5  234.18   28.80
  -8   1  -5  232.88   22.70
  -8   2   5   75.99   20.00
  -8  -2  -5   40.50   14.50
  -8  -2   5   73.59   16.50
   8   2   5  104.79   23.00
   8  -2  -5   51.89   20.20
  -8   2  -5   39.00   12.00
  -8   2  -5   45.60   15.20
  -8  -2   5   81.99   16.80
  -8   3   5  158.78   30.10
  -8   3  -5  173.08   24.10
  -8   3  -5  113.29   21.00
   8   3   5  207.78   33.20
  -8  -3   5  138.29   21.80
  -8  -3   5  169.08   23.70
  -8   4   5  126.19   28.40
   8   4  -5   89.69   18.20
  -8   4  -5  111.49   22.70
  -8  -4   5   98.99   20.30
   8   4   5  119.49   27.40
  -8   5   5    5.00   12.10
   8  -5   5  -16.10   14.40
   8   5  -5    0.80    9.40
  -8  -5   5   -7.90   12.10
  -8   5  -5   12.80   10.10
   8   5   5    2.50   17.60
   8   6  -5   47.90   14.50
  -8   6   5   12.90   21.80
  -8   6  -5   27.80   19.10
  -8  -6   5   14.30   21.00
   8   6   5   30.50   19.70
  -8   7   5   68.19   32.50
   8   7  -5    4.00   13.60
   8   7   5   48.20   24.70
  -8   7  -5   39.00   18.30
  -8   0   6  470.05   36.20
   8   0   6  516.65   36.10
   8   0  -6  381.36   33.40
  -8   0  -6  484.65   34.90
  -8  -1  -6  564.24   41.30
  -8   1   6  505.15   41.80
   8  -1  -6  574.94   41.50
   8   1   6  478.75   37.40
  -8   1  -6  575.54   38.30
  -8  -1   6  539.25   34.10
  -8  -1   6  549.74   37.70
  -8   1  -6  555.34   36.80
  -8  -2  -6   25.00   13.00
  -8   2   6   35.40   13.30
  -8   2  -6   -5.20    8.90
   8   2   6   18.20   13.00
  -8  -2   6   23.40   10.90
  -8   2  -6   14.90   10.60
  -8  -2   6   23.30   11.90
   8  -2  -6   23.20   14.70
  -8   3   6  224.48   38.40
  -8  -3   6  184.28   23.50
  -8   3  -6  205.38   27.00
  -8   3  -6  222.68   23.40
  -8  -3   6  177.98   25.90
  -8   4   6  145.99   32.00
  -8   4  -6  147.69   20.10
  -8   4  -6  157.98   25.90
   8   4   6  144.39   33.20
  -8  -4   6  183.58   27.80
  -8  -4   6  168.58   23.50
  -8   5   6    1.80   15.30
   8   5  -6   -1.50   11.10
   8  -5   6   16.40   15.30
  -8   5  -6    5.60   12.10
  -8  -5   6    2.00   13.80
   8   5   6    9.70   19.00
   8   6  -6  107.79   22.80
  -8   6   6   57.79   26.00
   8   6   6   88.09   33.80
  -8   6  -6  108.39   26.00
  -8  -6   6  106.59   29.30
   8   7  -6   24.30   18.30
  -8   7   6   49.10   28.10
   8   7   6  101.59   32.30
  -8   7  -6   35.30   21.30
   8   0   7   71.79   18.00
  -8   0   7   74.69   16.30
   8   0  -7  146.39   24.00
  -8  -1  -7  137.69   24.10
  -8   1   7  155.48   26.60
  -8  -1   7  218.58   21.70
  -8  -1   7  167.88   25.10
   8  -1  -7  152.38   28.30
  -8   1  -7  218.18   28.00
  -8   1  -7  172.68   25.70
   8   1   7  199.08   31.50
  -8   2   7  328.07   43.90
  -8  -2   7  256.17   23.20
  -8   2  -7  258.57   25.40
  -8   2  -7  250.47   27.00
  -8  -2   7  298.27   27.30
   8   2   7  314.97   38.30
  -8   3   7   85.39   24.10
  -8  -3   7  111.59   16.30
   8   3   7   91.49   19.70
  -8  -3   7  103.09   19.80
  -8   3  -7   89.89   16.70
  -8   3  -7   95.09   19.40
  -8   4   7  107.49   27.60
  -8  -4   7   93.59   19.90
  -8   4  -7   68.79   17.70
  -8   4  -7  108.19   20.60
   8   4   7  116.39   30.50
  -8  -4   7  121.79   18.90
  -8   5   7   67.49   28.90
  -8   5  -7   32.00   15.20
  -8  -5   7   51.59   15.90
   8   5   7   27.60   20.40
  -8   5  -7   35.00   14.50
  -8  -5   7   71.29   18.30
  -8   6   7   62.49   31.20
   8  -6   7   14.80   23.40
   8   6  -7   58.69   17.50
  -8   6  -7   18.70   17.20
   8   6   7   60.19   28.90
   8   7  -7  128.69   25.40
  -8   7   7  115.19   40.30
  -8  -7   7  102.69   33.80
   8   7   7  202.38   49.70
  -8   7  -7   86.59   28.70
   8   0   8  258.07   33.50
  -8   0  -8  183.78   27.10
   8   0  -8  182.18   27.80
  -8   0   8  213.78   30.30
  -8  -1  -8  301.17   37.30
  -8   1   8  342.87   35.00
  -8   1  -8  391.26   32.20
   8   1   8  324.07   33.40
  -8  -1   8  354.96   30.60
   8  -1  -8  296.57   38.10
  -8   2   8  182.58   29.20
  -8  -2   8  236.68   27.80
  -8   2  -8  290.97   28.30
  -8   2  -8  213.48   26.20
  -8  -2   8  224.68   21.20
   8   2   8  231.08   34.40
  -8   3   8   25.10   19.20
   8   3   8   12.70   18.10
  -8   3  -8    1.50   11.00
  -8  -3   8   55.59   13.80
  -8   3  -8   35.70   13.80
  -8  -3   8   43.10   11.30
  -8   4   8   26.30   23.00
  -8   4  -8   42.80   15.00
  -8  -4   8   53.99   13.50
  -8   4  -8   55.49   16.00
   8   4   8   34.10   20.20
  -8  -4   8   59.29   15.60
  -8   5   8   24.00   18.40
   8   5   8    6.30   21.10
  -8   5  -8    0.90   12.10
  -8  -5   8   10.80   14.90
  -8   5  -8  -12.50   12.50
  -8  -5   8   13.00   12.10
  -8   6   8   11.40   28.70
  -8  -6   8    6.40   16.70
  -8   6  -8    4.00   16.00
   8   6   8  -10.30   23.80
  -8   6  -8   32.90   15.50
  -8  -6   8   30.90   20.80
  -8   0   9  187.48   30.40
   8   0   9  227.98   31.50
   8   0  -9  206.18   31.30
  -8   0  -9  216.48   29.90
  -8   1   9  161.88   29.10
  -8  -1   9  182.68   27.30
   8  -1  -9  140.19   26.80
   8   1   9  150.98   29.10
  -8   1  -9  149.49   26.20
  -8   2  -9   64.09   16.40
  -8  -2   9   61.79   16.40
   8   2   9   58.29   22.40
  -8  -2   9   53.69   13.90
  -8   2  -9   62.89   16.50
  -8   3   9   47.50   23.30
  -8   3  -9   26.10   14.90
   8   3   9   78.39   25.00
  -8  -3   9   14.50   11.90
  -8   3  -9   35.30   11.10
  -8  -3   9   52.99   14.00
  -8   4   9   -3.10   20.00
  -8   4  -9   -1.40   10.10
  -8  -4   9   26.60   13.00
   8   4   9    4.00   14.60
  -8   4  -9    8.00   13.10
  -8  -4   9   11.60   11.30
  -8   5   9   57.49   17.50
  -8  -5   9   68.19   16.50
  -8   5  -9   60.09   16.50
  -8  -5   9   40.80   17.80
   8   5   9   40.10   29.60
  -8   5  -9   49.40   14.40
  -8   6   9   30.00   27.60
   8   6   9   63.79   31.00
  -8  -6   9   26.40   15.30
  -8   6  -9   24.10   15.10
  -8   6  -9   31.20   16.80
  -8  -6   9   28.40   18.70
  -8   0  10  363.86   35.70
  -8   0 -10  283.67   38.10
   8   0 -10  298.57   36.40
   8   0  10  384.66   33.40
  -8   1  10  168.78   30.00
  -8   1 -10  208.08   29.80
  -8  -1  10  137.29   23.40
   8   1  10  207.28   32.40
  -8   2  10  100.09   24.40
  -8  -2  10   90.79   16.50
  -8   2 -10  103.19   20.10
   8   2  10   56.49   23.10
  -8  -2  10  105.49   17.10
  -8   2 -10   57.69   17.20
  -8   3  10   29.90   20.50
   8   3  10   67.69   27.60
  -8   3 -10   33.90   13.70
  -8  -3  10   46.70   12.40
  -8   3 -10   49.20   15.10
  -8  -3  10   65.59   13.60
  -8   4  10   20.50   22.10
   8   4  10    6.60   21.70
  -8  -4  10   -8.90   11.60
  -8  -4  10    4.20    8.80
  -8   4 -10  -15.80   11.40
  -8   4 -10    0.40   11.00
  -8   5  10   32.00   25.20
   8   5  10   46.10   27.00
  -8   5 -10   39.40   15.50
  -8   5 -10    9.60   10.70
   8   0 -11    1.70   16.80
   8   0  11   28.00   15.90
  -8   0  11   39.60   16.90
  -8   1  11   35.80   20.60
  -8   1 -11   39.60   18.40
   8   1  11   51.49   20.30
  -8  -1  11   42.30   14.90
  -8   2  11  117.29   28.30
  -8  -2  11   85.79   16.10
  -8   2 -11   97.39   19.10
  -8  -2  11   82.59   16.20
   8   2  11   99.29   28.10
  -8   2 -11   94.49   21.50
  -8   3  11   35.30   25.90
  -8   3 -11   63.29   16.10
  -8  -3  11   67.49   11.70
   8   3  11   32.40   19.50
  -8   3 -11   64.09   15.70
  -8   4  11    5.80   18.90
   8   4  11   -2.10   17.60
  -8   4 -11    8.90   11.70
  -8   4 -11   22.10   11.00
  -8   5  11    2.30   24.30
   8   5  11   53.39   26.20
   8   0 -12   94.39   25.80
  -8   0  12   70.39   21.50
   8   0  12   99.99   24.20
   8   1  12   97.69   23.90
  -8  -1  12  106.79   21.00
  -8  -1  12  151.68   25.50
  -8   1 -12  119.79   25.90
  -8   2  12   75.69   30.40
  -8   2 -12   51.69   17.70
  -8  -2  12   65.59   18.10
  -8   2 -12   62.89   17.80
   8   2  12   83.19   21.20
  -8  -2  12   75.69   15.80
  -8   3  12  111.89   32.20
  -8   3 -12   86.69   16.00
  -8   3 -12   72.09   16.80
   8   3  12  129.79   28.60
  -8   4  12   52.59   28.50
   8   4  12    6.10   19.50
   8   0 -13   99.79   29.10
  -8   0  13   80.49   26.20
   8   0  13   48.70   17.60
  -8   1  13   65.29   22.60
  -8   1 -13   75.39   23.10
  -8  -1  13   52.49   19.20
  -8  -1  13    8.20   18.90
  -8   1 -13   27.40   21.10
   8   1  13   45.90   18.00
  -8   2  13   -2.70   18.50
  -8   2 -13    9.50   15.20
  -8   2 -13   17.50   17.80
  -8  -2  13   26.80   14.50
   8   2  13    3.60   19.90
  -8   3  13   14.50   28.80
  -8   3 -13   22.90   13.70
   8   3  13   25.20   20.70
  -8   3 -13   14.30   11.50
  -8   0  14   80.29   23.30
   8   0  14   66.69   28.70
  -8   1  14   72.69   27.20
   8   1  14   70.29   25.00
  -8   1 -14   23.90   23.20
  -8  -1  14   22.50   23.90
  -8   1 -14   37.80   19.50
  -8  -1  14   56.69   18.10
  -9   0   0    1.00    8.30
  -9   0   0   -8.10    8.30
  -9  -1   0   -0.90    9.90
  -9   1   0   -8.70    8.60
   9  -1   0    9.60   10.00
   9   1   0    3.90    6.90
  -9   2   0   15.40   14.50
   9   2   0   14.80    8.30
   9  -2   0   -2.20   11.10
   9   3   0  194.68   28.10
   9  -3   0  145.09   25.40
  -9  -3   0  175.18   26.10
  -9   3   0  203.88   32.50
  -9   4   0  104.79   24.30
   9   4   0   99.79   23.10
   9   5   0   13.60   17.60
  -9   5   0   41.10   17.00
  -9   6   0   95.99   25.80
   9   6   0   87.29   25.20
   9   7   0   14.20   19.50
  -9   7   0    1.50   18.40
  -9   8   0   17.00   20.40
   9   8   0   22.50   25.70
  -9   0  -1    0.80    8.10
  -9   0   1   -7.40    9.00
  -9   0  -1   10.40    8.50
  -9   0   1   -1.40    8.20
  -9  -1  -1  130.89   21.80
  -9   1   1  107.29   21.40
  -9  -1   1  138.39   23.70
  -9   1  -1  140.69   20.70
  -9  -1   1  128.19   20.30
  -9   1  -1   75.89   20.20
   9   1   1  120.89   20.40
   9  -1  -1  117.89   21.60
   9   2  -1   56.79   16.40
  -9  -2  -1   58.99   16.30
  -9   2   1   81.19   19.20
  -9   2  -1   44.20   16.90
   9  -2  -1   94.99   19.30
   9   2   1   80.99   18.80
  -9  -2   1   90.39   17.30
   9   3  -1  217.28   28.90
  -9  -3  -1  210.28   30.90
   9  -3   1  204.98   29.90
  -9   3   1  212.98   33.70
   9   3   1  222.68   30.30
  -9  -3   1  187.78   27.70
   9  -3  -1  144.39   28.00
  -9   3  -1  145.69   27.20
  -9   4   1  364.86   38.50
   9   4  -1  293.97   31.30
  -9  -4   1  330.67   32.50
  -9   4  -1  284.97   38.30
   9   4   1  287.87   37.50
  -9   5   1  230.38   41.50
   9   5  -1  339.17   49.40
   9   5   1  275.37   41.50
  -9   5  -1  251.87   37.10
  -9   6   1  131.79   33.90
   9   6  -1  179.68   33.20
  -9   6  -1  159.98   33.00
   9   6   1  154.98   34.60
   9   7  -1   68.29   24.10
  -9   7   1  137.39   36.30
  -9   7  -1   66.59   24.60
   9   7   1   85.29   32.00
   9   8  -1    6.30   22.40
  -9   8   1    6.00   21.20
  -9   8  -1   56.19   25.70
   9   8   1   15.90   22.60
  -9   0  -2   -6.00    9.30
  -9   0  -2    1.00    7.10
  -9   0   2   12.10    8.20
  -9   0   2   11.10   11.40
  -9   1   2   64.09   18.40
  -9  -1  -2   82.49   19.50
   9  -1  -2   74.69   20.60
  -9  -1   2   41.30   13.00
  -9  -1   2   56.19   13.60
  -9   1  -2   67.59   17.40
   9   1   2   60.29   15.30
  -9   1  -2   63.09   15.70
  -9  -2  -2  244.68   30.80
   9   2  -2  268.27   27.00
   9  -2   2  292.57   30.30
  -9   2   2  291.17   36.20
  -9   2  -2  268.87   29.30
   9  -2  -2  296.17   31.20
   9   2   2  294.07   28.60
  -9  -2   2  273.27   25.60
  -9   3   2   13.10   12.10
  -9  -3  -2    2.00   12.50
   9  -3   2   23.60   13.00
   9   3  -2   46.70   14.70
   9  -3  -2   19.90   15.00
  -9   3  -2   42.00   16.40
   9   3   2   20.90   13.30
  -9  -3   2   20.30   11.40
   9   4  -2   99.09   22.50
   9  -4   2  109.69   25.60
  -9  -4   2  125.59   24.80
   9   4   2  162.28   33.20
  -9   4  -2   85.19   23.20
  -9   5   2  117.29   31.00
   9   5  -2   80.19   21.00
   9   5   2  124.09   27.40
  -9   5  -2   75.69   26.20
  -9   6   2   37.30   21.50
   9   6  -2   49.40   20.50
  -9   6  -2   14.40   16.20
   9   6   2   26.50   19.70
  -9   7   2   47.10   23.10
   9   7  -2   54.99   25.40
  -9   7  -2   29.90   24.50
   9   7   2   22.70   21.00
  -9   8   2   30.20   35.90
   9   8  -2    6.00   20.90
  -9   8  -2  -22.10   17.20
   9   8   2   57.79   24.30
  -9   0   3    0.30    7.00
   9   0   3   -4.50    8.60
   9   0  -3   -0.20   10.00
  -9   0  -3    0.80    8.30
  -9   1   3   24.40   12.60
  -9  -1  -3    3.00    8.60
  -9   1  -3   13.90   10.90
   9   1   3   13.40    9.50
  -9  -1   3    4.20    6.70
  -9  -1   3   -5.60    8.20
  -9   1  -3    9.20    9.00
  -9  -2  -3  170.58   25.40
  -9   2   3  124.99   24.40
  -9  -2   3  106.29   21.40
   9   2   3  118.49   23.50
  -9  -2   3  142.29   22.70
  -9   2  -3  164.18   26.90
   9  -2  -3  166.48   28.00
  -9   2  -3  143.69   22.10
   9  -3   3  454.55   37.00
   9   3  -3  398.06   33.30
  -9   3   3  454.65   41.90
  -9  -3   3  405.96   37.60
  -9   3  -3  482.85   38.90
   9   3   3  542.35   43.00
   9  -4   3  375.66   37.10
  -9   4   3  350.16   45.30
   9   4  -3  384.96   33.10
  -9   4  -3  409.86   39.30
  -9  -4   3  391.06   33.60
   9   4   3  395.26   40.00
  -9   5   3  311.67   44.20
   9   5  -3  281.07   35.80
  -9   5  -3  275.77   38.80
   9   5   3  287.67   44.00
  -9   6   3  125.39   34.10
   9   6  -3  173.98   30.50
   9   6   3  197.98   40.40
  -9   6  -3  184.58   38.80
   9   7  -3   73.59   21.90
  -9   7   3   42.60   19.50
   9   7   3   56.59   24.40
  -9   7  -3   50.59   22.80
   9   0  -4    9.30   11.20
   9   0   4    1.90    6.80
  -9   0  -4   -1.40    8.80
  -9   0   4   -8.10    8.30
  -9  -1  -4  197.58   29.90
  -9   1   4  157.98   27.60
  -9  -1   4  175.88   25.50
  -9   1  -4  187.78   26.70
  -9  -1   4  136.39   24.50
   9   1   4  148.29   23.30
   9  -1  -4  166.08   26.60
  -9   1  -4  202.68   21.60
  -9   2   4  186.78   30.50
  -9  -2  -4  166.48   26.70
   9  -2  -4  150.08   27.10
  -9  -2   4  184.28   25.10
   9   2   4  184.98   31.10
  -9   2  -4  163.68   22.50
  -9   2  -4  168.68   26.90
  -9  -2   4  149.09   23.20
  -9   3   4  143.29   27.60
   9   3  -4  152.18   23.80
   9  -3   4   90.59   21.80
  -9   3  -4  123.59   23.80
   9   3   4  128.79   26.10
  -9  -3   4  137.99   23.60
   9   4  -4  136.99   23.00
  -9   4   4  169.98   32.70
   9  -4   4  125.79   24.70
   9   4   4  136.79   29.70
  -9   4  -4  141.29   25.80
  -9  -4   4  119.29   22.40
   9   5  -4   -5.60    9.80
  -9   5   4  -19.90   14.70
  -9  -5   4  -21.90   14.30
  -9   5  -4    2.40   13.80
   9   5   4   29.60   20.70
   9   6  -4   14.40   14.80
  -9   6   4   88.99   29.70
  -9   6  -4   30.70   16.30
   9   6   4   27.70   25.80
   9   7  -4   94.79   23.40
  -9   7   4   99.59   34.20
   9   7   4   83.29   26.90
  -9   7  -4  148.29   33.00
   9   0   5   18.50   10.90
  -9   0  -5    1.50    9.70
   9   0  -5    0.90   10.60
  -9   0   5   -3.80    8.70
  -9   1   5  288.67   31.50
  -9  -1  -5  355.46   31.80
   9   1   5  319.27   30.20
   9  -1  -5  289.47   37.20
  -9  -1   5  327.97   29.90
  -9   1  -5  358.16   32.40
  -9  -1   5  355.16   28.80
  -9   1  -5  353.76   29.20
  -9   2   5  328.07   35.40
  -9   2  -5  251.67   27.60
   9   2   5  239.68   34.80
   9  -2  -5  221.68   34.10
  -9   2  -5  271.57   26.30
  -9  -2   5  252.17   25.10
  -9  -2   5  231.08   30.70
  -9   3   5  166.48   38.50
  -9  -3   5  119.49   23.40
  -9   3  -5  116.69   27.60
  -9   3  -5  130.99   22.30
  -9  -3   5  130.99   23.20
  -9   4   5  429.26   46.20
   9  -4   5  433.86   38.90
   9   4  -5  437.16   34.50
   9   4   5  422.16   44.00
  -9   4  -5  445.86   39.70
  -9   5   5  108.99   29.70
   9   5  -5  108.09   21.20
  -9   5  -5   76.69   20.50
  -9  -5   5  133.99   25.70
   9   5   5  223.78   41.20
  -9   6   5   43.60   24.70
   9   6  -5   17.20   14.40
  -9   6  -5   25.20   17.50
   9   6   5   52.09   26.10
  -9   7   5  -10.90   23.40
   9   7  -5   11.10   15.40
  -9   7  -5   18.50   20.60
   9   7   5   13.30   22.40
   9   0  -6    3.20   13.60
  -9   0  -6   12.00   10.60
   9   0   6   -1.50    8.90
  -9   0   6   -6.70    9.90
  -9   1   6   84.49   23.50
  -9  -1  -6   69.29   17.40
  -9  -1   6   58.49   14.60
  -9   1  -6   90.39   21.20
   9  -1  -6   81.39   20.30
   9   1   6  111.49   20.80
  -9  -1   6   56.19   18.40
  -9   2   6  227.28   35.20
  -9  -2   6  242.68   24.10
   9   2   6  273.97   38.70
  -9   2  -6  266.07   33.70
  -9   2  -6  221.18   29.40
  -9  -2   6  231.68   29.70
  -9   3   6   95.89   24.80
  -9  -3   6   81.89   19.30
  -9   3  -6   78.19   19.70
   9   3   6   56.79   20.70
  -9  -3   6   93.49   18.50
  -9   4   6   22.20   17.50
  -9  -4   6   15.00   11.80
   9   4   6   36.20   20.70
  -9   4  -6    5.80   11.80
  -9  -4   6   23.80   16.00
  -9   4  -6   23.00   13.50
   9  -5   6   -5.10   19.30
   9   5  -6   78.59   18.60
  -9   5   6   35.40   22.00
  -9  -5   6   37.10   19.70
  -9   5  -6   54.79   19.90
   9   5   6   38.20   26.60
   9   6  -6   60.99   20.60
  -9   6   6  115.99   27.40
  -9  -6   6   75.89   26.80
  -9   6  -6  129.49   30.90
   9   6   6   90.69   30.20
  -9   7  -6   -7.60   19.00
  -9   0   7   -3.90   10.40
   9   0   7   -0.60   10.50
  -9   0  -7    4.50   10.40
   9   0  -7    3.70   12.90
  -9   1   7   26.80   17.20
  -9  -1  -7   28.40   24.80
   9   1   7   38.50   13.70
  -9   1  -7   20.10   12.10
   9  -1  -7   23.90   16.30
  -9  -1   7   46.20   13.40
  -9  -1   7   29.50   14.50
  -9   1  -7   18.30   13.10
  -9   2   7  391.16   41.00
  -9  -2   7  377.36   32.50
  -9   2  -7  291.97   36.10
  -9   2  -7  305.77   29.70
  -9  -2   7  342.47   28.70
   9   2   7  364.06   37.60
  -9   3   7  264.47   40.80
  -9   3  -7  164.58   26.20
  -9  -3   7  168.48   26.70
  -9  -3   7  191.08   24.10
   9   3   7  206.48   34.80
  -9   3  -7  233.48   31.90
  -9   4   7   93.89   27.10
   9   4   7   36.30   20.60
  -9   4  -7   82.79   21.00
  -9   4  -7   29.50   16.80
  -9  -4   7   88.39   20.20
  -9  -4   7   58.29   16.90
  -9   5   7   78.79   29.20
  -9  -5   7  151.18   26.20
  -9   5  -7   84.19   19.90
  -9   5  -7  110.49   20.40
   9   5   7  113.39   33.80
  -9  -5   7  109.49   23.80
  -9   6   7  139.69   33.60
  -9   6  -7  134.79   27.80
  -9  -6   7   98.69   27.60
   9   6   7  185.08   42.40
   9   7  -7   48.40   20.90
  -9   7   7  110.99   35.40
   9   7   7   79.89   36.70
  -9   7  -7   81.69   25.30
   9   0  -8    8.20   15.00
   9   0   8   -0.50   10.90
  -9   0  -8   29.90   17.50
  -9   0   8   -9.30   10.00
  -9   1   8   46.70   19.90
  -9  -1   8   57.79   15.70
   9  -1  -8   -1.60   18.60
   9   1   8   34.80   14.10
  -9   1  -8   58.09   17.00
  -9   1  -8   38.00   12.20
  -9  -1   8   42.50   15.80
  -9   2  -8   92.49   22.10
  -9  -2   8   84.49   22.20
  -9  -2   8   50.49   14.20
   9   2   8  116.99   28.30
  -9   3   8   52.29   24.70
  -9   3  -8   35.20   16.30
   9   3   8   82.39   24.60
  -9  -3   8   54.89   18.10
  -9   3  -8   76.39   18.80
  -9  -3   8   66.79   16.50
  -9   4   8  187.08   37.40
  -9  -4   8  147.49   21.10
  -9  -4   8  181.98   24.00
   9   4   8  197.78   40.90
  -9   4  -8  147.69   24.40
  -9   5   8   30.30   18.00
   9   5   8   35.20   23.00
  -9   5  -8   11.80   16.30
  -9   5  -8   67.39   20.10
  -9  -5   8  -20.70   16.00
  -9  -5   8   50.39   18.70
  -9   6   8   22.80   27.20
   9   6   8   41.00   28.80
  -9  -6   8   22.20   24.00
  -9  -6   8    1.20   17.80
  -9   6  -8   32.90   15.70
  -9   6  -8    4.00   20.70
   9   0  -9    1.40   15.80
  -9   0  -9  -18.10   11.70
   9   0   9   -3.30   11.70
  -9   0   9   12.50   11.60
  -9   1   9   52.99   21.10
  -9   1  -9   31.70   17.50
   9   1   9   50.89   19.70
  -9  -1   9   90.39   22.90
  -9   1  -9   44.40   16.80
  -9  -1   9   61.69   15.50
  -9   2   9   49.30   18.10
  -9   2  -9   28.60   17.60
  -9  -2   9   42.80   13.70
  -9  -2   9   38.90   12.20
   9   2   9   15.80   15.90
  -9   3   9   52.69   24.00
  -9  -3   9   37.50   13.20
  -9   3  -9   37.20   16.70
  -9  -3   9   21.40   15.30
  -9   3  -9   35.90   14.90
   9   3   9   39.20   20.60
  -9   4   9  189.78   40.10
  -9  -4   9  243.18   26.00
  -9  -4   9  216.08   25.70
  -9   4  -9  226.38   30.40
   9   4   9  206.78   38.70
  -9   4  -9  232.28   29.80
  -9   5   9  257.37   43.10
   9   5   9  308.17   51.59
  -9  -5   9  195.18   27.70
  -9  -5   9  183.68   25.60
  -9   5  -9  226.28   28.80
  -9   6   9   74.59   50.29
  -9  -6   9   28.30   18.40
  -9  -6   9  -14.60   20.80
  -9   6  -9   17.20   17.00
   9   6   9   66.19   33.00
  -9   6  -9   27.30   18.20
   9   0 -10    3.80   18.60
   9   0  10    9.50   14.20
  -9   0  10  -10.70   15.90
  -9   1  10   35.80   18.60
  -9   1 -10    3.10   14.30
  -9  -1  10   -2.70   14.70
   9   1  10   43.10   17.20
  -9  -1  10   45.10   28.10
  -9   1 -10   16.10   15.10
  -9   2  10   33.70   17.40
  -9  -2  10   12.80   12.20
  -9   2 -10   27.10   16.20
  -9   2 -10   17.50   16.80
   9   2  10   24.30   18.30
  -9  -2  10    3.80   10.40
  -9   3  10   41.10   24.30
  -9   3 -10   29.30   16.30
  -9   3 -10   -0.90   12.90
   9   3  10   35.10   22.20
  -9  -3  10    9.40   11.90
  -9  -3  10   -3.90   13.30
  -9   4  10  -13.90   16.50
  -9  -4  10   60.09   15.70
  -9  -4  10   17.00   13.90
  -9   4 -10   22.60   16.70
  -9   4 -10    2.00   14.90
   9   4  10   59.59   27.50
  -9   5  10   50.19   25.90
  -9   5 -10   64.49   20.10
  -9  -5  10   65.49   15.30
   9   5  10   86.19   34.50
  -9   5 -10   69.39   17.60
   9   0 -11  -21.60   19.00
  -9   0  11   -8.70   14.40
   9   0  11    4.00   14.50
   9   1  11   -1.00   14.30
  -9   1 -11   17.70   16.20
  -9  -1  11   26.80   14.40
  -9   1 -11    3.30   13.60
  -9   2  11  172.28   33.00
  -9   2 -11  145.69   24.50
  -9  -2  11  157.08   23.80
   9   2  11  167.68   33.70
  -9   2 -11  150.98   27.00
  -9  -2  11  123.89   22.10
  -9   3  11   94.19   31.50
  -9   3 -11   48.50   17.60
  -9   3 -11  136.39   23.50
  -9  -3  11  118.19   19.00
  -9  -3  11   95.69   17.30
   9   3  11  108.89   31.30
  -9   4  11   41.60   24.60
  -9   4 -11   37.50   14.80
  -9   4 -11   24.10   18.50
   9   4  11   58.29   26.40
  -9   5  11   30.90   26.40
  -9   5 -11   16.60   15.80
  -9   5 -11   22.70   13.70
  -9   0  12   -2.00   14.10
  -9   1  12   -2.70   20.10
  -9  -1  12  -11.60   20.40
   9   1  12    9.50   14.30
  -9  -1  12   21.40   16.70
  -9   1 -12  -40.90   19.80
  -9   1 -12   -6.20   15.50
  -9   2  12   47.90   22.20
  -9  -2  12   21.60   14.30
  -9  -2  12   10.30   17.30
   9   2  12   10.90   13.20
  -9   2 -12   -7.50   14.50
  -9   2 -12   11.50   18.20
  -9   3  12   37.60   24.80
  -9   3 -12   28.90   15.70
  -9  -3  12   43.80   12.20
  -9   3 -12   27.70   16.90
   9   3  12   37.70   23.00
  -9   4  12   78.59   32.40
  -9   4 -12   67.49   14.20
  -9   4 -12   45.40   17.60
   9   4  12   52.09   24.90
  -9   0  13    6.10   18.00
   9   0  13  -14.60   17.00
  -9   1  13   53.49   22.60
  -9  -1  13   10.70   19.40
  -9   1 -13   32.70   17.80
  -9  -1  13   62.39   27.70
   9   1  13   37.80   21.00
  -9   2  13   25.20   24.50
  -9  -2  13   42.10   19.60
  -9  -2  13   46.00   14.70
   9   2  13   19.50   20.30
  -9   2 -13   21.70   21.60
  -9   2 -13   72.79   20.50
  -9   3  13   59.19   28.50
   9   3  13   21.60   24.60
  -9   3 -13   54.29   16.80
  -9   3 -13   18.50   16.80
  -9   0  14   -1.50   22.20
   9   0  14   -1.00   20.80
 -10   0   0  874.41   74.39
 -10  -1   0  598.24   41.00
 -10   1   0  571.94   43.10
  10  -1   0  574.54   41.80
  10   1   0  574.24   40.60
 -10   2   0 1148.69   65.39
  10  -2   0 1156.28   63.99
 -10  -2   0 1061.19   58.29
  10   2   0 1146.19   61.39
 -10   3   0  436.16   41.90
 -10  -3   0  391.76   34.30
  10   3   0  404.76   34.70
 -10   4   0  223.38   43.00
  10   4   0  253.27   35.80
 -10   5   0   -6.10   15.80
  10   5   0   13.20   15.60
  10   6   0   28.80   21.30
 -10   6   0   44.60   21.10
 -10   7   0  136.19   34.00
  10   7   0  146.19   34.60
 -10   0  -1   42.30   15.30
 -10   0  -1   59.69   18.50
 -10   0   1   36.50   14.30
 -10   1   1  129.69   24.50
 -10  -1  -1   91.89   19.30
  10  -1  -1   96.29   22.60
 -10   1  -1   48.80   13.90
  10   1   1   96.79   21.20
 -10   1  -1  125.69   23.00
 -10  -1   1   70.99   20.80
 -10  -1   1  109.19   21.50
 -10   2   1   54.99   17.50
 -10  -2  -1   63.59   18.00
  10  -2   1   60.39   18.30
  10   2  -1   43.80   13.70
  10  -2  -1   47.60   14.40
 -10   2  -1   76.89   23.20
  10   2   1   86.59   20.80
 -10  -2   1   39.70   14.00
 -10   3   1  237.08   36.60
  10   3  -1  248.58   33.60
  10  -3   1  221.38   32.30
 -10  -3   1  203.48   29.30
  10   3   1  231.28   32.70
 -10   3  -1  235.48   35.70
 -10   4   1   19.40   14.60
  10   4  -1   21.20   12.10
 -10   4  -1   30.20   17.70
  10   5  -1   25.30   17.20
 -10   5   1   18.80   17.60
  10   5   1   34.50   15.60
 -10   5  -1    1.60   14.00
  10   6  -1    3.70   13.40
 -10   6   1  -17.00   17.00
  10   6   1    2.40   18.80
 -10   6  -1  -21.90   16.50
  10   7  -1   -5.20   18.40
 -10   7   1    3.30   20.80
 -10   7  -1   13.50   21.30
  10   7   1    7.10   20.90
 -10   0   2  344.27   34.50
 -10   0  -2  314.77   28.60
 -10   0  -2  308.97   31.00
 -10   0   2  360.76   34.10
 -10  -1  -2  575.24   40.00
 -10   1   2  546.65   43.50
  10  -1  -2  530.65   41.70
 -10   1  -2  544.95   41.30
 -10  -1   2  619.44   43.70
  10   1   2  576.34   40.90
 -10   1  -2  499.75   38.20
 -10  -2  -2 1137.49   62.59
  10  -2   2 1094.09   61.59
  10   2  -2 1115.29   59.69
 -10   2   2 1199.18   67.79
  10  -2  -2 1190.68   66.29
 -10  -2   2 1143.29   60.29
  10   2   2 1155.98   62.49
 -10   2  -2 1167.58   66.19
 -10   3   2  457.35   43.30
  10   3  -2  463.05   38.40
  10  -3   2  489.45   40.50
 -10   3  -2  444.76   39.00
 -10  -3   2  444.16   37.70
  10   3   2  477.75   40.90
 -10   4   2  188.88   36.40
  10   4  -2  213.28   31.40
 -10   4  -2  184.88   32.40
  10   4   2  239.38   36.50
 -10   5   2   14.20   18.20
  10   5   2   30.50   17.10
 -10   5  -2   39.90   20.00
 -10   6   2   27.60   22.60
  10   6  -2   56.69   22.90
 -10   6  -2   65.79   26.10
  10   6   2   52.29   19.80
  10   7  -2   27.20   20.70
 -10   7   2   -3.30   19.50
  10   7   2   34.10   23.30
 -10   7  -2   13.50   20.80
 -10   0  -3  318.67   31.60
 -10   0   3  312.47   32.60
 -10   0  -3  272.57   28.30
 -10   0   3  247.88   26.80
 -10  -1  -3  184.78   27.10
 -10   1   3  173.38   31.00
  10   1   3  183.18   27.70
 -10   1  -3  212.38   29.00
 -10   1  -3  238.98   31.50
 -10  -1   3  189.58   28.60
  10  -1  -3  177.48   28.90
 -10   2   3    7.90   12.70
 -10  -2  -3    7.20   12.40
  10  -2  -3   -2.80   11.30
 -10   2  -3   20.90   12.10
 -10   2  -3   17.60   11.70
  10   2   3   22.70   11.60
 -10  -2   3   19.80   13.10
 -10  -2   3   -8.10   10.70
 -10   3   3   -2.20   11.60
  10  -3   3   34.90   15.60
  10   3  -3   11.70   11.30
 -10   3  -3    4.80   12.10
  10   3   3   13.60   12.60
 -10  -3   3   14.90   12.60
  10   4  -3   23.10   11.80
 -10   4   3   39.80   21.30
 -10  -4   3    8.20   14.10
  10   4   3   25.70   17.80
 -10   4  -3    9.40   14.50
 -10   5   3   23.00   22.20
  10   5  -3   20.60   15.40
  10   5   3   30.00   20.50
 -10   5  -3   21.00   13.40
  10   6  -3  -10.80   10.60
 -10   6   3   21.00   19.40
 -10   6  -3   -2.50   19.70
  10   6   3   11.50   18.90
  10   7  -3  -14.60   17.70
 -10   7   3    7.10   19.30
 -10   7  -3    4.90   19.90
  10   7   3    7.30   21.10
  10   0   4  527.55   38.80
 -10   0   4  498.35   41.20
  10   0  -4  525.45   40.00
 -10   0  -4  461.45   37.40
 -10   1   4  652.13   47.70
 -10  -1  -4  586.74   42.40
  10  -1  -4  483.95   41.40
 -10  -1   4  638.04   44.20
 -10   1  -4  528.15   41.20
 -10   1  -4  460.15   35.50
  10   1   4  651.93   44.30
 -10   2   4  453.75   40.40
 -10  -2   4  394.66   36.30
  10   2   4  400.26   36.10
 -10   2  -4  381.76   33.50
 -10   2  -4  411.26   38.10
 -10  -3   4  218.48   29.30
 -10   3  -4  237.18   32.50
 -10   3  -4  173.38   27.00
  10   3   4  186.18   40.00
 -10  -3   4  244.48   34.00
  10   4  -4  170.48   28.40
 -10   4   4  189.48   36.30
 -10   4  -4  221.18   35.00
  10   4   4  174.88   34.00
 -10  -4   4  181.78   29.30
 -10   5   4   30.90   18.70
  10   5  -4    7.50   12.10
  10   5   4    7.70   13.90
  10   6  -4   55.09   20.70
 -10   6   4   38.30   26.70
  10   6   4   45.00   22.80
 -10   6  -4   52.99   19.20
 -10   7   4   58.99   33.00
  10   7  -4   63.29   22.10
  10   7   4   67.49   29.10
 -10   7  -4   38.70   24.60
 -10   0  -5  167.68   27.90
 -10   0   5  187.98   30.70
  10   0  -5  163.08   26.50
  10   0   5  176.08   26.20
 -10   1   5   73.49   21.50
 -10  -1  -5   84.39   19.20
  10   1   5   75.19   17.10
 -10  -1   5   99.49   22.90
 -10   1  -5   63.09   18.20
  10  -1  -5   84.49   21.30
 -10   1  -5   68.19   17.40
 -10   2   5   67.99   18.80
 -10   2  -5   73.09   17.20
  10   2   5   64.89   19.50
 -10  -2   5   61.69   18.20
 -10  -2   5   52.49   18.30
 -10   2  -5   84.79   17.50
 -10   3   5  104.19   27.80
  10   3   5   92.59   23.60
 -10   3  -5   61.09   15.50
 -10  -3   5   84.09   20.80
 -10   3  -5  100.29   22.10
 -10  -3   5   93.09   19.70
 -10   4   5   15.80   18.60
  10   4   5   28.00   19.60
 -10   4  -5   39.20   18.30
 -10  -4   5   45.90   19.20
  10   5  -5   27.50   14.10
 -10   5   5  -11.50   15.70
 -10   5  -5   30.10   15.50
  10   5   5   14.20   19.10
 -10   6   5   29.40   24.20
  10   6   5  -11.20   19.70
 -10   6  -5    1.10   19.40
  10   7  -5   28.60   19.60
 -10   7   5   10.20   46.10
  10   7   5   -3.10   22.90
 -10   7  -5   19.20   22.70
  10   0  -6  374.36   35.70
 -10   0   6  413.56   38.30
  10   0   6  420.16   36.00
 -10   0  -6  375.76   33.60
 -10   1   6  391.36   37.90
 -10  -1   6  426.16   37.00
  10  -1  -6  319.17   33.60
 -10   1  -6  338.77   33.40
  10   1   6  431.46   37.60
 -10  -1   6  393.76   36.70
 -10   1  -6  293.77   31.20
 -10   2   6  392.76   41.10
 -10   2  -6  411.86   34.30
 -10  -2   6  442.46   38.20
 -10   2  -6  532.55   41.70
  10   2   6  594.74   85.39
 -10  -2   6  419.66   34.00
 -10   3   6   27.80   15.40
  10   3   6   43.00   21.40
 -10  -3   6   57.19   18.40
 -10   3  -6   11.30   12.50
 -10   3  -6    2.20   11.00
 -10   4   6   50.19   17.90
  10   4   6    7.30   15.30
 -10  -4   6   31.60   15.60
 -10  -4   6   21.30   13.90
 -10   4  -6   13.40   14.20
 -10   4  -6    3.60   13.20
 -10   5   6   30.30   16.90
 -10   5  -6   12.40   15.60
 -10  -5   6  -13.10   18.40
  10   5   6   19.90   19.10
 -10   6   6  -16.50   23.50
  10   6  -6   55.69   17.80
  10   6   6   52.29   27.20
 -10   6  -6   70.59   25.00
  10   7  -6   20.20   17.00
 -10   7   6   10.80   29.10
 -10   7  -6   39.00   21.80
  10   7   6   47.00   31.70
  10   0   7  240.38   34.80
 -10   0  -7  181.78   28.00
  10   0  -7  214.18   32.30
 -10   0   7  232.28   33.30
 -10   1   7   33.00   17.10
 -10  -1   7   68.19   19.30
 -10   1  -7   25.80   13.20
 -10   1  -7   42.60   14.90
  10   1   7   25.80   15.50
 -10  -1   7   34.30   16.00
 -10   2   7   12.60   21.10
 -10   2  -7    6.10   12.10
 -10  -2   7   49.20   19.90
  10   2   7    3.20   11.90
 -10  -2   7   23.00   14.40
 -10   2  -7   13.00   11.60
 -10   3   7   37.00   22.90
 -10  -3   7   64.49   16.30
 -10  -3   7   51.49   19.80
 -10   3  -7   64.59   17.00
 -10   3  -7   53.69   19.70
  10   3   7   58.29   20.20
 -10   4   7   12.10   20.20
 -10   4  -7   35.50   16.90
 -10  -4   7   50.29   19.00
  10   4   7    5.30   19.80
 -10   4  -7   -4.30   13.00
 -10   5   7  -16.20   18.60
 -10  -5   7    7.40   19.70
 -10   5  -7   39.60   16.10
 -10  -5   7    6.80   14.80
  10   5   7  -10.20   14.90
 -10   6   7   38.20   28.80
 -10  -6   7   -5.70   17.80
  10   6   7    7.60   24.20
 -10  -6   7   31.60   26.80
  10   0   8 1797.12   85.99
  10   0  -8 1745.03   85.69
 -10   0   8 1871.31   90.59
 -10   1   8  194.18   32.20
 -10   1  -8  233.88   32.60
  10   1   8  281.07   42.20
 -10  -1   8  264.67   28.50
 -10   1  -8  277.87   38.10
 -10  -1   8  265.67   34.90
 -10   2   8   31.00   18.40
 -10  -2   8   12.50   15.60
 -10  -2   8   33.20   18.50
  10   2   8   58.49   20.90
 -10   2  -8   23.60   15.60
 -10   2  -8   49.20   15.80
 -10   3   8    7.00   16.70
 -10   3  -8    6.20   13.50
 -10   3  -8    6.70   13.00
  10   3   8   27.00   17.20
 -10  -3   8    0.70   14.60
 -10  -3   8  -19.50   14.00
 -10   4   8   -0.10   19.60
 -10   4  -8   26.10   15.60
 -10  -4   8   25.10   16.00
 -10  -4   8   16.70   16.20
  10   4   8   16.00   15.70
 -10   4  -8    6.90   12.20
 -10   5   8  -16.00   15.50
 -10  -5   8   -1.20   17.40
 -10  -5   8  -16.00   24.20
 -10   5  -8   13.40   17.00
  10   5   8   18.70   21.30
 -10   5  -8  -18.80   15.90
 -10   6   8    3.20   29.60
 -10  -6   8   17.20   27.50
 -10   6  -8    9.40   16.40
  10   6   8   -1.30   40.10
 -10  -6   8   -4.90   19.20
 -10   0   9  209.98   32.50
  10   0  -9  249.18   32.30
  10   0   9  250.57   35.30
 -10   1   9   29.10   18.50
 -10  -1   9   59.69   21.80
  10   1   9   14.30   15.70
 -10   1  -9   19.80   14.30
 -10   1  -9   27.60   15.00
 -10  -1   9   32.00   15.70
 -10   2   9  115.19   30.20
 -10   2  -9   93.69   21.70
  10   2   9  142.89   30.70
 -10  -2   9   41.50   19.70
 -10  -2   9  116.59   21.90
 -10   2  -9  120.69   23.20
 -10   3   9   34.40   22.60
  10   3   9    6.40   16.60
 -10  -3   9   13.70   13.40
 -10   3  -9    5.80   16.20
 -10   3  -9   49.90   19.10
 -10  -3   9   17.10   15.90
 -10   4   9   27.20   22.40
 -10  -4   9    2.40   15.60
 -10  -4   9   11.50   15.40
 -10   4  -9   -9.00   16.20
  10   4   9    5.50   19.10
 -10   4  -9   16.20   15.00
 -10   5   9  -17.80   18.60
 -10   5  -9   14.30   14.70
 -10   5  -9  -11.30   17.50
  10   5   9   19.90   20.60
 -10  -5   9   -4.00   15.80
 -10  -5   9   -1.70   19.10
  10   0  10  107.09   25.20
 -10   0  10  123.79   26.30
 -10   1  10   91.49   24.90
  10   1  10  166.58   29.70
 -10   1 -10   69.09   21.00
 -10  -1  10  106.19   24.10
 -10  -1  10  116.69   23.60
 -10   2  10  253.57   43.50
 -10  -2  10  212.28   28.20
 -10   2 -10  129.69   24.00
 -10  -2  10  207.08   26.70
  10   2  10  233.68   40.20
 -10   2 -10  225.38   30.30
 -10   3  10  -17.00   19.20
  10   3  10    9.90   19.00
 -10   3 -10    8.40   14.80
 -10   3 -10  -19.90   15.00
 -10  -3  10   -0.20   12.10
 -10  -3  10   21.40   15.80
 -10   4  10    5.30   23.80
 -10  -4  10   22.10   17.00
 -10   4 -10   50.09   19.30
 -10  -4  10   29.80   15.50
 -10   4 -10   31.90   17.60
  10   4  10   24.90   21.50
 -10   5  10    7.40   22.70
 -10  -5  10  -31.00   20.70
 -10   5 -10  -27.50   15.50
 -10   5 -10   21.80   15.80
  10   5  10    8.80   21.80
 -10  -5  10   18.80   14.60
  10   0  11   55.59   19.20
 -10   0  11   87.49   25.30
 -10   1  11  -25.00   14.10
 -10  -1  11   -2.10   13.80
 -10   1 -11    3.50   12.60
 -10  -1  11  -42.00   16.60
  10   1  11   -7.00   15.00
 -10   2  11    4.30   18.30
 -10   2 -11   -3.70   17.80
 -10  -2  11    6.20   14.50
  10   2  11   15.00   16.40
 -10  -2  11   11.40   15.60
 -10   2 -11   16.30   18.70
 -10   3  11   45.40   24.50
 -10   3 -11   20.80   17.70
 -10  -3  11   36.00   15.90
 -10   3 -11   50.89   20.30
 -10  -3  11   -1.10   16.40
  10   3  11   54.29   31.60
 -10   4  11   -6.50   21.00
 -10  -4  11   30.40   17.60
  10   4  11  -49.70   17.00
 -10   4 -11   16.40   15.80
 -10   4 -11   18.30   19.90
  10   0  12  141.79   27.10
 -10   0  12  129.49   26.20
 -10   1  12   67.59   25.10
  10   1  12   54.39   21.80
 -10   1 -12   50.89   22.00
 -10  -1  12   32.70   23.00
 -10  -1  12   30.80   17.60
 -10   2  12   69.49   27.70
 -10   2 -12   85.39   22.30
 -10  -2  12   60.19   21.10
 -10  -2  12   18.40   18.80
  10   2  12   48.40   24.20
 -10   2 -12   88.59   24.30
 -10   3  12   14.40   21.80
 -10  -3  12   34.70   15.00
  10   3  12   50.29   22.80
 -10  -3  12   28.70   19.20
 -10   3 -12   59.79   19.20
  10   0  13   44.80   21.00
 -10   1  13  -25.00   19.40
  10   1  13   10.50   22.30
 -10  -1  13    9.90   25.80
 -10  -1  13  -12.90   21.60
 -10   2  13   30.00   25.60
 -10   2 -13    3.70   18.60
 -10   2 -13   20.60   21.60
  10   2  13   26.20   22.50
 -10  -2  13   12.20   16.60
 -10  -2  13   -7.10   21.60
 -11   0   0   -4.20   11.40
 -11   0   0   16.00   12.30
 -11   1   0  186.38   27.50
 -11  -1   0  209.48   29.30
 -11  -1   0  237.58   33.20
 -11   1   0  168.08   30.70
 -11   2   0  116.39   27.70
  11   2   0  148.09   27.80
  11  -2   0   74.39   18.90
 -11  -2   0  108.69   17.70
 -11   3   0   21.10   15.10
  11   3   0   10.00   12.70
 -11   4   0    9.80   13.80
  11   4   0    6.30   11.30
  11   5   0   34.10   21.00
 -11   5   0    3.10   15.20
 -11   6   0   34.30   21.60
  11   6   0    8.60   17.60
  11   7   0  -26.50   16.70
 -11   7   0   27.20   22.50
 -11   0  -1    5.90   10.20
 -11   0   1   -8.40    9.20
 -11   0   1   11.20   14.40
 -11   0  -1   10.60   12.70
 -11   1   1   75.79   21.60
 -11  -1  -1   74.49   16.40
  11   1   1   78.89   18.90
 -11   1  -1   90.29   22.10
 -11   1  -1   92.99   24.60
  11  -1  -1   69.59   19.50
 -11  -1   1  100.29   21.70
 -11  -1   1   75.29   21.20
  11  -2   1  160.28   25.30
  11   2  -1  147.19   24.30
 -11   2   1  125.39   24.30
  11   2   1  153.38   26.00
 -11   2  -1   81.59   23.10
 -11  -2   1  155.28   26.90
 -11   3   1  155.18   32.00
  11   3  -1  207.78   32.10
  11   3   1  143.39   27.10
 -11   3  -1  166.88   30.20
 -11   4   1  552.84   52.19
  11   4  -1  560.34   79.59
  11   4   1  607.34   49.50
 -11   4  -1  632.74   51.19
  11   5  -1  267.17   42.20
 -11   5   1  203.08   40.90
  11   5   1  246.68   40.10
 -11   5  -1  218.98   38.70
  11   6  -1  223.08   38.80
 -11   6   1  191.68   39.90
  11   6   1  184.48   38.30
 -11   6  -1  223.18   42.00
  11   7  -1   67.69   28.40
 -11   7   1    9.40   20.00
  11   7   1   56.99   21.40
 -11   7  -1   74.49   24.60
 -11   0   2    2.10   11.80
 -11   0   2    5.40   10.80
 -11   0  -2   -1.00   12.70
 -11   0  -2   -3.90   10.70
 -11  -1  -2   20.30   13.60
 -11   1   2   17.30   14.50
  11  -1  -2   42.00   16.20
  11   1   2   45.50   17.20
 -11  -1   2   37.60   15.00
 -11   1  -2   27.20   13.90
 -11  -1   2   71.29   17.90
 -11   1  -2   40.70   17.70
 -11   2   2   27.00   15.00
 -11  -2   2   27.10   13.40
 -11   2  -2   45.20   16.80
  11   2   2   38.40   15.00
 -11   2  -2   16.20   12.40
 -11  -2   2   27.00   16.20
  11   3  -2   16.70   14.60
 -11  -3   2   44.60   19.90
 -11   3  -2   22.50   12.50
 -11   4   2   14.60   16.00
  11   4  -2    9.90   13.40
  11   4   2  -10.10   12.80
 -11   4  -2   31.20   31.20
  11   5  -2   12.90   15.00
 -11   5   2   14.90   17.50
  11   5   2   18.80   19.00
 -11   5  -2   26.20   19.30
 -11   6   2    4.40   22.50
  11   6  -2   11.30   18.30
 -11   6  -2  -15.30   15.40
  11   6   2  -16.80   18.00
  11   7  -2    7.40   16.20
 -11   7   2   12.40   21.60
 -11   7  -2    3.10   18.20
  11   7   2    9.20   19.20
 -11   0  -3    6.70   11.70
 -11   0   3    3.60   12.20
 -11   0   3    2.00    8.90
 -11   0  -3    1.70    8.70
 -11  -1  -3  -10.20   12.60
 -11   1   3    4.10   13.70
 -11  -1   3   16.40   12.30
 -11   1  -3    2.20   10.70
 -11   1  -3   13.50   12.70
  11   1   3   21.50   12.70
  11  -1  -3   10.70   14.60
 -11  -1   3   12.70   12.40
 -11   2   3  129.09   26.40
 -11  -2   3  152.68   27.10
 -11  -2   3  170.08   26.70
 -11   2  -3  141.59   26.70
 -11   2  -3  106.99   20.40
  11   2   3  151.98   27.90
 -11   3   3  537.95   49.10
  11   3  -3  537.75   41.30
  11   3   3  497.75   44.30
 -11  -3   3  497.65   40.80
 -11   3  -3  507.45   44.70
  11   4  -3  481.65   40.60
 -11   4   3  452.55   49.00
  11   4   3  363.86   49.60
 -11   4  -3  447.56   57.99
 -11   5   3  200.18   41.40
  11   5  -3  234.28   37.40
  11   5   3  247.88   42.50
 -11   5  -3  226.08   38.20
 -11   6   3   58.99   22.70
  11   6  -3   85.69   26.30
 -11   6  -3   33.90   19.30
  11   6   3   35.00   20.60
 -11   7   3   53.19   28.40
 -11   7  -3   93.19   24.90
  11   7   3   60.39   23.10
 -11   0  -4   13.70   10.30
 -11   0   4    4.80   10.70
 -11   0  -4  -10.90   10.80
 -11   0   4   -7.80    9.10
 -11   1   4   53.89   18.70
 -11  -1   4   37.00   16.70
 -11  -1   4   23.80   14.80
 -11   1  -4   14.50   11.80
 -11   1  -4   57.99   17.30
  11   1   4   37.80   16.00
 -11   2   4    5.20   15.90
  11   2   4   -2.00   11.10
 -11   2  -4   -9.40    9.90
 -11  -2   4   14.20   13.40
 -11   2  -4   -0.70   12.30
 -11  -2   4    6.70   13.70
 -11   3   4   22.70   21.30
 -11  -3   4   11.50   13.30
  11   3   4   13.20   15.00
 -11  -3   4  -15.80   12.50
 -11   3  -4   16.90   16.20
 -11   4   4   29.40   20.10
  11   4  -4   31.00   15.50
  11   4   4   38.00   20.00
 -11   4  -4   23.70   14.70
 -11   5   4   55.79   24.90
  11   5   4   16.30   17.90
 -11   5  -4   11.60   19.00
 -11   6   4   -3.40   19.40
  11   6  -4   16.80   18.50
 -11   6  -4   16.60   18.30
  11   6   4    1.40   21.90
  11   7  -4    5.10   20.80
 -11   7   4  -37.50   26.90
 -11   7  -4    8.40   19.80
  11   7   4   48.70   29.30
  11   0   5    3.00   11.90
  11   0  -5   -4.30   11.30
 -11   0   5   14.30   13.10
 -11   1   5  174.98   32.20
 -11   1  -5  207.38   30.50
 -11  -1   5  136.59   23.20
 -11   1  -5  228.08   32.20
 -11  -1   5  175.88   31.50
  11   1   5  152.48   28.10
 -11   2   5  121.99   45.40
 -11  -2   5  159.88   27.90
 -11   2  -5  166.08   27.20
 -11   2  -5  214.28   34.10
 -11  -2   5  136.89   24.60
  11   2   5  172.18   33.20
 -11   3   5  129.39   29.50
  11   3   5  180.58   33.70
 -11  -3   5  206.08   29.50
 -11  -3   5  146.79   28.80
 -11   3  -5  162.08   29.80
 -11   4   5  236.28   40.60
 -11  -4   5  193.28   29.80
 -11  -4   5  213.98   35.70
  11   4   5  161.88   36.40
 -11   4  -5  205.48   33.70
  11   5  -5  389.56   37.30
 -11   5   5  382.86   56.99
 -11   5  -5  336.57   36.80
  11   5   5  376.56   54.69
 -11   6   5  104.69   33.00
  11   6  -5  100.89   24.30
  11   6   5  169.18   36.70
 -11   6  -5   95.79   27.70
 -11   7   5  111.29   33.90
  11   7  -5   63.59   24.00
  11   7   5  115.29   34.70
 -11   7  -5   88.09   28.60
  11   0   6   -5.70   10.60
 -11   0   6   24.70   18.70
  11   0  -6   -0.10   13.40
 -11   1   6  -12.90   11.30
 -11  -1   6   -8.80   11.40
 -11  -1   6    5.90   13.00
 -11   1  -6   12.50   13.70
 -11   1  -6    2.20   12.60
  11   1   6   19.60   12.40
 -11   2   6   38.10   22.40
 -11   2  -6   57.09   18.80
 -11  -2   6   13.00   11.90
 -11  -2   6    5.90   16.60
  11   2   6   22.80   12.70
 -11   2  -6    4.20   11.70
 -11   3   6   13.50   15.20
 -11   3  -6  -19.00   10.70
  11   3   6    5.50   13.70
 -11  -3   6   -7.90   13.30
 -11  -3   6   31.60   15.40
 -11   4   6   18.20   21.20
 -11   4  -6   25.70   14.30
 -11  -4   6    4.50   17.90
 -11  -4   6   24.20   16.80
  11   4   6   12.80   20.10
 -11   5   6   44.30   19.80
 -11   5  -6  -22.60   13.70
 -11  -5   6    8.50   14.80
  11   5   6    4.50   18.50
 -11   6   6   48.10   27.20
  11   6  -6    1.50   18.20
  11   6   6   23.30   18.10
 -11   6  -6   -3.30   18.80
  11   0   7   15.30   13.00
 -11   0   7   -8.20   10.40
 -11   1   7    2.90   15.80
 -11  -1   7   16.30   14.60
 -11   1  -7   65.79   20.40
 -11  -1   7   36.70   15.50
  11   1   7   46.40   22.40
 -11   2   7   32.70   21.10
 -11   2  -7    4.60   11.00
 -11  -2   7    6.80   14.40
 -11   2  -7    0.20   13.80
  11   2   7   47.60   20.30
 -11  -2   7   -7.90   13.50
 -11   3   7  265.77   43.60
 -11  -3   7  204.28   30.90
 -11   3  -7  171.88   29.90
  11   3   7  264.37   44.80
 -11  -3   7  150.38   29.60
 -11   3  -7  225.18   34.40
 -11   4   7  210.08   43.60
 -11   4  -7  205.28   33.70
  11   4   7  236.18   45.00
 -11  -4   7  252.27   35.20
 -11  -4   7  221.08   32.60
 -11   5   7  186.38   37.80
  11   5   7  165.38   41.50
 -11  -5   7  139.69   28.30
 -11  -5   7  150.18   28.70
 -11   6   7   23.20   30.10
 -11   6  -7  115.69   27.60
 -11  -6   7  105.19   30.60
  11   6   7   77.09   28.50
  11   0   8   -4.80   12.10
 -11   0   8    8.90   16.20
 -11  -1   8   65.49   19.80
 -11   1  -8   56.59   21.00
  11   1   8   85.19   22.90
 -11  -1   8   69.89   20.20
 -11   2   8   74.49   24.10
  11   2   8   83.49   27.30
 -11  -2   8   24.10   19.10
 -11   2  -8   34.60   17.60
 -11  -2   8   38.00   20.20
 -11   3   8   19.70   24.80
 -11  -3   8    8.60   18.10
 -11   3  -8    6.80   15.30
 -11   3  -8    7.80   14.50
  11   3   8   13.60   15.30
 -11  -3   8    4.10   15.70
 -11   4   8    6.80   24.90
 -11  -4   8    3.80   16.70
 -11  -4   8    1.60   18.80
 -11   4  -8    1.40   14.80
  11   4   8   23.80   22.10
 -11   5   8   33.60   16.30
 -11  -5   8   27.00   20.40
 -11  -5   8   46.20   25.20
 -11   5  -8   37.70   19.10
  11   5   8   70.19   27.20
 -11   6   8   -2.40   25.30
 -11  -6   8  -30.70   32.50
 -11  -6   8    6.00   21.80
  11   6   8   23.80   28.50
 -11   6  -8    4.70   17.40
 -11   0   9    1.90   13.50
  11   0   9    1.50   12.80
 -11   1   9   73.19   24.70
  11   1   9   82.09   24.40
 -11  -1   9   62.09   19.30
 -11  -1   9   73.59   25.20
 -11   1  -9   32.60   17.20
 -11   2   9  238.08   41.90
  11   2   9  259.87   40.80
 -11   2  -9  189.08   32.10
 -11  -2   9  251.37   31.80
 -11  -2   9  234.78   29.90
 -11   3   9   61.19   25.50
 -11   3  -9  113.69   25.30
 -11  -3   9   62.49   23.30
 -11   3  -9   55.69   21.30
 -11  -3   9   36.00   15.90
  11   3   9   70.49   25.80
 -11   4   9   71.59   27.00
  11   4   9   29.30   21.10
 -11   4  -9   76.89   22.80
 -11  -4   9   69.49   21.90
 -11   5   9   81.29   32.10
 -11   5  -9   97.29   22.60
  11   5   9   25.40   21.90
 -11  -5   9   99.89   27.80
 -11   0  10   13.80   18.50
  11   0  10   -2.20   14.60
 -11   1  10   18.10   17.30
 -11  -1  10    2.00   13.30
  11   1  10   10.10   15.30
 -11  -1  10   12.10   19.00
 -11   1 -10   25.20   18.00
 -11   2  10  137.39   32.70
  11   2  10  131.49   32.20
 -11   2 -10   98.39   23.90
 -11  -2  10  140.59   25.50
 -11  -2  10  104.19   23.00
 -11   3  10   48.70   27.70
 -11  -3  10    3.80   18.70
 -11   3 -10    3.70   22.80
 -11  -3  10    5.00   21.50
  11   3  10    2.10   19.10
 -11   3 -10   18.00   18.40
 -11   4  10   12.20   23.40
 -11   4 -10   17.30   19.50
 -11  -4  10   53.69   21.10
  11   4  10   50.39   24.70
 -11  -4  10  -23.70   19.70
 -11   4 -10   27.90   17.90
 -11   5 -10   29.40   17.30
  11   5  10    4.70   27.40
 -11  -5  10  -41.40   23.90
 -11   5 -10  -14.70   22.50
 -11  -5  10   13.70   18.70
  11   0  11   17.70   16.60
 -11   1  11   55.99   24.80
  11   1  11   69.79   17.70
 -11   1 -11   31.30   21.60
 -11  -1  11   36.40   18.20
 -11   2  11  112.69   22.60
 -11  -2  11  154.18   24.40
  11   2  11   93.29   29.20
 -11  -2  11   72.79   25.00
 -11   2 -11  108.99   26.10
 -11   3  11   82.39   32.30
 -11   3 -11  106.89   25.40
 -11  -3  11  128.19   22.80
  11   3  11  133.19   37.20
 -11   3 -11  106.39   26.00
 -11  -3  11  106.89   25.50
 -11   4  11  155.78   37.90
 -11   4 -11   76.59   26.40
 -11  -4  11  176.68   23.00
 -11   4 -11  147.39   26.30
 -11  -4  11  111.59   23.80
  11   4  11  140.79   35.30
 -11   0  12   34.90   21.20
  11   0  12   11.60   15.50
 -11   1  12   60.39   26.60
  11   1  12   43.30   18.60
 -11   1 -12   45.50   19.00
 -11  -1  12   -6.30   20.00
 -11   2  12   -6.50   18.90
 -11  -2  12   17.80   24.90
 -11  -2  12   -6.50   17.70
 -11   2 -12   27.00   20.50
  11   2  12    4.60   16.80
 -11   3  12   -6.00   20.00
 -11   3 -12  -13.60   20.40
 -11   3 -12  -30.50   15.30
 -11  -3  12  -12.60   20.80
  11   3  12    1.20   20.90
 -11  -3  12  -12.20   15.30
  11   0  13   21.90   20.90
 -11   0  13   20.20   19.70
 -11   1  13   13.10   21.60
  11   1  13   51.49   25.10
 -11  -1  13   45.80   21.80
 -11   1 -13   29.60   21.30
 -12   0   0   58.99   17.40
 -12   1   0  555.24   46.10
 -12  -1   0  556.64   44.70
 -12   2   0  571.54   48.40
  12   2   0  507.65   42.20
 -12   3   0  337.27   45.60
  12   4   0   46.90   18.60
 -12   4   0   36.90   19.50
 -12   5   0   35.00   19.90
  12   5   0    7.20   14.80
  12   6   0  228.08   34.60
 -12   6   0  193.98   40.50
  12   7   0   -5.00   22.90
 -12   7   0    2.60   19.50
 -12   0  -1  161.28   26.70
 -12   0   1  191.08   30.20
 -12   1   1  388.26   40.40
 -12  -1  -1  356.06   37.20
 -12   1  -1  345.67   46.10
 -12  -1   1  382.06   37.70
  12   2  -1   20.80   12.50
 -12   2   1   36.00   18.30
  12   2   1   11.70   14.40
 -12   2  -1   47.20   21.60
 -12   3   1   50.29   20.20
  12   3  -1   31.10   14.90
  12   3   1   33.30   16.20
 -12   4   1  -10.10   15.80
  12   4  -1    6.10   13.50
  12   4   1   -4.80   11.50
 -12   4  -1   29.40   17.80
  12   5  -1   49.40   17.60
 -12   5   1    3.40   19.90
 -12   5  -1   16.50   16.60
  12   5   1   42.00   21.30
  12   6  -1   17.00   17.50
 -12   6   1   -3.00   22.50
  12   6   1  -12.60   18.40
 -12   6  -1    1.90   16.00
  12   7  -1   25.00   21.90
 -12   7   1    0.30   18.90
 -12   7  -1   -5.60   22.90
  12   7   1   21.10   21.10
 -12   0   2  262.27   37.30
 -12   0  -2  207.88   31.10
 -12   1   2  528.75   46.60
 -12  -1   2  612.94   47.30
 -12  -1   2  671.33   49.70
 -12   1  -2  619.54   48.50
  12   1   2  624.74   45.50
 -12   2   2  281.97   40.00
 -12   2  -2  390.76   39.40
  12   2   2  248.68   33.40
 -12  -2   2  358.66   37.80
  12   3  -2  294.17   39.20
 -12   3   2  304.37   46.00
 -12   3  -2  245.38   46.50
  12   3   2  362.66   37.80
  12   4  -2    1.30   15.00
 -12   4   2   38.00   18.90
 -12   4  -2    8.10   15.20
  12   4   2   28.50   19.70
 -12   5   2    1.10   19.40
  12   5  -2    4.30   15.90
  12   5   2   20.10   20.30
 -12   5  -2    2.40   18.60
 -12   6   2  106.29   32.20
  12   6  -2   54.29   24.70
  12   6   2   67.99   27.00
 -12   6  -2   98.69   30.80
 -12   7   2   29.20   24.20
  12   7  -2   15.40   19.10
 -12   7  -2   -3.60   22.60
  12   7   2  -19.80   17.40
 -12   0   3  194.18   33.10
 -12   0  -3  192.58   31.30
 -12   1   3  152.08   31.20
 -12   1  -3  112.99   25.30
 -12  -1   3  160.58   25.60
  12   1   3  143.39   24.70
 -12  -1   3  104.99   23.60
 -12   2  -3   48.40   16.10
 -12  -2   3   17.30   16.30
  12   2   3   41.90   20.30
 -12   3   3   34.00   17.40
 -12   3  -3   46.60   20.30
 -12  -3   3    5.70   13.20
  12   3   3   28.90   15.10
 -12   4   3   20.30   19.80
  12   4   3    6.00   15.30
 -12   4  -3   14.50   15.00
  12   5  -3   14.80   14.00
 -12   5   3   35.50   21.10
  12   5   3    6.60   20.10
 -12   5  -3   22.10   21.40
 -12   6   3   19.10   25.00
  12   6  -3    4.80   15.90
 -12   6  -3   27.90   20.20
  12   6   3   22.90   22.70
  12   7  -3   16.10   19.10
 -12   7  -3  -37.50   19.70
  12   7   3   -7.40   20.40
 -12   0  -4  402.86   38.50
 -12   0   4  468.75   43.40
 -12   1   4  395.86   40.20
 -12   1  -4  446.86   40.90
  12   1   4  554.84   44.90
 -12  -1   4  420.96   42.10
 -12  -1   4  568.94   45.10
 -12   2   4  127.79   29.30
 -12  -2   4  151.18   27.90
  12   2   4  174.18   29.70
 -12  -2   4  150.28   31.60
 -12   2  -4  149.29   29.20
 -12   3   4  202.08   40.40
  12   3   4  197.78   34.80
 -12   3  -4  230.08   35.40
 -12  -3   4  230.58   40.60
  12   4  -4   22.00   15.80
 -12   4   4   37.30   23.10
 -12   4  -4   16.80   13.30
  12   4   4   26.60   17.90
 -12   5   4   44.40   23.30
  12   5  -4   22.00   17.40
  12   5   4   21.30   21.40
 -12   5  -4   21.30   22.30
 -12   6   4   27.70   24.40
  12   6  -4   59.49   25.30
  12   6   4   52.49   25.20
 -12   6  -4   25.10   21.00
 -12   7   4   19.40   32.70
  12   7  -4   38.10   21.20
 -12   7  -4  103.49   26.80
  12   7   4   59.79   33.20
 -12   0  -5    1.00   12.40
 -12   0   5   39.60   20.00
 -12   1   5   42.10   18.50
 -12  -1   5   58.89   18.90
 -12   1  -5   25.70   15.60
  12   1   5   49.50   27.40
 -12   2   5   23.60   17.30
 -12  -2   5   25.60   18.60
  12   2   5   35.40   14.50
 -12  -2   5   19.70   17.30
 -12   2  -5   43.10   20.70
 -12   3   5    9.70   20.70
 -12   3  -5   55.79   23.30
 -12  -3   5   68.79   22.70
  12   3   5   34.60   18.50
 -12   4   5   -7.20   18.60
 -12  -4   5   16.80   15.50
  12   4   5   14.90   20.80
 -12   4  -5    8.80   15.80
 -12   5   5   29.40   24.50
  12   5  -5   34.10   20.70
  12   5   5   42.00   22.40
 -12   5  -5   40.90   24.20
 -12   6   5   -8.90   19.90
  12   6  -5   21.20   17.10
 -12   6  -5   11.80   16.90
  12   6   5   -5.70   21.30
  12   0   6  217.88   31.20
 -12   0   6  239.58   38.10
  12   1   6  501.55   44.20
 -12  -1   6  530.35   46.00
 -12   1  -6  599.04   47.60
 -12   2   6   91.99   26.70
 -12   2  -6  114.89   28.60
 -12  -2   6  107.19   27.00
  12   2   6  126.29   23.50
 -12  -2   6  122.59   25.40
 -12   3   6   70.79   25.40
 -12  -3   6   69.99   23.80
 -12   3  -6   78.29   24.60
  12   3   6  128.29   30.40
 -12   4   6   23.20   21.20
 -12   4  -6   33.60   18.30
  12   4   6    6.60   20.20
 -12  -4   6   25.70   19.40
 -12   5   6    2.70   20.60
 -12  -5   6    2.30   20.50
  12   5   6   47.60   24.00
 -12   5  -6   21.90   19.80
 -12   6   6   23.80   26.90
 -12   6  -6   37.60   23.20
  12   6   6   28.20   27.40
 -12   0   7   43.70   21.00
  12   0   7   23.90   16.70
 -12   1   7   15.60   17.00
 -12  -1   7   65.29   23.20
 -12   1  -7   22.00   12.80
  12   1   7   42.70   21.30
 -12   2   7    9.40   19.40
 -12   2  -7   -1.50   16.20
 -12  -2   7  -19.30   15.00
  12   2   7   17.50   13.50
 -12  -2   7    7.70   14.40
 -12   3   7   82.59   25.20
 -12  -3   7    9.20   17.50
 -12   3  -7   11.40   14.70
 -12  -3   7    7.40   17.60
  12   3   7   42.20   19.40
 -12   4   7   35.10   17.50
 -12  -4   7   29.30   18.70
  12   4   7   27.00   22.60
 -12   4  -7   31.50   21.20
 -12   5   7    0.90   18.70
  12   5   7    7.40   20.30
 -12  -5   7  -16.30   16.70
 -12   5  -7    9.60   17.40
 -12   6   7   50.09   33.20
 -12   6  -7   61.09   26.40
  12   6   7   40.30   22.70
 -12  -6   7   70.59   45.40
 -12   0   8   75.69   27.10
  12   0   8  123.79   29.10
 -12   1   8  534.55   51.39
 -12  -1   8  505.35   45.40
  12   1   8  494.55   45.90
 -12   2   8  120.19   29.50
 -12  -2   8  123.69   26.10
 -12  -2   8   80.19   21.80
  12   2   8  131.39   30.60
 -12   2  -8   96.99   24.20
 -12   3   8   64.29   28.90
 -12  -3   8   91.09   21.70
 -12   3  -8   78.39   23.50
 -12  -3   8  110.39   27.60
  12   3   8   91.09   26.40
 -12   4   8  -16.20   17.80
 -12  -4   8   -7.60   21.50
  12   4   8    9.20   16.40
 -12  -4   8   12.80   18.40
 -12   5   8   14.50   23.90
 -12  -5   8    0.60   20.60
 -12   5  -8   33.50   22.60
  12   5   8   11.00   22.00
  12   0   9    2.00   12.30
 -12   1   9   -2.10   16.60
 -12  -1   9   -3.10   17.90
  12   1   9    7.20   15.30
 -12   1  -9   11.80   15.80
 -12   2   9   48.50   26.30
 -12  -2   9   25.60   14.60
 -12  -2   9    3.60   17.90
  12   2   9   37.00   21.70
 -12   3   9   98.89   32.40
  12   3   9   79.89   27.90
 -12   3  -9   17.70   16.00
 -12  -3   9   55.79   23.10
 -12  -3   9   49.40   22.70
 -12   4   9   46.30   27.20
 -12  -4   9  -16.30   23.20
  12   4   9    8.80   20.80
 -12   4  -9   -4.80   20.10
 -12  -4   9    8.90   22.00
 -12   5   9  -15.40   27.00
 -12   5  -9  -18.80   16.00
 -12  -5   9   24.30   21.90
 -12  -5   9   26.50   30.40
 -12   0  10  509.65   48.60
  12   0  10  447.16   43.80
 -12   1  10  240.48   40.30
 -12   1 -10  204.48   33.50
  12   1  10  240.48   39.70
 -12  -1  10  235.48   36.70
 -12   2  10    5.20   22.50
 -12   2 -10    4.10   17.90
 -12  -2  10   31.50   18.50
 -12  -2  10   -3.50   21.30
  12   2  10   35.70   19.50
 -12   3  10   44.20   21.80
  12   3  10   11.80   20.60
 -12   3 -10   11.30   19.70
 -12  -3  10   68.29   22.30
 -12  -3  10   49.99   25.80
 -12   4  10   15.30   21.30
 -12   4 -10  -11.10   19.50
 -12  -4  10   19.10   25.10
  12   4  10   33.50   29.30
 -12  -4  10   22.00   23.40
 -12   0  11   35.90   26.00
  12   0  11   24.00   19.20
 -12   1  11   24.00   20.80
  12   1  11   -8.20   12.10
 -12  -1  11   23.00   17.50
 -12   1 -11   43.40   19.20
 -12   2  11    3.50   19.50
  12   2  11    5.70   17.30
 -12  -2  11   -8.00   21.30
 -12   2 -11    1.40   16.30
 -12  -2  11    6.60   18.40
 -12   3  11   46.70   26.50
 -12  -3  11   -8.00   26.00
 -12  -3  11   -9.80   18.10
  12   3  11   23.60   20.40
 -12   3 -11   10.00   23.60
  12   0  12  128.29   30.80
 -12   0  12   80.39   26.30
 -12   1  12   68.69   25.60
 -12  -1  12  114.89   27.60
 -12   1 -12  124.19   30.10
  12   1  12  130.39   29.20
 -12   2  12   94.09   30.40
 -12   2 -12  123.09   29.70
 -12  -2  12   75.69   30.90
 -12  -2  12   86.39   25.80
  12   2  12  108.69   33.10
 -13   0   0    9.90   12.80
 -13  -1   0   88.79   24.20
 -13   1   0  113.19   28.20
  13   2   0  194.48   41.30
 -13   2   0  161.08   33.90
  13   3   0  126.39   27.70
 -13   3   0  127.29   30.60
 -13   4   0   33.00   21.80
  13   4   0   37.00   17.60
  13   5   0    1.90   16.10
 -13   5   0   -3.40   17.30
 -13   6   0   41.90   21.80
  13   6   0   78.79   25.50
  13   7   0  138.79   35.60
 -13   7   0   56.09   28.00
 -13   0   1   -5.10   10.50
 -13   0  -1    3.60   13.40
 -13   1   1   80.29   25.10
 -13  -1  -1   54.79   21.30
 -13   1  -1   69.39   19.30
 -13  -1   1   64.09   20.10
 -13   2   1   41.70   20.70
 -13   2  -1   32.60   19.90
 -13  -2   1   90.99   25.60
  13   2   1   43.20   18.50
 -13   3   1  180.18   35.70
  13   3  -1  178.28   29.60
  13   3   1  239.58   37.50
 -13   3  -1  192.68   36.70
 -13   4   1  323.97   50.89
  13   4  -1  199.68   33.30
 -13   4  -1  315.57   46.10
  13   4   1  381.26   46.90
  13   5  -1   80.39   25.60
 -13   5   1   89.19   26.10
 -13   5  -1   78.49   25.60
  13   5   1   80.39   24.50
 -13   6   1   51.79   31.90
  13   6  -1   32.70   22.70
 -13   6  -1   53.59   23.50
  13   6   1   57.29   22.90
  13   7  -1   18.40   22.10
 -13   7   1  -22.10   21.50
  13   7   1   22.00   21.30
 -13   7  -1   56.99   31.20
 -13   0  -2    8.40   10.50
 -13   0   2    3.40   14.30
 -13   1   2  110.99   45.80
 -13   1  -2   81.59   25.10
 -13  -1   2   74.39   21.60
 -13   2   2   66.99   24.40
 -13  -2   2   57.89   21.00
  13   2   2   43.70   18.00
 -13   2  -2   70.09   23.70
  13   3  -2   57.29   21.20
 -13   3   2   64.79   22.80
  13   3   2   66.19   22.10
 -13   3  -2   71.39   24.20
 -13   4   2   45.70   23.10
  13   4  -2   33.10   18.50
  13   4   2   12.80   15.40
 -13   4  -2   35.00   23.70
 -13   5   2  116.29   36.30
  13   5  -2  110.09   29.70
  13   5   2  135.09   32.60
 -13   5  -2   94.49   33.70
 -13   6   2  -12.10   20.70
  13   6  -2   42.50   21.80
  13   6   2   16.70   22.40
 -13   6  -2   60.09   28.30
  13   7  -2   12.20   22.10
 -13   7   2   27.90   29.50
 -13   7  -2   62.69   25.70
  13   7   2   45.70   39.20
 -13   0  -3   -7.70   23.70
 -13   0   3   24.90   18.90
 -13   1   3  155.08   43.50
  13   1   3  111.59   24.20
 -13  -1   3  122.79   27.30
 -13   1  -3  210.58   41.40
 -13   2   3  181.68   33.70
  13   2   3  136.19   29.80
 -13   2  -3  181.18   38.40
 -13  -2   3  158.48   31.60
 -13   3   3   73.99   24.80
  13   3   3   37.80   21.40
 -13   3  -3    5.40   14.50
 -13   4   3   27.70   19.30
  13   4  -3   58.99   19.80
 -13   4  -3   35.80   20.80
  13   4   3   26.30   17.20
 -13   5   3  121.19   34.40
  13   5  -3   79.79   25.30
 -13   5  -3  132.79   32.40
  13   5   3  125.09   31.40
  13   6  -3   78.29   25.40
 -13   6   3  156.08   43.20
 -13   6  -3  151.38   35.90
  13   6   3  160.88   39.60
 -13   0  -4   17.20   16.90
 -13   0   4   -9.80   12.60
 -13   1   4   63.49   19.90
 -13  -1   4   51.89   21.50
  13   1   4   59.09   20.50
 -13   2   4   53.59   22.70
 -13  -2   4   39.90   20.20
  13   2   4   41.10   19.10
 -13   2  -4   62.99   26.60
 -13   3   4  242.38   42.90
 -13   3  -4  264.27   39.60
 -13  -3   4  217.78   37.50
  13   3   4  288.47   43.90
 -13   4   4    5.50   20.80
  13   4   4   36.60   19.00
 -13   4  -4   34.00   20.10
 -13  -4   4   20.10   20.40
  13   5  -4   27.90   19.70
 -13   5   4   76.09   31.10
  13   5   4   39.40   27.10
 -13   5  -4   22.10   21.80
 -13   6   4   26.20   25.10
  13   6  -4   26.60   20.30
 -13   6  -4   55.69   25.50
  13   6   4   54.49   25.80
 -13   0   5   21.20   16.40
 -13   0  -5    3.20   15.20
 -13   1   5   76.79   27.40
 -13   1  -5   90.29   28.60
 -13  -1   5   46.80   21.20
  13   1   5   66.79   19.90
 -13   2   5  100.39   25.50
 -13  -2   5  106.59   27.30
 -13   2  -5  165.58   34.30
  13   2   5  130.79   28.00
 -13   3   5  187.38   40.10
 -13  -3   5  182.88   33.70
  13   3   5  280.47   42.00
 -13   3  -5  168.18   32.40
 -13   4   5   96.09   32.70
 -13  -4   5  187.78   34.60
  13   4   5  131.59   31.40
 -13   4  -5   81.79   25.60
 -13   5   5   59.69   27.70
 -13  -5   5   61.79   25.20
 -13   5  -5   52.09   24.20
  13   5   5   70.09   29.20
  13   6  -5    9.30   19.40
 -13   6   5   20.90   29.50
  13   6   5   65.99   33.30
 -13   6  -5   48.60   23.10
 -13   0  -6    9.40   14.30
 -13   0   6   10.70   27.20
 -13   1   6   43.60   22.10
 -13  -1   6   24.20   19.30
 -13   1  -6   54.69   21.70
  13   1   6   24.80   17.50
 -13   2   6  129.09   30.60
 -13  -2   6   46.90   20.20
 -13   2  -6   40.50   23.70
  13   2   6   59.89   21.70
 -13   3   6   49.20   22.30
 -13   3  -6   76.19   24.80
 -13  -3   6   65.09   22.60
  13   3   6   28.80   19.90
 -13   4   6   64.19   29.70
 -13   4  -6  121.19   26.50
 -13  -4   6   81.09   27.80
  13   4   6   82.99   28.70
 -13   5   6   86.29   32.00
 -13  -5   6   51.79   24.20
  13   5   6  108.49   35.70
 -13   5  -6   94.49   27.40
 -13   6   6  -19.40   19.50
 -13  -6   6    4.10   28.30
  13   6   6    3.90   25.40
 -13   6  -6    4.70   20.90
 -13   0   7   12.40   19.70
 -13   1   7   44.80   23.10
  13   1   7   66.79   25.30
 -13   1  -7   95.09   22.30
 -13  -1   7   40.90   21.50
 -13   2   7    6.60   21.30
 -13   2  -7   49.70   22.40
  13   2   7   -2.00   19.00
 -13  -2   7   28.50   19.00
 -13   3   7  113.99   29.40
 -13   3  -7   59.09   22.30
 -13  -3   7   74.49   26.00
  13   3   7  128.39   29.00
 -13   4   7  229.18   38.30
  13   4   7  296.87   48.30
 -13   4  -7  355.06   48.90
 -13  -4   7  179.08   36.20
 -13   5   7  117.49   39.80
 -13  -5   7  178.38   38.60
 -13   5  -7  124.19   27.00
  13   5   7  178.18   44.80
 -13   0   8  -12.60   17.50
  13   0   8    1.10   17.00
 -13   1   8   21.20   20.60
 -13  -1   8    8.20   23.30
 -13   1  -8   11.80   14.70
  13   1   8   28.70   20.00
 -13   2   8   22.20   22.50
 -13   2  -8   40.70   17.00
 -13  -2   8   43.30   20.80
  13   2   8   20.30   21.80
 -13   3   8   33.10   22.70
 -13  -3   8    8.60   17.50
  13   3   8   52.89   24.70
 -13   3  -8    0.40   16.30
 -13   4   8  116.29   34.90
  13   4   8  152.28   32.80
 -13   4  -8  120.29   29.80
 -13  -4   8   44.70   22.50
 -13   5   8   48.00   21.90
 -13  -5   8   43.20   25.90
  13   5   8  199.78   71.99
 -13   5  -8   -9.30   22.90
  13   0   9  -13.10   14.30
 -13   0   9    3.80   20.20
 -13   1   9   13.80   20.40
  13   1   9   11.00   20.40
 -13   1  -9    6.50   15.90
 -13   2   9   56.19   25.00
  13   2   9   62.29   26.90
 -13   2  -9   53.19   24.60
 -13  -2   9   83.99   26.90
 -13   3   9  116.09   37.20
 -13  -3   9   56.79   21.10
  13   3   9  122.29   32.90
 -13   3  -9   36.70   18.80
 -13   4   9  116.69   37.90
 -13   4  -9  113.89   28.60
  13   4   9  175.28   37.90
 -13  -4   9  108.79   31.90
  13   0  10    2.90   14.50
 -13   0  10   16.00   20.40
 -13   1  10  118.99   28.80
 -13  -1  10   86.59   26.50
 -13   1 -10  109.69   30.10
  13   1  10  122.49   32.30
 -13   2  10   28.70   23.30
 -13   2 -10   23.70   14.80
  13   2  10   -6.00   17.00
 -13  -2  10   16.40   20.40
 -13   3  10   12.60   25.20
 -13  -3  10   35.60   20.90
 -13   3 -10  -12.80   17.90
  13   3  10   -2.10   16.70
 -13   4  10   47.70   22.50
  13   4  10  132.79   38.30
 -13  -4  10    0.30   33.60
 -13   4 -10  122.59   28.70
 -13  -4  10   93.19   31.30
 -13   0  11   -9.70   16.60
 -13   1  11   87.49   29.50
 -13   1 -11   48.40   22.00
 -13  -1  11   74.39   27.30
  13   1  11   59.79   22.10
 -13   2  11   59.59   26.40
 -13  -2  11   92.79   25.80
 -13   2 -11   34.10   24.80
  13   2  11   61.69   28.20
 -13   3  11   52.29   26.90
 -13   3 -11   21.70   20.80
  13   3  11   54.99   28.00
 -13  -3  11   39.20   25.40
 -13  -3  11    1.60   40.70
 -13   0  12  -11.40   18.70
 -13   1  12   47.00   27.70
 -13   1 -12   34.20   22.50
  13   1  12    9.80   22.70
 -13  -1  12  -30.20   19.50
 -14   0   0   79.89   22.10
 -14  -1   0    5.90   12.20
 -14   1   0    9.50   18.10
 -14  -2   0  189.38   34.50
 -14   2   0  182.48   36.20
  14   3   0   24.10   17.10
 -14   3   0    4.40   18.70
  14   4   0   60.89   20.20
 -14   4   0   87.79   31.20
 -14   5   0   24.10   25.10
  14   5   0  -12.80   15.80
 -14   6   0   18.30   18.80
  14   6   0   19.40   21.20
 -14   0  -1  281.77   42.20
 -14   0   1  245.38   38.50
 -14  -1  -1  405.56   42.00
 -14   1   1  429.36   44.40
 -14   1  -1  404.66   43.50
 -14  -1   1  326.67   44.90
 -14   2   1  106.39   31.90
 -14  -2   1  113.59   29.20
  14   2   1  106.39   25.20
 -14   2  -1   75.49   23.80
  14   3  -1   36.40   17.00
 -14   3   1   31.50   23.60
  14   3   1   85.99   27.60
 -14   3  -1   65.29   23.50
  14   4  -1   43.00   20.40
 -14   4   1    0.30   20.20
 -14   4  -1    9.70   19.30
  14   4   1   26.90   20.00
 -14   5   1    0.20   24.80
  14   5  -1   -4.30   14.90
 -14   5  -1   28.20   21.20
  14   5   1   26.50   22.10
  14   6  -1    2.70   17.60
 -14   6   1  -21.80   21.20
  14   6   1    9.60   16.40
 -14   6  -1    2.90   19.10
 -14   0  -2   88.49   23.90
 -14   0   2   63.29   22.60
 -14  -1  -2  119.59   26.70
 -14   1   2   77.19   24.20
 -14   1  -2   94.49   25.20
 -14  -1   2   95.09   27.30
 -14   2   2  129.39   31.60
  14   2   2  166.68   31.20
 -14   2  -2  183.68   34.20
 -14  -2   2  149.09   31.80
 -14   3   2   46.30   20.00
 -14   3  -2   33.20   19.80
  14   3   2   -0.30   14.80
 -14  -3   2   -4.50   16.50
  14   4  -2   31.00   20.40
 -14   4   2   20.90   24.00
  14   4   2   40.80   20.00
 -14   4  -2   36.40   24.20
  14   5  -2   13.50   18.40
 -14   5   2   19.60   24.80
  14   5   2   -2.20   14.40
 -14   5  -2    7.50   20.10
 -14   6   2   18.80   23.90
  14   6  -2  -20.60   16.20
  14   6   2    7.50   24.60
 -14   6  -2   29.20   20.70
 -14   0  -3  670.63   54.59
 -14   0   3  590.94   51.69
 -14   1   3  471.95   48.50
 -14   1  -3  535.65   48.90
 -14  -1   3  493.85   47.90
  14   1   3  502.55   46.60
 -14   2   3  103.79   28.50
  14   2   3   51.49   20.30
 -14   2  -3  136.59   31.90
 -14  -2   3  103.59   27.40
 -14   3   3   50.19   23.80
  14   3   3  131.59   28.60
 -14  -3   3  136.29   29.40
 -14   3  -3  247.08   40.20
  14   4  -3   13.80   18.70
 -14   4   3    8.70   20.20
  14   4   3    6.70   16.60
 -14   4  -3   19.30   19.40
  14   5  -3   29.80   19.30
 -14   5   3   39.20   19.90
  14   5   3   14.50   21.30
 -14   5  -3   13.80   23.10
  14   6  -3   27.60   21.90
 -14   6   3   -1.70   19.80
  14   6   3   23.30   21.60
 -14   6  -3   23.80   22.30
 -14   0   4  455.55   48.40
 -14   0  -4  634.34   52.19
 -14   1   4  191.28   36.20
  14   1   4  168.28   29.90
 -14  -1   4  178.48   35.70
 -14   1  -4  193.18   34.10
 -14   2   4   67.09   25.50
 -14   2  -4   62.39   24.90
 -14  -2   4   35.60   20.90
  14   2   4   48.70   21.30
 -14   3   4   16.70   18.30
  14   3   4   22.30   17.10
 -14   3  -4   30.50   21.20
 -14  -3   4   35.40   18.20
 -14   4   4   -3.60   19.40
 -14  -4   4   53.89   28.50
  14   4   4   29.40   20.50
 -14   4  -4   49.99   23.10
 -14   5   4   40.50   25.30
  14   5  -4    1.60   19.10
 -14   5  -4   23.80   25.40
  14   5   4   23.10   19.80
  14   6  -4   11.40   20.10
 -14   6   4   58.59   44.80
  14   6   4    9.70   26.10
 -14   0   5  216.88   36.70
 -14   0  -5  211.78   37.90
 -14   1   5  102.89   29.30
  14   1   5  128.29   27.50
 -14   1  -5  112.19   30.30
 -14  -1   5  107.49   32.00
 -14   2   5  147.89   34.50
  14   2   5  175.88   37.70
 -14   2  -5  147.69   32.60
 -14  -2   5  133.69   30.20
 -14   3   5  145.59   36.30
 -14  -3   5   90.29   26.30
  14   3   5   64.59   25.10
 -14   3  -5   80.69   27.90
 -14   4   5   73.69   30.60
  14   4   5   46.30   23.30
 -14  -4   5   47.70   22.30
 -14   4  -5   58.39   24.70
 -14   5   5   16.00   23.40
 -14   5  -5   93.99   27.40
 -14  -5   5   99.29   30.00
  14   5   5   59.59   32.30
 -14   6   5   46.80   27.40
 -14   6  -5   55.39   24.90
  14   6   5   28.90   26.90
 -14   0  -6  229.18   37.50
 -14   0   6  215.88   35.70
 -14   1   6   79.49   27.50
 -14   1  -6   72.39   25.00
 -14  -1   6   98.19   27.30
  14   1   6  114.69   28.60
 -14   2   6  125.79   33.50
  14   2   6  181.78   36.90
 -14   2  -6  168.68   34.20
 -14  -2   6  192.98   34.50
 -14   3   6   15.20   17.60
 -14   3  -6   -5.30   16.90
 -14  -3   6    3.90   17.30
  14   3   6   12.60   18.40
 -14   4   6   62.49   23.30
 -14  -4   6   18.00   20.00
 -14   4  -6   59.69   23.70
  14   4   6   19.30   18.40
 -14   5   6   44.40   28.80
 -14   5  -6   51.09   28.70
 -14  -5   6   18.40   23.20
  14   5   6   70.89   29.30
 -14   0  -7  145.69   32.10
 -14   0   7   64.69   25.60
 -14   1   7   53.99   25.80
  14   1   7   96.59   25.90
 -14   1  -7   42.80   22.60
 -14  -1   7   27.00   23.00
 -14   2   7  156.18   36.20
 -14  -2   7  186.38   35.70
 -14   2  -7  181.18   34.20
  14   2   7  198.18   39.20
 -14   3   7  204.08   43.80
  14   3   7  209.38   38.10
 -14   3  -7  202.98   33.70
 -14  -3   7  215.78   39.40
 -14   4   7   56.89   29.20
 -14   4  -7   72.89   27.90
  14   4   7   77.89   26.30
 -14  -4   7   67.69   30.60
 -14   5   7    6.90   26.70
 -14   5  -7   10.90   22.50
 -14  -5   7   10.50   24.40
 -14   0  -8  163.98   33.60
 -14   0   8  148.39   34.80
 -14   1   8   18.40   21.40
 -14   1  -8   16.80   17.30
  14   1   8   14.50   19.40
 -14  -1   8   25.00   22.80
 -14   2   8  129.89   34.10
 -14  -2   8  180.68   35.80
 -14   2  -8  158.08   29.10
  14   2   8  163.38   34.60
 -14   3   8   60.89   26.50
 -14   3  -8   41.20   24.60
 -14  -3   8   78.69   27.80
  14   3   8   23.90   18.50
 -14   4   8   32.80   27.40
 -14  -4   8   15.70   22.20
 -14   4  -8   37.70   23.20
  14   4   8   43.20   24.10
 -14   5   8    7.90   25.30
 -14   5  -8   19.50   24.60
 -14  -5   8   -0.80   30.40
  14   5   8    3.80   24.90
 -14   0  -9  130.59   35.10
 -14   0   9  146.59   32.40
 -14   1   9  146.79   33.20
 -14   1  -9  193.18   35.00
 -14  -1   9  166.48   35.10
  14   1   9  203.98   35.70
 -14   2   9   70.89   28.90
 -14  -2   9   59.79   25.90
 -14   2  -9   92.49   24.90
  14   2   9   31.70   21.10
 -14   3   9  -27.80   21.30
 -14   3  -9    7.30   19.20
  14   3   9   58.09   24.80
 -14   4   9  -22.90   20.80
  14   4   9   -9.00   20.60
 -14   4  -9   15.30   22.10
 -14   0  10  289.47   44.20
 -14   0 -10  227.38   42.00
 -14   1  10   48.70   25.50
 -14   1 -10   52.19   23.40
  14   1  10   35.50   24.30
 -14  -1  10   38.50   21.70
 -14   2  10   67.69   29.10
  14   2  10   78.99   27.70
 -14   2 -10   97.19   26.80
 -14  -2  10    2.90   24.90
 -14   3  10   16.80   27.20
 -14  -3  10   61.29   32.10
 -14   3 -10   22.40   22.90
  14   3  10   26.70   21.00
 -14   0 -11  126.89   29.50
 -14   0  11   84.49   28.10
 -14   1  11    5.80   21.70
  14   1  11   39.70   20.40
 -14  -1  11   66.09   23.50
 -14   1 -11   58.39   23.90
 -14   2  11   74.19   31.70
  14   2  11   39.10   24.10
 -14  -2  11   34.30   26.50
 -14   2 -11   45.80   23.90
 -15   0   0   -5.30   14.20
 -15   1   0  265.77   41.30
 -15  -1   0  245.18   37.70
 -15   2   0  286.17   48.20
 -15  -2   0  261.57   42.40
 -15   3   0  233.68   42.00
  15   3   0  360.06   46.80
  15   4   0  109.99   32.10
 -15   4   0   65.49   24.10
  15   5   0   34.30   22.50
 -15   5   0   72.29   31.10
 -15   6   0   34.30   20.60
  15   6   0   43.40   19.90
 -15   0  -1   12.70   16.20
 -15   0   1   32.40   21.10
 -15  -1  -1  365.56   50.09
 -15   1   1  281.37   43.40
 -15   1  -1  337.37   48.20
 -15  -1   1  364.26   50.09
 -15   2   1   18.00   23.10
 -15   2  -1   46.00   24.80
 -15  -2   1   28.90   17.90
  15   2   1   12.30   15.00
 -15   3   1  118.19   35.20
  15   3  -1   95.79   27.30
 -15   3  -1   71.29   21.30
  15   3   1   84.69   24.10
 -15   4   1  -13.50   16.10
  15   4  -1   11.00   18.00
 -15   4  -1    8.80   17.80
  15   4   1   27.40   20.00
 -15   5   1  -33.70   18.70
  15   5  -1   35.10   17.60
 -15   5  -1   16.00   18.20
  15   5   1   41.70   23.00
  15   6  -1   18.30   21.80
 -15   6   1   -6.00   20.80
  15   6   1   12.70   22.00
 -15   6  -1   83.19   27.70
 -15   0   2    6.00   19.80
 -15   0  -2  -15.70   12.90
 -15   1   2  228.08   42.80
 -15  -1  -2  222.38   36.50
 -15   1  -2  220.08   38.20
 -15  -1   2  219.48   38.40
 -15   2   2  310.37   47.90
  15   2   2  218.48   36.40
 -15  -2   2  277.47   42.10
 -15   2  -2  237.18   43.80
 -15   3   2   75.29   26.70
 -15  -3   2  145.79   33.40
  15   3   2  135.69   33.00
 -15   3  -2  164.88   34.40
  15   4  -2  169.18   32.60
 -15   4   2  135.09   33.20
 -15   4  -2  209.88   47.40
  15   4   2  154.98   34.10
  15   5  -2   74.79   26.20
 -15   5   2   70.89   26.90
  15   5   2   70.19   29.00
 -15   5  -2   71.19   28.00
 -15   6   2  106.39   41.30
  15   6  -2  108.99   34.20
 -15   6  -2  102.09   31.90
  15   6   2   57.09   22.50
 -15   0  -3    1.00   14.20
 -15   0   3   -1.30   13.20
 -15  -1  -3  106.19   27.00
 -15   1   3   87.99   25.70
 -15   1  -3   86.29   28.00
 -15  -1   3  136.29   29.50
 -15   2   3   72.99   30.50
 -15  -2   3  118.59   30.60
  15   2   3  158.78   33.10
 -15   2  -3  113.99   31.00
 -15   3   3   61.09   28.30
 -15   3  -3   49.50   25.40
  15   3   3   48.80   19.90
 -15  -3   3   59.59   21.90
 -15   4   3  -12.10   25.00
 -15   4  -3  -23.90   19.20
 -15  -4   3   27.50   24.40
  15   4   3  -13.50   17.20
 -15   5   3   -2.50   18.90
  15   5  -3    0.70   18.10
 -15   5  -3   53.89   26.50
  15   5   3   16.20   25.00
  15   6  -3  -12.50   23.70
 -15   6   3   21.60   30.30
 -15   6  -3   59.59   32.40
 -15   0   4   -8.10   17.10
 -15   0  -4   -2.60   15.50
 -15  -1  -4   50.49   21.10
 -15   1   4   14.30   16.20
 -15   1  -4   -0.50   16.40
 -15  -1   4  -11.20   19.80
 -15   2   4   90.69   31.30
  15   2   4   51.29   19.30
 -15   2  -4   48.70   25.20
 -15  -2   4   94.09   29.10
 -15   3   4   12.90   22.10
 -15   3  -4   11.70   16.00
  15   3   4   16.40   17.40
 -15  -3   4   -7.50   16.90
 -15   4   4  154.28   39.60
  15   4   4  174.28   37.70
 -15   4  -4  182.08   40.00
 -15  -4   4  230.48   44.50
 -15   5   4  163.48   38.90
 -15   5  -4  113.69   36.30
 -15  -5   4   74.69   31.40
  15   5   4  114.49   30.80
 -15   6   4  141.29   41.90
  15   6  -4  121.29   27.70
  15   6   4  205.28   44.00
 -15   6  -4  153.38   33.90
 -15   0  -5    6.30   14.60
 -15   0   5   -5.90   15.50
 -15   1   5   63.89   29.00
  15   1   5   55.09   20.50
 -15  -1   5   55.69   25.00
 -15   1  -5   71.19   26.50
 -15   2   5    6.60   19.00
  15   2   5  -26.40   15.50
 -15  -2   5   26.30   20.20
 -15   2  -5    7.80   20.40
 -15   3   5   45.10   23.00
 -15  -3   5   15.80   18.80
  15   3   5   27.70   19.30
 -15   3  -5    4.70   17.20
 -15   4   5   45.60   28.60
  15   4   5   23.10   21.50
 -15  -4   5    1.60   19.50
 -15   4  -5   21.60   22.80
 -15   5   5   20.10   23.20
 -15   5  -5   -1.10   18.30
 -15  -5   5   31.00   26.50
  15   5   5   44.30   27.60
 -15   0   6   -7.50   17.10
 -15   0  -6  -13.50   14.70
 -15   1   6   19.40   23.70
 -15  -1   6   11.60   20.10
 -15   1  -6   32.10   19.60
  15   1   6   56.09   19.30
 -15   2   6   51.39   22.90
  15   2   6   98.19   26.80
 -15  -2   6   89.29   29.40
 -15   2  -6   15.90   20.60
 -15   3   6  238.08   41.80
 -15  -3   6  242.18   40.20
 -15   3  -6  171.38   35.40
  15   3   6  297.87   51.79
 -15   4   6  110.09   32.50
  15   4   6  174.58   39.20
 -15   4  -6   83.29   29.70
 -15  -4   6   42.10   23.80
 -15   5  -6  137.59   36.70
 -15  -5   6   92.09   35.10
 -15   0  -7   -4.50   12.60
 -15   0   7   -0.40   21.20
 -15   1   7    8.90   19.20
 -15  -1   7   25.30   20.90
  15   1   7   24.10   23.30
 -15   1  -7    4.70   17.70
 -15   2   7   22.50   29.10
 -15   2  -7    2.10   19.70
  15   2   7   31.00   22.30
 -15  -2   7   24.80   21.80
 -15   3   7   15.70   25.70
  15   3   7   20.40   14.60
 -15   3  -7   36.60   20.30
 -15  -3   7  -11.60   21.80
 -15   4   7   52.59   23.30
 -15   4  -7   52.19   26.30
 -15  -4   7   42.10   27.40
  15   4   7   51.89   30.30
 -15   5   7   12.90   28.50
 -15  -5   7   63.59   30.10
 -15   5  -7   30.80   25.60
  15   5   7   25.30   25.90
 -15   0  -8    3.90   17.50
 -15   0   8    8.50   19.40
 -15   1   8   32.40   22.60
  15   1   8   34.20   24.50
 -15  -1   8    3.70   19.70
 -15   1  -8   37.10   24.30
 -15   2   8   62.39   30.80
 -15  -2   8   59.29   29.10
 -15   2  -8   31.60   22.30
  15   2   8   13.20   22.00
 -15   3   8  105.29   35.60
 -15   3  -8  143.19   35.60
  15   3   8  139.49   35.40
 -15  -3   8  158.18   35.30
 -15   4   8  112.19   37.70
 -15   4  -8  185.58   37.40
 -15  -4   8  117.69   35.10
  15   4   8  149.59   38.00
 -15   0   9   13.60   21.00
 -15   0  -9   -5.30   16.30
 -15   1   9   -8.80   19.90
 -15   1  -9    8.10   23.10
  15   1   9   23.00   18.90
 -15  -1   9   52.89   27.90
 -15   2   9   46.70   30.10
  15   2   9    3.30   22.90
 -15  -2   9   46.00   29.80
 -15   2  -9   52.79   23.30
 -15   3   9   21.40   24.00
 -15  -3   9   49.50   28.20
 -15   3  -9   -6.20   18.70
  15   3   9   64.99   30.70
 -15   0  10   15.50   27.90
 -15   0 -10   22.50   18.40
 -15   1  10   35.90   25.80
  15   1  10    3.10   15.50
 -15   1 -10  -11.00   21.00
 -15  -1  10    0.60   23.20
 -15   2  10   71.59   31.80
  15   2  10   75.99   33.10
 -15  -2  10   26.20   27.20
 -15   2 -10   21.00   24.10
 -15   0 -11   -9.60   19.20
 -15   0  11    3.30   24.00
 -15   1  11   10.20   23.30
 -15  -1  11  -20.60   20.80
 -15   1 -11   24.70   22.50
  15   1  11    7.10   24.30
 -16   0   0   96.69   28.30
 -16  -1   0  255.77   43.00
 -16   1   0  210.88   38.60
 -16  -2   0   14.70   20.50
 -16   2   0    3.00   18.20
 -16   3   0   19.20   22.40
  16   3   0   26.70   21.50
  16   4   0   28.50   21.40
 -16   4   0   43.60   23.60
  16   5   0   20.80   20.30
 -16   5   0  -16.40   20.10
  16   6   0    0.70   20.00
 -16   0   1  561.34   54.39
 -16   0  -1  651.13   59.19
 -16  -1  -1   81.69   25.50
 -16   1   1  195.88   41.80
 -16  -1   1  178.78   37.90
 -16   1  -1  104.09   30.80
 -16  -2  -1  152.58   35.70
 -16   2   1  192.08   39.70
 -16   2  -1  126.79   33.50
 -16  -2   1  175.98   36.90
 -16   3   1  260.07   43.70
 -16   3  -1  274.97   47.30
  16   3   1  162.38   37.00
 -16  -3   1  234.98   44.50
  16   4  -1   11.90   16.80
 -16   4   1    5.70   22.10
 -16   4  -1   75.59   27.40
  16   4   1   60.29   23.00
  16   5  -1   75.69   26.50
 -16   5   1   98.79   29.80
  16   5   1   49.60   24.60
 -16   5  -1   65.59   30.80
  16   6  -1   21.20   25.20
 -16   6   1   11.60   27.60
  16   6   1   -7.50   38.90
 -16   6  -1   59.99   29.00
 -16   0   2  193.68   42.30
 -16   0  -2   92.19   31.30
 -16   1   2  107.79   31.20
 -16  -1  -2   80.39   26.60
 -16  -1   2   52.29   23.60
 -16   1  -2   46.50   23.80
 -16   2   2   -8.30   18.60
  16   2   2    3.00   13.60
 -16  -2   2   23.80   19.00
 -16   2  -2   23.50   15.40
 -16   3   2  -13.50   20.10
  16   3   2   18.60   20.90
 -16  -3   2   38.50   24.10
 -16   3  -2   34.50   19.90
  16   4  -2   23.60   18.80
 -16   4   2   63.29   30.60
 -16   4  -2   25.40   22.40
  16   4   2   17.90   18.90
 -16   5   2   15.90   28.80
  16   5  -2   21.50   20.70
  16   5   2   55.99   27.50
 -16   5  -2   60.39   27.90
 -16   0  -3  225.18   40.90
 -16   0   3  302.97   46.70
 -16  -1  -3  372.66   51.19
 -16   1   3  306.37   53.19
 -16   1  -3  239.18   42.30
 -16  -1   3  216.78   37.40
 -16   2   3  290.57   47.30
  16   2   3  191.38   37.40
 -16   2  -3  398.76   56.89
 -16  -2   3  235.08   40.80
 -16   3   3   17.10   23.30
 -16   3  -3   43.30   24.50
 -16  -3   3   45.40   22.70
  16   3   3   37.90   19.60
 -16   4   3   55.79   27.70
  16   4   3   38.50   22.20
 -16   4  -3   49.20   23.60
 -16  -4   3   14.40   20.80
 -16   5   3    5.90   22.60
  16   5  -3   -5.60   18.20
 -16   5  -3   22.10   22.70
  16   5   3  -26.30   18.80
 -16   0  -4   96.59   31.20
 -16   0   4  100.89   29.50
 -16   1   4   -6.70   20.40
 -16  -1  -4  -11.90   18.70
 -16   1  -4   -3.40   18.30
 -16  -1   4    3.30   16.80
 -16   2   4   27.80   24.80
  16   2   4   24.30   20.60
 -16  -2   4   15.00   20.20
 -16   2  -4   34.60   21.50
 -16   3   4   38.40   25.60
  16   3   4   95.79   27.50
 -16  -3   4   17.30   23.10
 -16   3  -4   49.80   27.00
 -16   4   4   17.00   22.70
 -16  -4   4   41.50   27.60
  16   4   4    0.30   20.60
 -16   4  -4   26.70   20.10
 -16   5   4   28.30   30.10
 -16  -5   4    1.30   25.90
 -16   5  -4   31.30   23.20
  16   5   4   18.10   27.30
 -16   0   5  424.46   58.19
 -16   0  -5  501.25   52.09
 -16   1   5  131.29   35.60
 -16  -1  -5  223.18   44.50
 -16  -1   5  221.48   40.10
 -16   1  -5  206.08   36.60
 -16   2   5  186.88   35.60
 -16   2  -5  195.88   40.90
 -16  -2   5  109.29   33.30
  16   2   5  180.58   40.80
 -16   3   5  132.69   37.70
 -16  -3   5  151.78   34.40
 -16   3  -5   88.09   28.20
  16   3   5   77.59   27.80
 -16   4   5   36.00   28.90
 -16   4  -5  102.69   31.70
  16   4   5    6.10   22.60
 -16  -4   5   81.49   30.10
 -16   5   5   -8.30   26.50
 -16   5  -5  -37.00   21.90
 -16  -5   5   10.30   27.70
  16   5   5   -0.20   21.40
 -16   0  -6   82.59   28.60
 -16   0   6   28.00   21.50
 -16   1   6   28.40   24.90
 -16  -1   6   49.20   24.20
 -16   1  -6   30.20   23.20
  16   1   6   54.89   22.30
 -16   2   6   16.70   22.70
 -16  -2   6   41.60   25.80
  16   2   6   50.39   22.10
 -16   2  -6    8.30   23.40
 -16   3   6  -13.60   23.40
 -16  -3   6    5.20   22.30
  16   3   6   37.10   21.00
 -16   3  -6   22.10   24.30
 -16   4   6   20.40   20.90
 -16  -4   6   30.50   24.00
 -16   4  -6  -10.50   18.80
  16   4   6    7.50   23.00
 -16   0  -7  197.88   40.00
 -16   0   7  194.88   35.00
 -16   1   7  128.49   35.00
  16   1   7  125.39   31.60
 -16   1  -7  145.79   30.50
 -16  -1   7  116.29   30.30
 -16   2   7  187.78   43.10
  16   2   7  150.78   30.10
 -16   2  -7  259.17   48.10
 -16  -2   7  212.38   42.50
 -16   3   7  133.49   38.40
 -16  -3   7  105.39   32.50
  16   3   7  124.69   31.50
 -16   3  -7   66.19   26.00
 -16   4   7   33.30   24.80
 -16  -4   7   50.49   31.30
 -16   4  -7   42.60   24.50
 -16   0  -8   17.10   18.20
 -16   0   8   -0.80   20.40
 -16   1   8   26.50   21.30
  16   1   8  -18.70   18.80
 -16  -1   8   53.99   23.40
 -16   1  -8    0.90   18.50
 -16   2   8    4.80   22.30
  16   2   8  -21.80   17.60
 -16   2  -8   12.00   19.90
 -16  -2   8    0.40   24.40
 -16   3   8   11.90   22.20
  16   3   8    7.80   24.50
 -16   3  -8    9.00   19.10
 -16  -3   8   -4.70   21.70
 -16   0  -9  154.78   37.30
 -16   0   9  193.68   39.60
 -16   1   9   89.09   32.60
 -16  -1   9  179.88   42.50
  16   1   9  136.39   29.30
 -16   1  -9  146.89   33.00
 -16   2   9   73.49   31.90
 -16   2  -9  133.49   28.80
 -16  -2   9  139.89   37.50
  16   2   9   99.39   30.90
 -16   3   9   94.89   34.70
 -16  -3   9   70.89   30.80
 -16   3  -9   43.90   24.20
 -16   0  10   42.00   26.40
 -16   0 -10    8.80   22.80
 -16   1  10  -15.80   24.60
 -16   1 -10  -25.90   21.30
 -16  -1  10    4.30   28.00
  16   1  10  -22.80   21.30
 -17   0   0   11.90   20.40
 -17  -1   0   24.00   20.70
 -17   1   0   17.20   22.70
 -17   2   0   34.80   25.80
 -17  -2   0   44.60   24.40
 -17   3   0   29.70   26.70
 -17  -3   0   48.10   25.40
 -17   4   0   93.49   30.70
  17   4   0   35.20   17.30
 -17   5   0  429.26   62.69
  17   5   0  378.56   55.59
 -17   0   1   20.50   22.70
 -17   0  -1  -24.10   16.80
 -17  -1  -1   53.99   23.10
 -17   1   1   47.80   24.40
 -17   1  -1   32.60   21.60
 -17  -1   1   34.30   19.20
 -17  -2  -1   21.90   22.50
 -17   2   1   57.59   26.00
 -17  -2   1   99.79   29.90
 -17   2  -1   -1.10   16.50
 -17   3   1   96.79   34.80
  17   3   1  103.69   30.50
 -17  -3   1   53.09   26.40
 -17   3  -1   63.49   28.30
 -17   4   1   59.29   33.20
  17   4  -1   70.29   28.00
 -17   4  -1   48.10   23.30
  17   4   1   65.59   28.20
  17   5  -1   59.69   22.00
 -17   5   1   70.09   34.50
  17   5   1   90.29   33.00
 -17   5  -1  154.98   40.00
 -17   0  -2   -1.50   15.20
 -17   0   2    6.20   15.60
 -17  -1  -2   19.30   19.40
 -17   1   2    7.90   19.10
 -17  -1   2    4.80   17.30
 -17   1  -2   -1.90   20.40
 -17  -2  -2   89.89   28.40
 -17   2   2   13.50   17.50
 -17  -2   2   12.20   21.90
 -17   2  -2   71.29   26.30
 -17   3   2  211.38   44.60
 -17   3  -2  326.27   47.60
 -17  -3   2  218.88   44.60
  17   3   2  267.17   46.70
 -17   4   2  134.49   35.30
  17   4   2  152.98   37.40
 -17   4  -2  206.58   40.40
 -17  -4   2  161.08   41.00
 -17   5   2   10.30   47.00
  17   5  -2   33.40   23.70
 -17   5  -2   76.89   30.30
  17   5   2  103.29   30.20
 -17   0   3    4.90   17.80
 -17   0  -3    2.70   16.90
 -17  -1  -3   78.49   27.90
 -17   1   3   28.70   23.60
 -17  -1   3   94.49   34.40
 -17   1  -3   67.99   26.50
 -17   2   3   25.00   28.70
 -17  -2  -3    7.10   20.30
 -17   2  -3   37.50   20.00
 -17  -2   3   13.00   21.60
  17   2   3   34.00   22.90
 -17   3   3  -16.80   21.50
  17   3   3   -6.60   16.70
 -17   3  -3   60.19   26.70
 -17  -3   3    2.50   23.80
 -17   4   3   13.80   26.40
  17   4   3   29.90   23.50
 -17  -4   3   16.20   22.80
 -17   4  -3   46.50   26.90
 -17   5   3   21.50   28.10
 -17   5  -3   14.60   23.70
 -17  -5   3  -12.40   29.70
  17   5   3   -8.30   26.10
 -17   0   4   -0.90   18.70
 -17   0  -4   -9.00   17.00
 -17   1   4  103.69   24.00
 -17  -1  -4   81.89   26.90
 -17   1  -4   55.99   21.70
 -17  -1   4   66.89   25.20
 -17   2   4  140.49   38.10
 -17   2  -4   75.09   28.40
 -17  -2   4  129.09   33.20
  17   2   4  154.98   34.20
 -17   3   4   44.80   32.00
 -17   3  -4  109.29   31.20
  17   3   4   39.80   21.20
 -17  -3   4   76.59   30.90
 -17   4   4  152.28   41.20
  17   4   4  201.28   41.90
 -17  -4   4  125.39   38.00
 -17   4  -4  300.67   52.89
 -17   5   4   59.39   32.00
  17   5   4  196.78   47.30
 -17   5  -4  133.39   38.50
 -17  -5   4  175.08   43.70
 -17   0   5  -12.30   20.30
 -17   0  -5   -8.00   15.00
 -17  -1  -5   87.99   27.00
 -17   1   5  110.89   33.80
 -17  -1   5   98.69   34.60
 -17   1  -5   33.90   20.30
 -17   2   5  110.49   31.50
  17   2   5  103.89   31.60
 -17  -2   5   44.10   23.80
 -17   2  -5   65.49   28.50
 -17   3   5   75.69   31.80
  17   3   5    0.50   20.50
 -17  -3   5  -20.10   20.90
 -17   3  -5   -2.00   21.70
 -17   4   5   -0.50   23.50
 -17   4  -5   35.20   24.10
  17   4   5   -0.70   22.70
 -17  -4   5   18.70   29.50
 -17   0  -6   -9.70   21.20
 -17   0   6   -2.40   21.20
 -17   1   6   33.80   28.10
 -17  -1  -6  -15.30   19.50
 -17  -1   6    9.60   24.30
 -17   1  -6  -21.70   15.50
 -17   2   6   13.50   26.90
 -17   2  -6   43.20   23.40
 -17  -2   6   19.70   25.50
  17   2   6   44.50   25.00
 -17   3   6   81.99   28.40
 -17  -3   6   82.59   34.60
  17   3   6  110.49   36.40
 -17   3  -6  158.48   39.00
 -17   4   6   91.89   46.20
 -17  -4   6  126.09   39.00
  17   4   6  148.89   38.10
 -17   4  -6  131.29   36.60
 -17   0   7   23.30   23.10
 -17   0  -7   10.80   21.70
 -17  -1  -7   27.60   23.30
 -17   1   7   53.49   29.90
 -17   1  -7   23.20   23.10
 -17  -1   7   41.20   22.60
 -17   2   7   14.10   26.80
 -17   2  -7   -4.60   21.20
 -17  -2   7  -17.00   26.60
  17   2   7   19.80   18.50
 -17   3   7   12.50   29.30
 -17   3  -7   30.10   23.20
  17   3   7   32.00   28.90
 -17  -3   7   38.40   29.60
 -17   0  -8  -20.40   18.70
 -17   0   8   21.60   29.00
 -17   1   8   23.70   26.00
 -17  -1  -8  -20.20   22.20
 -17  -1   8   -6.80   23.00
 -17   1  -8   78.39   27.70
 -17   2   8   46.10   30.80
  17   2   8  103.39   34.30
 -17  -2   8  144.39   39.40
 -17   2  -8  161.28   37.00
 -17   3   8   22.00   37.70
 -17  -3   8   17.60   27.70
  17   3   8   37.40   32.00
 -17   3  -8   80.59   27.60
 -17   0  -9    2.10   23.00
 -17   0   9  -14.00   22.20
 -17   1   9    3.00   25.10
 -17  -1  -9  -16.10   21.70
 -17  -1   9   30.50   27.40
 -17   1  -9   -7.50   18.50
 -17  -2   9   -0.40   28.90
 -18   0   0    4.90   18.10
 -18   1   0   29.30   22.10
 -18  -1   0   24.60   22.60
 -18  -2   0   26.10   23.80
 -18   2   0   70.09   26.80
 -18   3   0   15.10   25.50
 -18  -3   0   22.90   25.00
 -18   4   0   18.90   23.20
  18   4   0  -20.50   19.10
  18   5   0  -56.39   20.40
 -18   5   0    1.20   29.00
 -18   0  -1  108.19   33.30
 -18   0   1   97.39   32.50
 -18  -1  -1  357.46   51.89
 -18   1   1  339.77   50.89
 -18  -1   1  406.36   55.29
 -18   1  -1  345.87   55.19
 -18  -2  -1  128.79   35.40
 -18   2   1   77.29   27.40
 -18   2  -1   71.99   26.60
 -18  -2   1   59.79   25.60
 -18   3   1  149.59   44.30
 -18  -3  -1  149.29   42.60
 -18  -3   1  111.69   37.40
 -18   3  -1  120.99   35.70
 -18   4   1   13.90   30.00
  18   4   1   -0.30   19.40
 -18  -4   1   64.59   34.20
 -18   4  -1   50.69   29.40
 -18   0   2   58.69   26.90
 -18   0  -2   24.30   22.10
 -18  -1  -2   37.00   21.90
 -18   1   2   54.99   26.00
 -18  -1   2   51.59   22.50
 -18   1  -2   59.09   28.20
 -18  -2  -2    8.80   18.00
 -18   2   2   11.40   24.80
 -18   2  -2   15.80   19.00
 -18  -2   2   -5.70   21.10
 -18   3   2   36.80   27.00
 -18   3  -2   50.09   23.80
  18   3   2   60.89   30.00
 -18  -3   2   50.19   27.20
 -18   4   2  -23.90   19.60
 -18   4  -2  -18.70   24.40
  18   4   2   -4.30   21.20
 -18  -4   2  -27.80   23.50
 -18   0   3   39.10   24.10
 -18   0  -3   85.69   31.90
 -18   1   3  171.98   40.50
 -18  -1  -3  130.19   29.70
 -18  -1   3  165.78   38.60
 -18   1  -3  150.88   37.20
 -18   2   3  138.49   37.20
 -18  -2  -3  184.48   43.40
 -18   2  -3  110.59   32.00
 -18  -2   3   98.19   35.80
 -18   3   3   60.29   30.30
 -18  -3   3   96.09   36.00
  18   3   3   94.39   34.40
 -18   3  -3  102.79   31.50
 -18   4   3   30.30   34.40
 -18   4  -3   22.90   26.90
  18   4   3   23.00   23.50
 -18  -4   3   -5.70   28.90
 -18   0  -4  136.79   31.60
 -18   0   4  137.69   38.50
 -18  -1  -4   86.19   31.70
 -18   1   4   81.59   27.40
 -18  -1   4   41.80   29.50
 -18   1  -4   49.30   24.00
 -18  -2  -4    5.10   20.60
 -18   2   4   56.89   23.90
 -18  -2   4    5.40   24.70
 -18   2  -4   -2.50   20.60
 -18   3   4   24.90   30.10
 -18   3  -4   53.89   25.90
 -18  -3   4   11.40   27.40
  18   3   4    2.80   20.60
 -18   4   4  -11.80   27.80
  18   4   4   28.50   22.50
 -18   4  -4   27.70   25.20
 -18  -4   4   20.90   27.20
 -18   0   5  225.28   48.20
 -18   0  -5  117.89   31.70
 -18  -1  -5  217.18   44.00
 -18   1   5  112.59   34.80
 -18   1  -5  103.99   31.70
 -18  -1   5  123.99   37.70
 -18   2   5   55.39   31.90
 -18  -2   5   53.99   29.80
 -18   2  -5   83.69   33.50
  18   2   5   39.50   30.30
 -18   3   5   61.79   31.50
 -18  -3   5    4.30   25.80
 -18   3  -5   64.69   28.30
  18   3   5   53.49   29.10
 -18   4   5   16.40   26.50
  18   4   5   -4.70   21.20
 -18  -4   5   26.00   33.10
 -18   4  -5   51.59   28.40
 -18   0   6   14.40   27.00
 -18   0  -6   84.69   28.70
 -18  -1  -6   36.20   21.60
 -18   1   6   86.39   34.50
 -18  -1   6  122.39   36.00
 -18   1  -6   87.99   31.90
 -18   2   6   26.70   29.10
 -18   2  -6   55.39   29.50
 -18  -2   6   35.40   33.90
  18   2   6   35.10   20.90
 -18   3   6   22.50   26.10
 -18   3  -6  -14.70   23.20
 -18  -3   6   32.20   33.70
 -18   0   7  149.39   35.60
 -18   0  -7  124.39   37.00
 -18   1   7  223.88   50.69
 -18  -1  -7  125.09   37.00
 -18  -1   7   63.19   37.30
 -18   1  -7   76.69   30.50
 -18   2   7   91.19   28.10
 -18   2  -7   35.80   28.70
  18   2   7   63.69   29.60
 -18  -2   7   88.69   37.60
 -18   0   8  -28.70   25.50
 -18   0  -8   -1.50   18.50
 -18  -1  -8   50.99   29.10
 -18   1   8   75.99   38.80
 -18   1  -8   27.00   25.80
 -18  -1   8   33.00   31.50
 -19   0   0  -24.30   14.00
 -19  -1   0    3.80   25.20
 -19   1   0   -5.80   23.10
 -19  -2   0   56.39   29.20
 -19   2   0   10.10   23.30
 -19  -3   0  171.68   41.20
 -19   3   0   51.99   33.40
 -19  -4   0  143.79   45.80
 -19   0   1   49.10   29.70
 -19   0  -1  -31.30   20.20
 -19  -1  -1   -8.40   16.50
 -19   1   1   30.70   22.50
 -19  -1   1   11.50   22.00
 -19   1  -1   -2.40   22.50
 -19  -2  -1   15.60   26.20
 -19   2   1   35.40   27.40
 -19   2  -1   52.19   28.10
 -19  -2   1   66.79   29.10
 -19  -3  -1    9.10   23.60
 -19   3   1   84.19   31.20
 -19  -3   1   86.29   36.70
 -19   3  -1   56.49   30.20
 -19   4   1   78.89   35.60
 -19   4  -1  111.79   54.19
 -19  -4   1   85.89   38.70
 -19   0   2   37.70   23.50
 -19   0  -2    7.30   22.70
 -19  -1  -2   11.20   24.20
 -19   1   2    6.00   21.80
 -19   1  -2   28.30   25.70
 -19  -1   2   15.40   24.30
 -19  -2  -2   34.20   27.70
 -19   2   2   22.10   27.80
 -19   2  -2   -5.10   19.70
 -19  -2   2   26.80   25.30
 -19   3   2   34.80   27.60
 -19  -3  -2   82.79   33.30
 -19  -3   2   81.59   32.20
 -19   3  -2   23.30   26.30
 -19   4   2   29.80   35.30
 -19   4  -2  -20.80   26.30
 -19  -4   2   75.69   34.40
  19   4   2   60.29   30.40
 -19   0  -3   10.00   22.40
 -19   0   3  -10.50   22.30
 -19   1   3   81.39   34.50
 -19  -1  -3    6.20   20.10
 -19   1  -3   10.90   24.10
 -19  -1   3  -10.00   24.40
 -19   2   3   65.09   27.30
 -19  -2  -3  117.49   39.30
 -19   2  -3   60.89   22.40
 -19  -2   3   96.99   38.00
 -19   3   3   77.59   33.60
 -19  -3   3   39.90   32.50
 -19   3  -3  125.49   34.00
  19   3   3   94.39   31.70
 -19   4  -3   81.59   35.50
 -19   0   4   10.20   25.00
 -19   0  -4   -1.60   20.00
 -19  -1  -4   14.50   20.80
 -19   1   4   18.50   23.60
 -19   1  -4  -18.80   19.50
 -19  -1   4   -0.90   24.90
 -19   2   4   40.50   24.50
 -19  -2  -4  -13.60   22.10
 -19  -2   4   12.80   28.30
 -19   2  -4   29.30   24.50
 -19   3  -4   77.99   28.90
 -19  -3   4  116.29   40.20
 -19   0   5  -11.90   25.40
 -19   0  -5    0.10   20.10
 -19  -1  -5   72.09   33.80
 -19   1   5   33.70   31.60
 -19   1  -5   39.00   25.50
 -19  -1   5   68.79   34.90
 -19   2   5   59.09   25.70
 -19  -2  -5   64.59   27.70
 -19   2  -5   -3.20   19.90
 -19  -2   5   -7.60   32.10
 -19   3   5  142.59   42.10
 -19   3  -5   67.09   29.30
  19   3   5   65.39   30.00
 -19  -3   5   29.80   30.00
 -19   0   6  -53.19   23.90
 -19   0  -6   28.20   22.00
 -19   1   6   48.70   31.80
 -19  -1  -6   22.70   25.50
 -19  -1   6   -8.30   29.40
 -19   1  -6    2.00   22.90
 -19   2   6   61.39   38.90
 -19  -2   6   -4.90   35.00
 -19   2  -6   14.10   27.20
 -19   0   7   21.80   29.20
 -19   0  -7   -4.80   25.70
 -19  -1  -7   26.20   35.30
 -19   1   7  -14.30   23.30
 -19  -1   7   36.80   35.40
 -19   1  -7    1.80   26.30
 -20   0   0  391.76   60.39
 -20  -1   0  246.58   51.39
 -20   1   0  220.38   48.80
 -20   2   0   30.40   28.10
 -20  -2   0   69.79   27.40
 -20  -3   0   36.40   27.20
 -20   3   0   16.30   30.10
 -20   0   1   68.59   34.20
 -20   0  -1   84.09   35.00
 -20   1   1   84.29   32.70
 -20  -1  -1   28.60   26.90
 -20  -1   1  -18.10   23.10
 -20   1  -1   66.69   35.50
 -20   2   1   71.29   33.90
 -20  -2  -1   54.19   32.60
 -20   2  -1   54.79   33.10
 -20  -2   1   44.80   30.50
 -20   3   1   31.10   31.20
 -20  -3   1   53.29   35.20
 -20   0  -2  158.58   42.40
 -20   0   2  134.19   41.40
 -20  -1  -2  179.38   43.00
 -20   1   2   82.69   32.60
 -20  -1   2  162.68   42.70
 -20   1  -2  145.49   40.20
 -20  -2  -2  123.19   39.60
 -20   2   2  125.19   34.80
 -20  -2   2   70.79   37.90
 -20   2  -2   77.39   29.20
 -20  -3  -2   46.00   32.50
 -20   3   2  128.49   40.00
 -20  -3   2   16.50   29.40
 -20   0  -3   63.99   29.70
 -20   0   3   51.59   29.20
 -20  -1  -3   22.20   30.60
 -20   1   3    2.50   25.40
 -20  -1   3  -69.19   24.10
 -20   1  -3    5.00   23.60
 -20   2   3   76.59   38.90
 -20   2  -3   38.60   32.90
 -20  -2   3   25.90   31.20
 -20   3   3   -1.00   25.50
 -20  -3  -3   37.60   32.00
 -20  -3   3   47.90   32.90
 -20   0  -4  186.58   42.30
 -20   0   4  147.39   40.30
 -20  -1  -4  114.49   37.10
 -20   1   4   88.59   33.60
 -20  -1   4   57.09   37.30
 -20   1  -4  109.39   34.70
 -20  -2  -4  140.39   39.30
 -20  -2   4   28.30   28.60
 -20   2  -4   44.10   31.80
 -20   0   5   -2.80   26.30
 -20   0  -5  -12.50   22.40
 -20   1   5   -7.40   32.90
 -20   1  -5    0.00   26.60
 -20  -1   5   16.30   29.00
 -20   2   5   75.69   36.20
 -20  -2  -5   41.20   26.90
 -20  -2   5   40.20   37.90
 -20   2  -5   17.00   24.90
 -20   0   6  139.69   39.10
 -21   0   0    5.30   34.50
 -21   2   0   16.20   24.50
 -21  -2   0   27.00   33.40
 -21   0   1    0.40   33.30
 -21  -1   1   86.79   46.10
 -21  -2  -1   27.00   26.20
 -21   2   1   23.50   24.60
 -21   2  -1   24.80   29.60
 -21  -2   1  119.09   52.59
 -21   0   2   19.50   37.20
 -21   1   2  -41.60   27.60
 -21  -1  -2   18.70   25.40
 -21  -1   2   68.79   42.40
 -21   1  -2   27.30   39.40
 -21   2   2  -18.80   22.50
 -21  -2  -2    2.60   26.40
 -21   2  -2    6.80   26.90
 -21   0  -3    9.40   25.10
 -21   1   3   35.50   23.20
 -21  -1  -3   33.00   30.30
 -21   1  -3   13.60   29.00
 -21  -1   3   46.40   39.70
 -21   0  -4  -13.10   23.30
   0   0   0    0.00    0.00

_computing_structure_solution     'SHELXT 2018/2 (Sheldrick, 2018)'
;
_shelx_hkl_checksum   16675

