 
data_VV-9_autored_a
 
_audit_creation_method            'SHELXL-2018/3'
_shelx_SHELXL_version_number      '2018/3'
_chemical_name_systematic         ?
_chemical_name_common             ?
_chemical_melting_point           ?
_chemical_formula_moiety          ?
_chemical_formula_sum
 'C3.10 N0.67 O0.77 S0.10 Zn0.10' 
_chemical_formula_weight          68.58

loop_
 _atom_type_symbol
 _atom_type_description
 _atom_type_scat_dispersion_real
 _atom_type_scat_dispersion_imag
 _atom_type_scat_source
 'C'  'C'   0.0033   0.0016
 'International Tables Vol C Tables 4.2.6.8 and 6.1.1.4'
 'N'  'N'   0.0061   0.0033
 'International Tables Vol C Tables 4.2.6.8 and 6.1.1.4'
 'O'  'O'   0.0106   0.0060
 'International Tables Vol C Tables 4.2.6.8 and 6.1.1.4'
 'Zn'  'Zn'   0.2839   1.4301
 'International Tables Vol C Tables 4.2.6.8 and 6.1.1.4'
 'S'  'S'   0.1246   0.1234
 'International Tables Vol C Tables 4.2.6.8 and 6.1.1.4'
 
_space_group_crystal_system       monoclinic
_space_group_IT_number            4
_space_group_name_H-M_alt         'P 21'
_space_group_name_Hall            'P 2yb'
 
_shelx_space_group_comment
;
The symmetry employed for this shelxl refinement is uniquely defined
by the following loop, which should always be used as a source of
symmetry information in preference to the above space-group names.
They are only intended as comments.
;
 
loop_
 _space_group_symop_operation_xyz
 'x, y, z'
 '-x, y+1/2, -z'
 
_cell_length_a                    14.6384(7)
_cell_length_b                    14.6218(6)
_cell_length_c                    19.9468(8)
_cell_angle_alpha                 90
_cell_angle_beta                  90.815(4)
_cell_angle_gamma                 90
_cell_volume                      4269.0(3)
_cell_formula_units_Z             60
_cell_measurement_temperature     150(2)
_cell_measurement_reflns_used     ?
_cell_measurement_theta_min       ?
_cell_measurement_theta_max       ?
 
_exptl_crystal_description        ?
_exptl_crystal_colour             ?
_exptl_crystal_density_meas       ?
_exptl_crystal_density_method     ?
_exptl_crystal_density_diffrn     1.601          
_exptl_crystal_F_000              2040
_exptl_transmission_factor_min    ?
_exptl_transmission_factor_max    ?
_exptl_crystal_size_max           ?
_exptl_crystal_size_mid           ?
_exptl_crystal_size_min           ?
_exptl_absorpt_coefficient_mu     1.002
_shelx_estimated_absorpt_T_min    ?
_shelx_estimated_absorpt_T_max    ?
_exptl_absorpt_correction_type    ?
_exptl_absorpt_correction_T_min   ?
_exptl_absorpt_correction_T_max   ?
_exptl_absorpt_process_details    ?
_exptl_absorpt_special_details    ?
_diffrn_ambient_temperature       150(2)
_diffrn_radiation_wavelength      0.71073
_diffrn_radiation_type            MoK\a
_diffrn_source                    ?
_diffrn_measurement_device_type   ?
_diffrn_measurement_method        ?
_diffrn_detector_area_resol_mean  ?
_diffrn_reflns_number             19685
_diffrn_reflns_av_unetI/netI      0.1064
_diffrn_reflns_av_R_equivalents   0.0799
_diffrn_reflns_limit_h_min        -18
_diffrn_reflns_limit_h_max        19
_diffrn_reflns_limit_k_min        -14
_diffrn_reflns_limit_k_max        19
_diffrn_reflns_limit_l_min        -19
_diffrn_reflns_limit_l_max        27
_diffrn_reflns_theta_min          2.042
_diffrn_reflns_theta_max          29.102
_diffrn_reflns_theta_full         25.242
_diffrn_measured_fraction_theta_max   0.820
_diffrn_measured_fraction_theta_full  0.991
_diffrn_reflns_Laue_measured_fraction_max    0.820
_diffrn_reflns_Laue_measured_fraction_full   0.991
_diffrn_reflns_point_group_measured_fraction_max   0.592
_diffrn_reflns_point_group_measured_fraction_full  0.755
_reflns_number_total              13570
_reflns_number_gt                 10537
_reflns_threshold_expression      'I > 2\s(I)'
_reflns_Friedel_coverage          0.393
_reflns_Friedel_fraction_max      0.348
_reflns_Friedel_fraction_full     0.498
 
_reflns_special_details
;
 Reflections were merged by SHELXL according to the crystal
 class for the calculation of statistics and refinement.
 
 _reflns_Friedel_fraction is defined as the number of unique
 Friedel pairs measured divided by the number that would be
 possible theoretically, ignoring centric projections and
 systematic absences.
;
 
_computing_data_collection        ?
_computing_cell_refinement        ?
_computing_data_reduction         ?
_computing_structure_solution     'SHELXT 2014/5 (Sheldrick, 2014)'
_computing_structure_refinement 'SHELXL-2018/3 (Sheldrick, 2018)'
_computing_molecular_graphics     ?
_computing_publication_material   ?
_refine_special_details           ?
_refine_ls_structure_factor_coef  Fsqd
_refine_ls_matrix_type            full
_refine_ls_weighting_scheme       calc
_refine_ls_weighting_details
'w=1/[\s^2^(Fo^2^)+(0.1000P)^2^] where P=(Fo^2^+2Fc^2^)/3'
_atom_sites_solution_primary      ?
_atom_sites_solution_secondary    ?
_atom_sites_solution_hydrogens    .
_refine_ls_hydrogen_treatment     undef
_refine_ls_extinction_method      none
_refine_ls_extinction_coef        .
_refine_ls_abs_structure_details
;
 Classical Flack method preferred over Parsons because s.u. lower.
;
_refine_ls_abs_structure_Flack    0.34(6)
_chemical_absolute_configuration  ?
_refine_ls_number_reflns          13570
_refine_ls_number_parameters      513
_refine_ls_number_restraints      1
_refine_ls_R_factor_all           0.2742
_refine_ls_R_factor_gt            0.2600
_refine_ls_wR_factor_ref          0.5410
_refine_ls_wR_factor_gt           0.5249
_refine_ls_goodness_of_fit_ref    2.849
_refine_ls_restrained_S_all       2.848
_refine_ls_shift/su_max           0.194
_refine_ls_shift/su_mean          0.032
 
loop_
 _atom_site_label
 _atom_site_type_symbol
 _atom_site_fract_x
 _atom_site_fract_y
 _atom_site_fract_z
 _atom_site_U_iso_or_equiv
 _atom_site_adp_type
 _atom_site_occupancy
 _atom_site_site_symmetry_order  
 _atom_site_calc_flag
 _atom_site_refinement_flags_posn
 _atom_site_refinement_flags_adp
 _atom_site_refinement_flags_occupancy
 _atom_site_disorder_assembly
 _atom_site_disorder_group
Zn01 Zn 0.9960(2) 0.7242(3) 0.51899(19) 0.0445(9) Uiso 1 1 d . . . . .
Zn1 Zn 0.5091(3) 0.2745(3) 0.9738(2) 0.0600(12) Uiso 1 1 d . . . . .
Zn02 Zn 0.9819(2) 0.7633(3) 0.99227(18) 0.0436(9) Uiso 1 1 d . . . . .
Zn03 Zn 0.5055(3) 0.2495(3) 0.5001(2) 0.0638(12) Uiso 1 1 d . . . . .
S1 S 0.9760(5) 0.7341(6) 0.2467(4) 0.0449(18) Uiso 1 1 d . . . . .
S2 S 0.7393(7) 0.5287(8) 0.9646(6) 0.070(3) Uiso 1 1 d . . . . .
S3 S 0.7577(5) 0.4853(6) 0.5370(4) 0.0478(19) Uiso 1 1 d . . . . .
S4 S 0.5230(5) 0.2758(7) 1.2621(4) 0.0485(19) Uiso 1 1 d . . . . .
O1 O 0.4584(18) 0.260(2) 1.0746(14) 0.082(8) Uiso 1 1 d . . . . .
O00A O 0.9137(12) 0.6638(14) 0.6258(10) 0.037(5) Uiso 1 1 d . . . . .
O00B O 0.9018(14) 0.6192(17) 0.5201(12) 0.052(6) Uiso 1 1 d . . . . .
O00C O 0.9889(13) 0.7671(18) 0.0966(10) 0.049(5) Uiso 1 1 d . . . . .
O00D O 0.9769(9) 0.7339(12) 0.7514(8) 0.026(3) Uiso 1 1 d . . . . .
O00F O 0.9216(12) 0.6865(15) 0.8826(10) 0.040(5) Uiso 1 1 d . . . . .
N00H N 0.9293(19) 0.979(2) 0.8775(16) 0.062(8) Uiso 1 1 d . . . . .
N00J N 0.9301(15) 0.9614(18) 0.6165(13) 0.041(6) Uiso 1 1 d . . . . .
N00K N 1.2201(14) 0.6751(17) 0.6411(12) 0.035(5) Uiso 1 1 d . . . . .
O00L O 1.0109(12) 0.7622(16) 0.4353(11) 0.046(5) Uiso 1 1 d . . . . .
O00O O 0.8885(16) 0.6710(19) 0.9947(13) 0.069(7) Uiso 1 1 d . . . . .
O2 O 0.566(2) 0.340(2) 1.1291(16) 0.087(9) Uiso 1 1 d . . . . .
C00Q C 0.876(2) 0.620(2) 0.5863(17) 0.046(7) Uiso 1 1 d . . . . .
N00T N 1.2096(18) 0.686(2) 0.8887(15) 0.056(7) Uiso 1 1 d . . . . .
N00U N 0.0609(17) 0.503(2) 0.7242(14) 0.050(7) Uiso 1 1 d . . . . .
N2 N 1.378(2) 0.554(3) 0.676(2) 0.090(11) Uiso 1 1 d . . . . .
C00X C 0.1328(17) 0.444(2) 0.7289(14) 0.035(6) Uiso 1 1 d . . . . .
C00Z C 1.0364(13) 0.8097(16) 0.1269(11) 0.019(4) Uiso 1 1 d . . . . .
C2 C 1.094(3) 0.844(4) 0.308(3) 0.087(13) Uiso 1 1 d . . . . .
N11 N 0.2828(16) 0.3230(19) 0.6159(13) 0.046(6) Uiso 1 1 d . . . . .
N12 N 0.2863(16) 0.3420(19) 0.8511(14) 0.047(6) Uiso 1 1 d . . . . .
N13 N 0.5324(14) 0.1648(17) 0.9469(12) 0.034(5) Uiso 1 1 d . . . . .
N14 N 0.5290(17) 0.129(2) 0.5392(14) 0.049(6) Uiso 1 1 d . . . . .
O011 O 1.0837(17) 0.872(2) 0.0929(14) 0.070(7) Uiso 1 1 d . . . . .
C013 C 0.8763(13) 0.6493(15) 0.9308(12) 0.018(4) Uiso 1 1 d . . . . .
C015 C 1.2516(16) 0.6493(19) 0.7117(14) 0.031(6) Uiso 1 1 d . . . . .
C016 C 0.982(3) 0.749(3) 0.396(2) 0.073(11) Uiso 1 1 d . . . . .
O019 O 0.9170(16) 0.6900(19) 0.3832(13) 0.067(7) Uiso 1 1 d . . . . .
N1 N 1.437(2) 0.508(3) 0.7692(18) 0.073(9) Uiso 1 1 d . . . . .
O01A O 0.581(2) 0.322(3) 0.6229(18) 0.101(11) Uiso 1 1 d . . . . .
N01B N 0.7493(16) 1.193(2) 0.7074(14) 0.046(6) Uiso 1 1 d . . . . .
N3 N 1.1146(15) 0.719(2) 0.9551(13) 0.045(6) Uiso 1 1 d . . . . .
C01C C 0.8131(16) 0.5337(18) 0.6003(14) 0.027(5) Uiso 1 1 d . . . . .
C01D C 1.204(2) 0.701(2) 0.5354(17) 0.049(8) Uiso 1 1 d . . . . .
C01E C 0.895(2) 1.019(3) 0.815(2) 0.063(10) Uiso 1 1 d . . . . .
C01F C 0.905(3) 1.007(3) 0.693(2) 0.075(12) Uiso 1 1 d . . . . .
C01I C 0.8389(18) 1.084(2) 0.6798(15) 0.040(7) Uiso 1 1 d . . . . .
C01K C 0.179(2) 0.415(2) 0.6674(17) 0.048(8) Uiso 1 1 d . . . . .
C01L C 1.192(2) 0.730(3) 0.9949(19) 0.068(10) Uiso 1 1 d . . . . .
C01N C 0.749(2) -0.185(2) 0.7383(17) 0.044(7) Uiso 1 1 d . . . . .
C01R C 0.2384(17) 0.357(2) 0.6695(14) 0.035(6) Uiso 1 1 d . . . . .
C01S C 0.8070(17) 0.584(2) 0.9056(14) 0.034(6) Uiso 1 1 d . . . . .
C01U C 0.957(4) 1.036(4) 0.925(3) 0.103(17) Uiso 1 1 d . . . . .
O01V O 0.765(4) -0.202(6) 0.775(3) 0.23(3) Uiso 1 1 d . . . . .
C01W C 0.841(2) 1.090(3) 0.800(2) 0.063(9) Uiso 1 1 d . . . . .
O01X O 0.5864(16) 0.3482(19) 0.8675(13) 0.064(7) Uiso 1 1 d . . . . .
O3 O 1.448(2) 0.490(3) 0.7063(18) 0.100(10) Uiso 1 1 d . . . . .
O4 O 0.7393(18) 1.200(2) 0.7976(15) 0.079(8) Uiso 1 1 d . . . . .
C01Y C 0.991(4) 0.968(5) 0.989(3) 0.110(17) Uiso 1 1 d . . . . .
C01Z C 0.695(2) 0.427(2) 0.6019(18) 0.050(8) Uiso 1 1 d . . . . .
C3 C 1.088(2) 0.864(3) 0.2339(18) 0.055(9) Uiso 1 1 d . . . . .
C020 C 1.3408(18) 0.598(2) 0.8390(15) 0.038(6) Uiso 1 1 d . . . . .
C021 C 0.952(2) 1.002(3) 0.566(2) 0.066(10) Uiso 1 1 d . . . . .
C022 C 0.799(2) 0.539(2) 0.8404(18) 0.051(8) Uiso 1 1 d . . . . .
C023 C 1.2500(18) 0.653(2) 0.8312(15) 0.039(7) Uiso 1 1 d . . . . .
C024 C 1.2636(17) 0.702(2) 0.5898(15) 0.040(7) Uiso 1 1 d . . . . .
C025 C 0.788(4) 0.543(5) 0.644(3) 0.14(2) Uiso 1 1 d . . . . .
C027 C 1.3354(16) 0.5884(18) 0.7137(13) 0.027(5) Uiso 1 1 d . . . . .
C028 C 0.455(3) 0.202(4) 1.312(3) 0.104(17) Uiso 1 1 d . . . . .
C029 C 0.7224(13) 0.4873(17) 0.8390(12) 0.019(4) Uiso 1 1 d . . . . .
N02A N 0.5292(17) 0.297(2) 0.7416(14) 0.054(7) Uiso 1 1 d . . . . .
C02B C 0.7163(16) 0.447(2) 0.6516(14) 0.034(6) Uiso 1 1 d . . . . .
C02F C 1.271(3) 0.716(4) 0.950(3) 0.100(15) Uiso 1 1 d . . . . .
C02H C 0.382(2) 0.307(3) 0.594(2) 0.067(10) Uiso 1 1 d . . . . .
C02J C 0.979(2) 0.932(3) 0.5287(18) 0.055(9) Uiso 1 1 d . . . . .
C02K C 0.2382(19) 0.366(2) 0.7965(16) 0.042(7) Uiso 1 1 d . . . . .
C02L C 0.634(4) 0.351(5) 0.581(3) 0.111(18) Uiso 1 1 d . . . . .
C02N C 0.5097(12) 0.2781(16) 1.1215(10) 0.017(4) Uiso 1 1 d . . . . .
N02O N 0.595(13) 0.024(15) 0.598(10) 0.52(14) Uiso 1 1 d . . . . .
N4 N 1.1197(13) 0.7015(16) 0.5665(11) 0.033(5) Uiso 1 1 d . . . . .
C02P C 0.688(3) -0.113(3) 0.718(2) 0.064(10) Uiso 1 1 d . . . . .
C02Q C 0.482(2) 0.239(2) 1.1943(17) 0.056(8) Uiso 1 1 d . . . . .
C02R C 0.2826(17) 0.333(2) 0.7344(14) 0.034(6) Uiso 1 1 d . . . . .
C02T C 0.568(2) 0.136(3) 0.9071(19) 0.057(9) Uiso 1 1 d . . . . .
C02V C 0.248(2) 0.296(3) 0.549(2) 0.070(11) Uiso 1 1 d . . . . .
C02W C 1.374(2) 0.566(3) 0.7766(19) 0.059(9) Uiso 1 1 d . . . . .
C02X C 0.469(5) 0.013(5) 0.929(3) 0.14(2) Uiso 1 1 d . . . . .
C02Y C 0.378(2) 0.334(2) 0.8738(16) 0.046(7) Uiso 1 1 d . . . . .
C02Z C 0.787(4) 1.135(4) 0.710(3) 0.109(17) Uiso 1 1 d . . . . .
C4 C 1.0447(14) 0.8101(17) 0.1995(12) 0.022(5) Uiso 1 1 d . . . . .
C030 C 0.238(4) 0.355(5) 0.920(3) 0.13(2) Uiso 1 1 d . . . . .
C035 C 0.6866(14) 0.4547(18) 0.9035(12) 0.025(5) Uiso 1 1 d . . . . .
N036 N 0.794(3) 1.151(4) 0.844(3) 0.122(16) Uiso 1 1 d . . . . .
C1 C 1.0244(14) 0.7766(19) 0.3225(12) 0.026(5) Uiso 1 1 d . . . . .
C037 C 0.305(2) 0.254(3) 0.5157(17) 0.058(9) Uiso 1 1 d . . . . .
O03A O 0.679(2) -0.094(2) 0.7670(18) 0.092(9) Uiso 1 1 d . . . . .
O5 O 0.0648(19) 0.511(2) 0.8055(15) 0.084(9) Uiso 1 1 d . . . . .
O6 O 0.055(2) 0.494(3) 0.6470(18) 0.107(11) Uiso 1 1 d . . . . .
O7 O 0.592(2) 0.376(3) 0.9737(17) 0.096(10) Uiso 1 1 d . . . . .
O8 O 0.5116(15) 0.2561(19) 1.4089(12) 0.062(6) Uiso 1 1 d . . . . .
O9 O 0.6136(14) 0.3387(17) 0.5197(12) 0.058(6) Uiso 1 1 d . . . . .
O10 O 0.402(2) 0.155(3) 1.3988(18) 0.101(11) Uiso 1 1 d . . . . .
C03B C 0.415(2) 0.179(2) 1.1890(18) 0.051(8) Uiso 1 1 d . . . . .
C03C C 0.3046(19) 0.280(2) 0.9518(16) 0.051(8) Uiso 1 1 d . . . . .
C03D C 0.577(3) 0.023(3) 0.637(2) 0.061(10) Uiso 1 1 d . . . . .
N03G N 0.521(3) 0.075(4) 0.979(2) 0.124(17) Uiso 1 1 d . . . . .
N03H N 0.5992(19) -0.003(2) 0.7012(17) 0.062(8) Uiso 1 1 d . . . . .
C03J C 0.684(5) -0.106(6) 0.855(4) 0.16(3) Uiso 1 1 d . . . . .
N03K N 0.555(3) -0.006(4) 0.582(3) 0.098(13) Uiso 1 1 d . . . . .
C03L C 0.620(2) 0.398(2) 0.9152(17) 0.048(8) Uiso 1 1 d . . . . .
C03M C 0.562(2) 0.116(2) 0.5977(18) 0.049(8) Uiso 1 1 d . . . . .
C03O C 0.606(2) 0.004(3) 0.8187(19) 0.056(9) Uiso 1 1 d . . . . .
N03P N 0.670(3) -0.094(3) 0.660(2) 0.109(14) Uiso 1 1 d . . . . .
N5 N 0.9565(16) 0.852(2) 0.5619(14) 0.048(6) Uiso 1 1 d . . . . .
N6 N 0.9495(16) 0.884(2) 0.9494(14) 0.048(6) Uiso 1 1 d . . . . .
N7 N 0.132(3) 0.430(3) 0.616(2) 0.111(14) Uiso 1 1 d . . . . .
N8 N 0.132(2) 0.470(3) 0.837(2) 0.084(10) Uiso 1 1 d . . . . .
N9 N 0.396(2) 0.306(3) 0.9307(17) 0.076(9) Uiso 1 1 d . . . . .
N10 N 0.3948(16) 0.276(2) 0.5344(14) 0.055(7) Uiso 1 1 d . . . . .
C03S C 0.574(2) 0.040(3) 0.858(2) 0.061(9) Uiso 1 1 d . . . . .
C03U C 0.3962(17) 0.159(2) 1.2578(15) 0.034(6) Uiso 1 1 d . . . . .
C03V C 0.572(3) 0.031(3) 0.753(2) 0.065(10) Uiso 1 1 d . . . . .
C03W C 0.531(3) 0.036(3) 0.530(2) 0.069(11) Uiso 1 1 d . . . . .
C5 C 1.1236(16) 0.6887(19) 0.8963(13) 0.031(6) Uiso 1 1 d . . . . .
C6 C 1.1306(18) 0.683(2) 0.6354(15) 0.039(7) Uiso 1 1 d . . . . .
C7 C 1.2247(19) 0.691(2) 0.7681(16) 0.044(7) Uiso 1 1 d . . . . .
C8 C 0.931(2) 0.969(3) 0.743(2) 0.067(10) Uiso 1 1 d . . . . .
C9 C 0.9254(19) 0.891(2) 0.8825(16) 0.041(7) Uiso 1 1 d . . . . .
C10 C 0.9302(15) 0.8718(18) 0.6310(13) 0.025(5) Uiso 1 1 d . . . . .
C11 C 0.174(2) 0.421(3) 0.7858(19) 0.059(9) Uiso 1 1 d . . . . .
 
_geom_special_details
;
 All esds (except the esd in the dihedral angle between two l.s. planes)
 are estimated using the full covariance matrix.  The cell esds are taken
 into account individually in the estimation of esds in distances, angles
 and torsion angles; correlations between esds in cell parameters are only
 used when they are defined by crystal symmetry.  An approximate (isotropic)
 treatment of cell esds is used for estimating esds involving l.s. planes.
;
 
loop_
 _geom_bond_atom_site_label_1
 _geom_bond_atom_site_label_2
 _geom_bond_distance
 _geom_bond_site_symmetry_2
 _geom_bond_publ_flag
Zn01 O00L 1.77(2) . ?
Zn01 O00B 2.06(2) . ?
Zn01 N4 2.06(2) . ?
Zn01 N5 2.14(3) . ?
Zn01 C016 2.48(4) . ?
Zn1 N13 1.73(3) . ?
Zn1 N9 1.92(3) . ?
Zn1 O7 1.92(3) . ?
Zn1 O1 2.16(3) . ?
Zn1 C02T 2.58(4) . ?
Zn02 O00O 1.92(3) . ?
Zn02 N6 2.02(3) . ?
Zn02 O00C 2.08(2) 1_556 ?
Zn02 N3 2.18(2) . ?
Zn02 C013 2.57(2) . ?
Zn03 O8 1.82(2) 1_554 ?
Zn03 N10 1.81(3) . ?
Zn03 N14 1.96(3) . ?
Zn03 O9 2.08(2) . ?
S1 C1 1.77(2) . ?
S1 C4 1.78(3) . ?
S2 C01S 1.75(3) . ?
S2 C035 1.80(3) . ?
S3 C01C 1.65(3) . ?
S3 C01Z 1.81(4) . ?
S4 C02Q 1.57(3) . ?
S4 C028 1.79(6) . ?
O1 C02N 1.22(3) . ?
O00A C00Q 1.15(3) . ?
O00B C00Q 1.38(4) . ?
O00C C00Z 1.11(3) . ?
O00F C013 1.30(3) . ?
N00H C9 1.28(4) . ?
N00H C01U 1.32(6) . ?
N00H C01E 1.45(5) . ?
N00J C021 1.21(5) . ?
N00J C10 1.34(4) . ?
N00J C01F 1.71(5) . ?
N00K C024 1.28(4) . ?
N00K C6 1.32(3) . ?
N00K C015 1.52(3) . ?
O00L C016 0.91(4) . ?
O00O C013 1.32(3) . ?
O2 C02N 1.23(4) . ?
C00Q C01C 1.59(4) . ?
N00T C5 1.27(3) . ?
N00T C023 1.38(4) . ?
N00T C02F 1.58(6) . ?
N00U C00X 1.36(4) . ?
N00U O6 1.55(4) . ?
N00U O5 1.62(4) . ?
N2 C027 1.10(4) . ?
N2 O3 1.51(5) . ?
C00X C11 1.32(4) . ?
C00X C01K 1.47(4) . ?
C00Z O011 1.33(4) . ?
C00Z C4 1.45(3) . ?
C2 C1 1.45(5) . ?
C2 C3 1.50(6) . ?
N11 C01R 1.36(4) . ?
N11 C02V 1.48(4) . ?
N11 C02H 1.54(4) . ?
N12 C02K 1.33(4) . ?
N12 C02Y 1.42(3) . ?
N12 C030 1.56(7) . ?
N13 C02T 1.05(4) . ?
N13 N03G 1.47(6) . ?
N14 C03M 1.27(4) . ?
N14 C03W 1.37(5) . ?
C013 C01S 1.48(3) . ?
C015 C7 1.35(4) . ?
C015 C027 1.52(3) . ?
C016 O019 1.31(5) . ?
C016 C1 1.65(5) . ?
N1 C02W 1.27(5) . ?
N1 O3 1.29(4) . ?
O01A C02L 1.23(6) . ?
N01B C02Z 1.01(6) . ?
N01B O4 1.81(4) . ?
N3 C5 1.26(3) . ?
N3 C01L 1.39(4) . ?
C01C C025 0.96(7) . ?
C01D C024 1.38(4) . ?
C01D N4 1.39(4) . ?
C01E C01W 1.35(5) . ?
C01E C8 1.70(6) . ?
C01F C8 1.19(5) . ?
C01F C01I 1.51(5) . ?
C01I C02Z 1.24(6) . ?
C01K C01R 1.21(4) . ?
C01K N7 1.25(5) . ?
C01L C02F 1.48(6) . ?
C01N O01V 0.81(7) . ?
C01N C02P 1.42(5) . ?
C01N O03A 1.76(5) . ?
C01R C02R 1.48(4) . ?
C01S C022 1.46(4) . ?
C01U C01Y 1.69(8) . ?
C01W N036 1.42(6) . ?
O01X C03L 1.29(4) . ?
O4 N036 1.41(5) . ?
C01Y N6 1.57(7) . ?
C01Z C02B 1.08(4) . ?
C01Z C02L 1.48(7) . ?
C3 C4 1.22(4) . ?
C020 C02W 1.42(5) . ?
C020 C023 1.56(4) . ?
C021 C02J 1.33(5) . ?
C022 C029 1.35(4) . ?
C023 C7 1.42(4) . ?
C025 C02B 1.75(7) . ?
C027 C02W 1.41(4) . ?
C028 C03U 1.51(6) . ?
C029 C035 1.48(3) . ?
C02H N10 1.28(4) . ?
C02J N5 1.38(5) . ?
C02K C11 1.26(5) . ?
C02K C02R 1.49(4) . ?
C02L O9 1.26(6) . ?
C02N C02Q 1.62(4) . ?
N02O C03D 0.8(2) . ?
N02O N03K 0.8(2) . ?
N02O C03M 1.4(2) . ?
N02O C03W 1.65(19) . ?
N4 C6 1.41(4) . ?
C02P O03A 1.03(5) . ?
C02P N03P 1.22(5) . ?
C02Q C03B 1.32(5) . ?
C02T C03S 1.71(5) . ?
C02T N03G 1.83(6) . ?
C02V C037 1.24(5) . ?
C02X N03G 1.55(8) . ?
C02Y N9 1.23(4) . ?
C030 C03C 1.59(7) . ?
C035 C03L 1.31(4) . ?
C037 N10 1.40(4) . ?
O03A C03J 1.75(8) . ?
O5 N8 1.31(4) . ?
O6 N7 1.60(5) . ?
O7 C03L 1.28(4) . ?
C03B C03U 1.43(4) . ?
C03C N9 1.45(4) . ?
C03D N03K 1.22(6) . ?
C03D N03H 1.36(5) . ?
C03D C03M 1.59(6) . ?
N03H C03V 1.22(5) . ?
N03K C03W 1.26(6) . ?
N03K C03M 1.82(6) . ?
C03M C03W 1.85(5) . ?
C03O C03S 1.06(5) . ?
C03O C03V 1.45(5) . ?
N5 C10 1.46(4) . ?
N6 C9 1.38(4) . ?
N8 C11 1.39(5) . ?
C03S C03V 2.09(6) . ?
 
loop_
 _geom_angle_atom_site_label_1
 _geom_angle_atom_site_label_2
 _geom_angle_atom_site_label_3
 _geom_angle
 _geom_angle_site_symmetry_1
 _geom_angle_site_symmetry_3
 _geom_angle_publ_flag
O00L Zn01 O00B 109.5(10) . . ?
O00L Zn01 N4 111.3(9) . . ?
O00B Zn01 N4 117.3(9) . . ?
O00L Zn01 N5 98.1(11) . . ?
O00B Zn01 N5 117.5(10) . . ?
N4 Zn01 N5 101.4(9) . . ?
O00L Zn01 C016 15.4(11) . . ?
O00B Zn01 C016 94.2(12) . . ?
N4 Zn01 C016 122.4(11) . . ?
N5 Zn01 C016 104.5(13) . . ?
N13 Zn1 N9 104.9(13) . . ?
N13 Zn1 O7 126.3(13) . . ?
N9 Zn1 O7 110.9(15) . . ?
N13 Zn1 O1 105.8(12) . . ?
N9 Zn1 O1 97.6(13) . . ?
O7 Zn1 O1 107.5(13) . . ?
N13 Zn1 C02T 16.4(12) . . ?
N9 Zn1 C02T 104.6(14) . . ?
O7 Zn1 C02T 113.1(13) . . ?
O1 Zn1 C02T 121.7(12) . . ?
O00O Zn02 N6 117.5(10) . . ?
O00O Zn02 O00C 91.0(10) . 1_556 ?
N6 Zn02 O00C 114.2(11) . 1_556 ?
O00O Zn02 N3 116.0(11) . . ?
N6 Zn02 N3 108.6(11) . . ?
O00C Zn02 N3 108.4(8) 1_556 . ?
O00O Zn02 C013 30.0(9) . . ?
N6 Zn02 C013 103.2(9) . . ?
O00C Zn02 C013 120.9(9) 1_556 . ?
N3 Zn02 C013 100.3(8) . . ?
O8 Zn03 N10 114.9(11) 1_554 . ?
O8 Zn03 N14 115.7(12) 1_554 . ?
N10 Zn03 N14 101.4(13) . . ?
O8 Zn03 O9 96.1(10) 1_554 . ?
N10 Zn03 O9 118.3(12) . . ?
N14 Zn03 O9 111.2(10) . . ?
C1 S1 C4 90.6(11) . . ?
C01S S2 C035 93.7(13) . . ?
C01C S3 C01Z 84.5(15) . . ?
C02Q S4 C028 94(2) . . ?
C02N O1 Zn1 118(2) . . ?
C00Q O00B Zn01 101.4(18) . . ?
C00Z O00C Zn02 126(2) . 1_554 ?
C9 N00H C01U 126(4) . . ?
C9 N00H C01E 117(3) . . ?
C01U N00H C01E 117(4) . . ?
C021 N00J C10 131(3) . . ?
C021 N00J C01F 128(3) . . ?
C10 N00J C01F 101(3) . . ?
C024 N00K C6 114(2) . . ?
C024 N00K C015 132(2) . . ?
C6 N00K C015 113(2) . . ?
C016 O00L Zn01 133(4) . . ?
C013 O00O Zn02 103.3(19) . . ?
O00A C00Q O00B 121(3) . . ?
O00A C00Q C01C 127(3) . . ?
O00B C00Q C01C 109(3) . . ?
C5 N00T C023 123(3) . . ?
C5 N00T C02F 117(3) . . ?
C023 N00T C02F 120(3) . . ?
C00X N00U O6 93(2) . . ?
C00X N00U O5 88(2) . . ?
O6 N00U O5 178(3) . . ?
C027 N2 O3 114(4) . . ?
N00U C00X C11 124(3) . . ?
N00U C00X C01K 119(3) . . ?
C11 C00X C01K 116(3) . . ?
O00C C00Z O011 115(2) . . ?
O00C C00Z C4 126(2) . . ?
O011 C00Z C4 118(2) . . ?
C1 C2 C3 107(3) . . ?
C01R N11 C02V 130(3) . . ?
C01R N11 C02H 138(3) . . ?
C02V N11 C02H 91(3) . . ?
C02K N12 C02Y 140(3) . . ?
C02K N12 C030 116(3) . . ?
C02Y N12 C030 100(3) . . ?
C02T N13 N03G 92(3) . . ?
C02T N13 Zn1 136(3) . . ?
N03G N13 Zn1 132(3) . . ?
C03M N14 C03W 89(3) . . ?
C03M N14 Zn03 124(3) . . ?
C03W N14 Zn03 147(3) . . ?
O00F C013 O00O 123(2) . . ?
O00F C013 C01S 112(2) . . ?
O00O C013 C01S 125(2) . . ?
O00F C013 Zn02 76.8(13) . . ?
O00O C013 Zn02 46.6(14) . . ?
C01S C013 Zn02 170.7(18) . . ?
C7 C015 N00K 125(2) . . ?
C7 C015 C027 120(2) . . ?
N00K C015 C027 114(2) . . ?
O00L C016 O019 130(5) . . ?
O00L C016 C1 123(4) . . ?
O019 C016 C1 106(3) . . ?
O00L C016 Zn01 31(3) . . ?
O019 C016 Zn01 98(3) . . ?
C1 C016 Zn01 152(2) . . ?
C02W N1 O3 111(3) . . ?
C02Z N01B O4 92(4) . . ?
C5 N3 C01L 118(3) . . ?
C5 N3 Zn02 121.6(18) . . ?
C01L N3 Zn02 120(2) . . ?
C025 C01C C00Q 106(5) . . ?
C025 C01C S3 124(5) . . ?
C00Q C01C S3 119(2) . . ?
C024 C01D N4 102(3) . . ?
C01W C01E N00H 134(4) . . ?
C01W C01E C8 109(3) . . ?
N00H C01E C8 117(3) . . ?
C8 C01F C01I 134(4) . . ?
C8 C01F N00J 120(4) . . ?
C01I C01F N00J 106(3) . . ?
C02Z C01I C01F 140(4) . . ?
C01R C01K N7 123(4) . . ?
C01R C01K C00X 121(3) . . ?
N7 C01K C00X 112(3) . . ?
N3 C01L C02F 106(3) . . ?
O01V C01N C02P 132(8) . . ?
O01V C01N O03A 96(7) . . ?
C02P C01N O03A 36(2) . . ?
C01K C01R N11 126(3) . . ?
C01K C01R C02R 120(3) . . ?
N11 C01R C02R 113(2) . . ?
C013 C01S C022 130(3) . . ?
C013 C01S S2 118(2) . . ?
C022 C01S S2 111(2) . . ?
N00H C01U C01Y 104(5) . . ?
C01E C01W N036 130(4) . . ?
N1 O3 N2 99(3) . . ?
N036 O4 N01B 125(3) . . ?
N6 C01Y C01U 89(4) . . ?
C02B C01Z C02L 130(4) . . ?
C02B C01Z S3 112(3) . . ?
C02L C01Z S3 117(3) . . ?
C4 C3 C2 117(4) . . ?
C02W C020 C023 113(3) . . ?
N00J C021 C02J 100(4) . . ?
C029 C022 C01S 109(3) . . ?
N00T C023 C7 119(3) . . ?
N00T C023 C020 118(3) . . ?
C7 C023 C020 120(3) . . ?
N00K C024 C01D 108(2) . . ?
C01C C025 C02B 102(6) . . ?
N2 C027 C02W 106(3) . . ?
N2 C027 C015 136(3) . . ?
C02W C027 C015 118(3) . . ?
C03U C028 S4 99(3) . . ?
C022 C029 C035 118(2) . . ?
C01Z C02B C025 108(4) . . ?
C01L C02F N00T 94(3) . . ?
N10 C02H N11 118(3) . . ?
C021 C02J N5 108(3) . . ?
C11 C02K N12 134(4) . . ?
C11 C02K C02R 114(3) . . ?
N12 C02K C02R 111(3) . . ?
O01A C02L O9 118(5) . . ?
O01A C02L C01Z 116(5) . . ?
O9 C02L C01Z 121(5) . . ?
O1 C02N O2 131(3) . . ?
O1 C02N C02Q 117(2) . . ?
O2 C02N C02Q 109(2) . . ?
C03D N02O N03K 96(10) . . ?
C03D N02O C03M 85(10) . . ?
N03K N02O C03M 106(10) . . ?
C03D N02O C03W 126(10) . . ?
N03K N02O C03W 48(10) . . ?
C03M N02O C03W 73(9) . . ?
C01D N4 C6 110(2) . . ?
C01D N4 Zn01 125(2) . . ?
C6 N4 Zn01 124.6(18) . . ?
O03A C02P N03P 144(5) . . ?
O03A C02P C01N 91(4) . . ?
N03P C02P C01N 125(5) . . ?
C03B C02Q S4 125(3) . . ?
C03B C02Q C02N 111(3) . . ?
S4 C02Q C02N 124(2) . . ?
C01R C02R C02K 117(2) . . ?
N13 C02T C03S 143(4) . . ?
N13 C02T N03G 53(3) . . ?
C03S C02T N03G 95(3) . . ?
N13 C02T Zn1 28(2) . . ?
C03S C02T Zn1 163(2) . . ?
N03G C02T Zn1 81(2) . . ?
C037 C02V N11 113(3) . . ?
N1 C02W C027 110(3) . . ?
N1 C02W C020 126(4) . . ?
C027 C02W C020 124(3) . . ?
N9 C02Y N12 120(3) . . ?
N01B C02Z C01I 145(7) . . ?
C3 C4 C00Z 127(3) . . ?
C3 C4 S1 114(2) . . ?
C00Z C4 S1 119.1(17) . . ?
N12 C030 C03C 89(4) . . ?
C03L C035 C029 130(2) . . ?
C03L C035 S2 125(2) . . ?
C029 C035 S2 104.0(17) . . ?
O4 N036 C01W 101(4) . . ?
C2 C1 C016 128(3) . . ?
C2 C1 S1 110(2) . . ?
C016 C1 S1 121(2) . . ?
C02V C037 N10 112(3) . . ?
C02P O03A C03J 157(5) . . ?
C02P O03A C01N 54(3) . . ?
C03J O03A C01N 104(3) . . ?
N8 O5 N00U 117(3) . . ?
N00U O6 N7 114(3) . . ?
C03L O7 Zn1 114(3) . . ?
C02L O9 Zn03 116(3) . . ?
C02Q C03B C03U 102(3) . . ?
N9 C03C C030 105(4) . . ?
N02O C03D N03K 41(10) . . ?
N02O C03D N03H 144(10) . . ?
N03K C03D N03H 144(5) . . ?
N02O C03D C03M 64(10) . . ?
N03K C03D C03M 80(3) . . ?
N03H C03D C03M 137(4) . . ?
N13 N03G C02X 107(4) . . ?
N13 N03G C02T 34.9(18) . . ?
C02X N03G C02T 88(4) . . ?
C03V N03H C03D 127(4) . . ?
N02O N03K C03D 43(10) . . ?
N02O N03K C03W 105(10) . . ?
C03D N03K C03W 130(5) . . ?
N02O N03K C03M 49(10) . . ?
C03D N03K C03M 59(3) . . ?
C03W N03K C03M 71(3) . . ?
O01X C03L C035 120(3) . . ?
O01X C03L O7 114(3) . . ?
C035 C03L O7 124(3) . . ?
N14 C03M N02O 105(8) . . ?
N14 C03M C03D 129(3) . . ?
N02O C03M C03D 32(9) . . ?
N14 C03M N03K 88(3) . . ?
N02O C03M N03K 25(8) . . ?
C03D C03M N03K 41(2) . . ?
N14 C03M C03W 48(2) . . ?
N02O C03M C03W 59(8) . . ?
C03D C03M C03W 81(3) . . ?
N03K C03M C03W 40(2) . . ?
C03S C03O C03V 112(4) . . ?
C02J N5 C10 111(3) . . ?
C02J N5 Zn01 118(2) . . ?
C10 N5 Zn01 129(2) . . ?
C9 N6 C01Y 121(3) . . ?
C9 N6 Zn02 122(2) . . ?
C01Y N6 Zn02 112(3) . . ?
C01K N7 O6 100(4) . . ?
O5 N8 C11 103(3) . . ?
C02Y N9 C03C 100(3) . . ?
C02Y N9 Zn1 131(3) . . ?
C03C N9 Zn1 127(3) . . ?
C02H N10 C037 100(3) . . ?
C02H N10 Zn03 125(2) . . ?
C037 N10 Zn03 134(3) . . ?
C03O C03S C02T 149(4) . . ?
C03O C03S C03V 40(3) . . ?
C02T C03S C03V 129(3) . . ?
C03B C03U C028 120(3) . . ?
N03H C03V C03O 123(4) . . ?
N03H C03V C03S 151(3) . . ?
C03O C03V C03S 28.0(19) . . ?
N03K C03W N14 112(4) . . ?
N03K C03W C03M 69(3) . . ?
N14 C03W C03M 43(2) . . ?
N03K C03W N02O 28(8) . . ?
N14 C03W N02O 90(8) . . ?
C03M C03W N02O 48(8) . . ?
N00T C5 N3 104(2) . . ?
N00K C6 N4 102(2) . . ?
C015 C7 C023 119(3) . . ?
C01F C8 C01E 114(4) . . ?
N00H C9 N6 98(3) . . ?
N00J C10 N5 89(2) . . ?
C02K C11 N8 123(4) . . ?
C02K C11 C00X 130(4) . . ?
N8 C11 C00X 107(3) . . ?
 
_refine_diff_density_max    4.477
_refine_diff_density_min   -3.049
_refine_diff_density_rms    0.306

_shelx_res_file
;
TITL VV-9_autored_a.res in P2(1)
    VV-9_autored_a.res
    created by SHELXL-2018/3 at 14:44:53 on 24-Jan-2023
REM Old TITL VV-9_autored in P2
REM SHELXT solution in P2(1)
REM R1 0.276,  Rweak 0.162,  Alpha 0.094,  Orientation as input
REM Flack x = -0.793 ( 0.106 ) from Parsons' quotients
REM Formula found by SHELXT:  C89 N24 O26 Zn3
CELL  0.71073  14.6384  14.6218  19.9468   90.000   90.815   90.000
ZERR   60.000   0.0007   0.0006   0.0008    0.000    0.004    0.000
LATT -1
SYMM -X, 1/2+Y, -Z
SFAC C N O Zn S
UNIT 186 40 46 6 6
ACTA
TEMP -123
L.S. 10
BOND $H
LIST 6
FMAP 2
PLAN 20
WGHT    0.100000
FVAR       0.18197
ZN01  4    0.995950    0.724244    0.518993    11.00000    0.04453
ZN1   4    0.509145    0.274503    0.973772    11.00000    0.06004
ZN02  4    0.981944    0.763322    0.992274    11.00000    0.04365
ZN03  4    0.505508    0.249541    0.500071    11.00000    0.06382
S1    5    0.975990    0.734146    0.246749    11.00000    0.04488
S2    5    0.739279    0.528693    0.964567    11.00000    0.06977
S3    5    0.757699    0.485292    0.537048    11.00000    0.04779
S4    5    0.523037    0.275827    1.262070    11.00000    0.04852
O1    3    0.458398    0.260386    1.074558    11.00000    0.08242
O00A  3    0.913717    0.663762    0.625835    11.00000    0.03679
O00B  3    0.901775    0.619178    0.520072    11.00000    0.05204
O00C  3    0.988871    0.767081    0.096552    11.00000    0.04928
O00D  3    0.976933    0.733866    0.751358    11.00000    0.02635
O00F  3    0.921632    0.686462    0.882575    11.00000    0.03955
N00H  2    0.929337    0.978800    0.877466    11.00000    0.06153
N00J  2    0.930129    0.961437    0.616498    11.00000    0.04149
N00K  2    1.220130    0.675126    0.641110    11.00000    0.03474
O00L  3    1.010950    0.762159    0.435343    11.00000    0.04557
O00O  3    0.888488    0.671049    0.994705    11.00000    0.06856
O2    3    0.566391    0.339669    1.129060    11.00000    0.08685
C00Q  1    0.875586    0.620051    0.586338    11.00000    0.04623
N00T  2    1.209555    0.685763    0.888705    11.00000    0.05577
N00U  2    0.060862    0.503038    0.724244    11.00000    0.05018
N2    2    1.377660    0.553964    0.676264    11.00000    0.09016
C00X  1    0.132823    0.444295    0.728950    11.00000    0.03548
C00Z  1    1.036406    0.809663    0.126944    11.00000    0.01885
C2    1    1.094216    0.844106    0.307622    11.00000    0.08659
N11   2    0.282761    0.322953    0.615900    11.00000    0.04621
N12   2    0.286314    0.342023    0.851079    11.00000    0.04659
N13   2    0.532382    0.164803    0.946854    11.00000    0.03445
N14   2    0.528961    0.128505    0.539219    11.00000    0.04901
O011  3    1.083660    0.871665    0.092906    11.00000    0.07024
C013  1    0.876276    0.649301    0.930817    11.00000    0.01763
C015  1    1.251608    0.649340    0.711732    11.00000    0.03094
C016  1    0.982204    0.748740    0.396021    11.00000    0.07298
O019  3    0.916968    0.690005    0.383205    11.00000    0.06747
N1    2    1.437021    0.507586    0.769177    11.00000    0.07325
O01A  3    0.580741    0.321964    0.622859    11.00000    0.10074
N01B  2    0.749294    1.193439    0.707376    11.00000    0.04577
N3    2    1.114566    0.719373    0.955103    11.00000    0.04543
C01C  1    0.813132    0.533674    0.600285    11.00000    0.02671
C01D  1    1.203718    0.700827    0.535445    11.00000    0.04901
C01E  1    0.895433    1.018609    0.815131    11.00000    0.06294
C01F  1    0.905473    1.007294    0.693210    11.00000    0.07479
C01I  1    0.838854    1.083836    0.679795    11.00000    0.04013
C01K  1    0.178818    0.414734    0.667429    11.00000    0.04795
C01L  1    1.192224    0.730442    0.994928    11.00000    0.06788
C01N  1    0.748509   -0.184522    0.738257    11.00000    0.04388
C01R  1    0.238383    0.357412    0.669511    11.00000    0.03536
C01S  1    0.807004    0.583910    0.905592    11.00000    0.03409
C01U  1    0.957034    1.036305    0.924874    11.00000    0.10254
O01V  3    0.764895   -0.201647    0.774936    11.00000    0.23185
C01W  1    0.841073    1.090462    0.800389    11.00000    0.06302
O01X  3    0.586434    0.348239    0.867469    11.00000    0.06368
O3    3    1.447973    0.489611    0.706293    11.00000    0.09971
O4    3    0.739265    1.200134    0.797622    11.00000    0.07912
C01Y  1    0.990884    0.967731    0.988845    11.00000    0.10961
C01Z  1    0.695007    0.426832    0.601936    11.00000    0.05017
C3    1    1.088148    0.864113    0.233935    11.00000    0.05541
C020  1    1.340774    0.598084    0.839002    11.00000    0.03774
C021  1    0.952067    1.001974    0.566215    11.00000    0.06630
C022  1    0.798754    0.539107    0.840424    11.00000    0.05108
C023  1    1.250015    0.652975    0.831199    11.00000    0.03928
C024  1    1.263646    0.702392    0.589785    11.00000    0.04014
C025  1    0.788106    0.542694    0.643795    11.00000    0.13554
C027  1    1.335362    0.588393    0.713730    11.00000    0.02694
C028  1    0.455042    0.201731    1.312465    11.00000    0.10433
C029  1    0.722441    0.487336    0.838977    11.00000    0.01921
N02A  2    0.529233    0.297456    0.741635    11.00000    0.05428
C02B  1    0.716284    0.447472    0.651557    11.00000    0.03369
C02F  1    1.271096    0.715984    0.950323    11.00000    0.10050
C02H  1    0.381661    0.306964    0.593613    11.00000    0.06668
C02J  1    0.978990    0.931673    0.528747    11.00000    0.05527
C02K  1    0.238153    0.365562    0.796533    11.00000    0.04231
C02L  1    0.634190    0.350624    0.580644    11.00000    0.11149
C02N  1    0.509733    0.278126    1.121492    11.00000    0.01692
N02O  2    0.595333    0.023820    0.597928    11.00000    0.52116
N4    2    1.119714    0.701495    0.566531    11.00000    0.03334
C02P  1    0.688225   -0.113424    0.717656    11.00000    0.06445
C02Q  1    0.481803    0.239167    1.194273    11.00000    0.05612
C02R  1    0.282632    0.333125    0.734363    11.00000    0.03424
C02T  1    0.568003    0.135656    0.907133    11.00000    0.05689
C02V  1    0.247551    0.296014    0.548779    11.00000    0.06983
C02W  1    1.374274    0.566044    0.776645    11.00000    0.05908
C02X  1    0.468660    0.012933    0.928808    11.00000    0.14199
C02Y  1    0.378453    0.334189    0.873781    11.00000    0.04605
C02Z  1    0.786860    1.135314    0.710191    11.00000    0.10866
C4    1    1.044656    0.810102    0.199515    11.00000    0.02167
C030  1    0.237752    0.354719    0.919556    11.00000    0.13376
C035  1    0.686552    0.454679    0.903514    11.00000    0.02483
N036  2    0.794366    1.151108    0.844065    11.00000    0.12215
C1    1    1.024395    0.776605    0.322512    11.00000    0.02623
C037  1    0.304942    0.253768    0.515720    11.00000    0.05776
O03A  3    0.679048   -0.094458    0.766985    11.00000    0.09224
O5    3    0.064832    0.511267    0.805462    11.00000    0.08414
O6    3    0.054600    0.493857    0.646958    11.00000    0.10706
O7    3    0.592141    0.376327    0.973652    11.00000    0.09608
O8    3    0.511577    0.256096    1.408918    11.00000    0.06198
O9    3    0.613562    0.338668    0.519700    11.00000    0.05770
O10   3    0.402023    0.154715    1.398763    11.00000    0.10053
C03B  1    0.414790    0.178679    1.188958    11.00000    0.05055
C03C  1    0.304602    0.280207    0.951773    11.00000    0.05050
C03D  1    0.576706    0.022735    0.637327    11.00000    0.06140
N03G  2    0.521208    0.075378    0.979092    11.00000    0.12375
N03H  2    0.599230   -0.002694    0.701186    11.00000    0.06232
C03J  1    0.683659   -0.106349    0.854514    11.00000    0.16057
N03K  2    0.555182   -0.006233    0.582148    11.00000    0.09834
C03L  1    0.619895    0.397685    0.915153    11.00000    0.04782
C03M  1    0.562223    0.116238    0.597694    11.00000    0.04851
C03O  1    0.606392    0.004007    0.818653    11.00000    0.05571
N03P  2    0.669923   -0.093711    0.659506    11.00000    0.10940
N5    2    0.956509    0.852087    0.561925    11.00000    0.04788
N6    2    0.949482    0.884031    0.949353    11.00000    0.04828
N7    2    0.131793    0.430082    0.616076    11.00000    0.11103
N8    2    0.132436    0.470416    0.836594    11.00000    0.08437
N9    2    0.395661    0.306032    0.930748    11.00000    0.07558
N10   2    0.394790    0.276484    0.534376    11.00000    0.05479
C03S  1    0.574146    0.039940    0.858013    11.00000    0.06115
C03U  1    0.396165    0.159495    1.257806    11.00000    0.03384
C03V  1    0.572045    0.030881    0.753271    11.00000    0.06526
C03W  1    0.531209    0.035855    0.529696    11.00000    0.06852
C5    1    1.123588    0.688730    0.896322    11.00000    0.03077
C6    1    1.130614    0.682778    0.635363    11.00000    0.03933
C7    1    1.224737    0.691389    0.768149    11.00000    0.04399
C8    1    0.931070    0.969284    0.742941    11.00000    0.06705
C9    1    0.925437    0.891357    0.882518    11.00000    0.04108
C10   1    0.930173    0.871788    0.630968    11.00000    0.02545
C11   1    0.173572    0.421179    0.785799    11.00000    0.05852
HKLF 4




REM  VV-9_autored_a.res in P2(1)
REM wR2 = 0.5410, GooF = S = 2.849, Restrained GooF = 2.848 for all data
REM R1 = 0.2600 for 10537 Fo > 4sig(Fo) and 0.2742 for all 13570 data
REM 513 parameters refined using 1 restraints

END

WGHT      0.2000      0.0000

REM Highest difference peak  4.477,  deepest hole -3.049,  1-sigma level  0.306
Q1    1   0.4871  0.2595  0.4916  11.00000  0.05    4.40
Q2    1   0.2454  0.0148  0.8409  11.00000  0.05    3.44
Q3    1   0.5347  0.2443  0.5175  11.00000  0.05    3.32
Q4    1   0.7473  0.4936  0.3425  11.00000  0.05    3.12
Q5    1   0.7338  0.5019  0.5292  11.00000  0.05    2.02
Q6    1   0.4894  0.2993  0.9825  11.00000  0.05    1.98
Q7    1   0.8151  0.5895  0.1773  11.00000  0.05    1.90
Q8    1   0.3354  0.0396  0.8375  11.00000  0.05    1.90
Q9    1   0.3611  0.1194  0.6815  11.00000  0.05    1.79
Q10   1   1.1336  0.8900  0.6888  11.00000  0.05    1.78
Q11   1   0.3681  0.1179  0.8019  11.00000  0.05    1.76
Q12   1   0.8333  0.4768  0.3593  11.00000  0.05    1.71
Q13   1   0.7823  0.4682  0.5414  11.00000  0.05    1.66
Q14   1   0.6794  0.4230  1.3285  11.00000  0.05    1.66
Q15   1   1.1400  0.8928  0.8178  11.00000  0.05    1.63
Q16   1   0.7485 -0.1785  0.8429  11.00000  0.05    1.61
Q17   1   0.5280  0.2210  1.0128  11.00000  0.05    1.61
Q18   1   0.7198  0.5449  0.9579  11.00000  0.05    1.53
Q19   1   0.7842  0.4330  1.1525  11.00000  0.05    1.52
Q20   1   0.7193 -0.1260  0.8470  11.00000  0.05    1.48
;
_shelx_res_checksum   99043

_shelx_hkl_file
;
   0 -13  -4   41.52    7.14
   0 -13  -5   10.40    3.77
   0 -12  -3   81.49    9.27
   0 -12  -4   20.89    4.68
   0 -12  -5   45.60    6.98
   0 -12  -6   49.69    7.68
   0 -11  -2    3.88    1.50
   0 -11  -3    4.76    1.98
   0 -11  -4    6.09    2.31
   0 -11  -5   20.15    4.49
   0 -11  -6    2.69    1.72
   0 -11  -7  160.87   12.97
   0 -11  -8    2.61    1.78
   0 -10  -2  205.83   13.13
   0 -10  -3  202.25   12.79
   0 -10  -4   62.29    7.43
   0 -10  -5   27.89    4.86
   0 -10  -6   28.55    5.10
   0 -10  -7   49.31    6.91
   0 -10  -8  103.37   10.20
   0 -10  -9   84.55    9.63
   0  -9  -1  169.50   11.06
   0  -9  -2   49.82    6.02
   0  -9  -3   51.70    6.35
   0  -9  -4    8.06    2.39
   0  -9  -5  165.20   11.47
   0  -9  -6  107.62    9.36
   0  -9  -7  214.42   13.80
   0  -9  -8   52.85    7.04
   0  -9  -9   16.88    4.07
   0  -9 -10    5.27    2.44
   0  -8  -1  358.99   15.08
   0  -8  -2  288.04   13.56
   0  -8  -3  277.44   13.45
   0  -8  -4  464.65   17.73
   0  -8  -5  129.07    9.51
   0  -8  -6   79.73    7.85
   0  -8  -7   12.22    3.09
   0  -8  -8    2.85    1.64
   0  -8  -9    3.35    1.79
   0  -8 -10   36.21    6.18
   0  -8 -11   12.49    3.60
   0  -7  -1    9.55    2.28
   0  -7  -2    5.31    1.59
   0  -7  -3  234.78   11.44
   0  -7  -4   16.41    3.11
   0  -7  -5   35.41    4.74
   0  -7  -6   71.48    6.88
   0  -7  -7   58.48    6.57
   0  -7  -8   16.01    3.51
   0  -7  -9    2.59    1.43
   0  -7 -10  139.98   11.46
   0  -7 -11   21.35    4.85
   0  -7 -12   38.08    6.40
   0  -6   0   36.83    4.00
   0  -6  -1    4.51    1.37
   0  -6  -2  463.39   14.60
   0  -6  -3   89.87    6.49
   0  -6  -4  981.13   22.60
   0  -6  -5   51.41    5.45
   0  -6  -6  136.73    9.36
   0  -6  -7  165.08   10.48
   0  -6  -8   84.24    8.13
   0  -6  -9   19.94    4.03
   0  -6 -10  138.92   11.20
   0  -6 -11  124.29   11.02
   0  -6 -12  223.35   15.32
   0  -6  14   54.84    7.42
   0  -6  15   29.69    6.21
   0  -6  16   14.15    3.74
   0  -6  17   30.45    6.15
   0  -6  18    8.61    3.38
   0  -6  19   28.59    6.40
   0  -6  20    7.64    3.14
   0  -6  21   76.21   11.03
   0  -6  22   14.08    4.66
   0  -6  23   17.55    5.59
   0  -6  24   10.00    4.29
   0  -6  25   11.51    5.06
   0  -5   0    0.36    0.40
   0  -5  -1  377.36   12.09
   0  -5  -2   27.48    3.26
   0  -5  -3  426.00   13.30
   0  -5  -4   12.28    2.30
   0  -5  -5   68.19    5.79
   0  -5  -6    2.23    1.19
   0  -5  -7  215.34   11.81
   0  -5  -8   12.16    2.96
   0  -5  -9  249.78   14.09
   0  -5 -10    7.42    2.59
   0  -5  10   10.64    2.75
   0  -5 -11  183.36   13.71
   0  -5  11  250.33   14.50
   0  -5 -12   29.95    5.63
   0  -5  12   19.85    4.16
   0  -5 -13   82.82    9.83
   0  -5  13  101.77   10.00
   0  -5  14   45.68    7.30
   0  -5  15   53.71    7.99
   0  -5  16   43.30    7.04
   0  -5  17   16.47    4.85
   0  -5  18    6.59    3.19
   0  -5  19    1.90    2.10
   0  -5  20    4.51    2.57
   0  -5  21    1.35    2.26
   0  -5  22    2.67    2.05
   0  -5  23    2.22    2.01
   0  -5  24    2.96    2.71
   0  -5  25    0.26    0.95
   0  -5  26    3.47    3.55
   0  -4   0 2208.42   25.85
   0  -4  -1  329.80    9.84
   0  -4  -2  833.63   16.27
   0  -4  -3    3.33    1.07
   0  -4  -4 1716.45   26.32
   0  -4  -5   36.44    4.12
   0  -4  -6  243.96   11.46
   0  -4  -7  154.73    9.93
   0  -4   7  118.74    8.02
   0  -4  -8  424.62   17.08
   0  -4   8  359.68   14.99
   0  -4  -9   32.45    5.06
   0  -4   9   33.45    4.75
   0  -4 -10   76.37    8.05
   0  -4  10   82.93    7.65
   0  -4 -11   16.11    3.87
   0  -4  11   20.97    4.00
   0  -4 -12   83.40    9.22
   0  -4  12  118.08    9.96
   0  -4 -13   25.59    5.28
   0  -4  13   24.46    4.65
   0  -4  14   20.06    4.42
   0  -4  15   42.15    7.10
   0  -4  16   12.40    3.76
   0  -4  17  100.70   11.15
   0  -4  18    8.35    3.35
   0  -4  19   53.12    8.47
   0  -4  20   51.36    8.49
   0  -4  21   81.53   11.43
   0  -4  22   14.34    4.73
   0  -4  23   17.00    6.03
   0  -4  24    4.14    3.04
   0  -4  25   30.90    7.79
   0  -4  26   15.55    5.71
   0  -3   0    0.45    0.32
   0  -3  -1  884.59   13.99
   0  -3  -2   12.24    1.75
   0  -3  -3  965.15   17.13
   0  -3  -4   12.75    2.14
   0  -3  -5    6.80    1.72
   0  -3   5    5.69    1.41
   0  -3  -6   20.99    3.27
   0  -3   6   15.55    2.74
   0  -3  -7   62.37    6.15
   0  -3   7   57.25    5.38
   0  -3  -8   95.06    8.33
   0  -3   8   59.19    6.01
   0  -3  -9   19.75    4.03
   0  -3   9   31.65    4.40
   0  -3 -10   40.26    5.97
   0  -3 -10   42.29    5.66
   0  -3  10   58.00    6.15
   0  -3 -11   46.08    6.66
   0  -3 -11   48.64    6.31
   0  -3  11   65.11    6.94
   0  -3 -12   12.77    3.57
   0  -3 -12   14.72    3.80
   0  -3  12    9.30    2.83
   0  -3 -13   45.50    6.71
   0  -3 -13   42.66    6.99
   0  -3  13   60.34    7.30
   0  -3 -14   32.92    6.27
   0  -3 -14   30.54    5.69
   0  -3  14   32.15    5.52
   0  -3 -15   96.39   10.59
   0  -3  15  128.00   11.40
   0  -3  16   26.34    5.24
   0  -3  17  101.62   10.88
   0  -3  18    4.59    2.56
   0  -3  19   37.93    7.06
   0  -3  20    8.87    4.60
   0  -3  21   31.26    6.68
   0  -3  22    1.34    2.00
   0  -3  23   17.07    5.23
   0  -3  24    7.24    3.75
   0  -3  25    6.66    3.27
   0  -3  26    1.60    2.14
   0  -2   0 2118.75   16.82
   0  -2  -1   77.25    3.35
   0  -2  -2 2027.59   20.33
   0  -2  -3   16.93    2.09
   0  -2   3   14.32    1.80
   0  -2  -4 1874.10   26.46
   0  -2   4 1950.42   23.54
   0  -2  -5   14.78    2.38
   0  -2  -5   13.68    2.38
   0  -2   5   16.90    2.37
   0  -2  -6   41.49    4.46
   0  -2  -6   38.64    4.31
   0  -2   6   64.19    5.02
   0  -2  -7   20.09    3.31
   0  -2  -7   21.56    3.37
   0  -2   7   16.54    2.75
   0  -2  -8 1189.81   27.79
   0  -2  -8 1245.36   27.60
   0  -2   8 1238.61   25.68
   0  -2  -9  165.19   10.56
   0  -2  -9  160.78   10.84
   0  -2   9  108.64    8.59
   0  -2 -10  289.14   15.25
   0  -2 -10  291.67   14.76
   0  -2  10  341.92   15.10
   0  -2 -11   31.96    5.36
   0  -2  11   40.30    5.29
   0  -2 -11   32.06    5.16
   0  -2 -12  140.54   11.70
   0  -2 -12  139.56   11.36
   0  -2  12  111.23    9.61
   0  -2 -13   66.15    8.29
   0  -2 -13   69.33    8.21
   0  -2  13   71.39    7.96
   0  -2 -14    7.31    2.95
   0  -2 -14    9.30    3.20
   0  -2  14    8.93    2.92
   0  -2 -15   34.30    6.26
   0  -2  15   20.26    4.70
   0  -2 -16  269.87   18.10
   0  -2  16  287.28   18.25
   0  -2  17  191.22   15.14
   0  -2  18   12.11    4.31
   0  -2  19   73.86    9.82
   0  -2  20   12.82    4.12
   0  -2  21  160.72   15.69
   0  -2  22    6.45    3.16
   0  -2  23   32.90    7.56
   0  -2  24    1.44    1.48
   0  -2  25   66.41   11.28
   0  -2  26   -0.40    1.36
   0  -2  27    2.83    2.46
   0  -1  -2    4.31    0.84
   0  -1   2    3.74    0.74
   0  -1  -3   49.32    3.48
   0  -1  -3   53.15    3.59
   0  -1   3   75.53    3.89
   0  -1   4   24.41    2.60
   0  -1  -4   23.01    2.61
   0  -1   5  324.74   10.09
   0  -1  -5  259.57   10.00
   0  -1   6   53.09    4.55
   0  -1  -6   55.15    4.95
   0  -1   7   47.14    4.68
   0  -1  -7   40.78    4.56
   0  -1   8   19.57    3.34
   0  -1  -8   32.92    4.47
   0  -1   9  222.56   11.67
   0  -1  -9  206.22   11.71
   0  -1  10   54.34    6.07
   0  -1 -10   57.41    6.45
   0  -1  11  328.87   15.65
   0  -1 -11  241.87   14.08
   0  -1 -12    0.68    1.01
   0  -1  12    2.10    1.48
   0  -1  13   83.44    8.53
   0  -1 -13   50.57    7.08
   0  -1 -14   59.99    8.23
   0  -1  14   49.95    6.88
   0  -1 -14   58.14    7.63
   0  -1 -15   90.30   10.64
   0  -1  15  123.18   11.11
   0  -1 -15   89.23   10.03
   0  -1  16   61.13    8.20
   0  -1 -16   73.40    9.23
   0  -1  17   28.31    5.96
   0  -1  18    5.18    2.88
   0  -1  19   44.87    8.31
   0  -1  20   25.22    6.18
   0  -1  21   10.30    4.08
   0  -1  22    5.28    2.66
   0  -1  23    4.34    2.73
   0  -1  24    1.61    1.34
   0  -1  25    2.31    1.73
   0  -1  26    3.27    2.44
   0  -1  27    1.85    2.32
   0   0   2  280.32    6.12
   0   0  -3    1.82    0.66
   0   0   3    1.39    0.51
   0   0  -4  188.23    7.10
   0   0   4  180.29    6.87
   0   0   5    4.89    1.32
   0   0  -5    3.74    1.21
   0   0  -6  300.15   11.04
   0   0   6  304.81   10.97
   0   0   7    0.30    0.16
   0   0  -7    0.82    0.58
   0   0  -8 1037.09   23.84
   0   0   8 1077.99   24.44
   0   0   9   72.93    6.52
   0   0  -9   76.61    6.97
   0   0 -10   33.80    4.88
   0   0  10   32.76    4.59
   0   0  11  112.69    9.22
   0   0 -11  118.23    9.63
   0   0  12   36.48    5.46
   0   0 -12   39.58    5.69
   0   0  13   31.29    5.24
   0   0 -13   34.31    5.56
   0   0 -14   19.87    4.53
   0   0  14   17.56    4.17
   0   0 -15    5.83    2.44
   0   0  15    3.34    1.66
   0   0 -16   11.36    3.90
   0   0  16    6.98    2.96
   0   0  17   81.64   10.10
   0   0  18    1.87    1.85
   0   0  19  142.39   14.13
   0   0  20    3.25    2.12
   0   0  21  218.95   18.45
   0   0  22    0.10    0.58
   0   0  23   27.24    7.01
   0   0  24   11.00    4.22
   0   0  25  112.58   15.30
   0   0  26    0.12    1.13
   0   1   2    4.65    0.93
   0   1   2    4.74    0.88
   0   1  -2    3.24    0.70
   0   1  -3   71.43    3.75
   0   1   3   53.62    3.71
   0   1  -4   26.05    2.60
   0   1   4   25.37    2.78
   0   1  -5  319.44    9.96
   0   1   5  266.98    9.92
   0   1   6   52.51    4.75
   0   1  -6   49.88    4.40
   0   1  -7   40.76    4.26
   0   1   7   39.44    4.46
   0   1   8   25.65    3.94
   0   1  -8   17.83    3.17
   0   1   9  211.25   11.65
   0   1  -9  219.58   11.72
   0   1  10   53.77    5.94
   0   1 -10   52.60    5.88
   0   1  11  240.43   13.67
   0   1 -11  323.57   15.57
   0   1 -12    1.53    1.14
   0   1  12    1.16    1.05
   0   1 -13   87.51    9.02
   0   1  13   57.90    7.54
   0   1  14   58.90    7.50
   0   1 -14   50.89    7.20
   0   1  15   85.16    9.69
   0   1 -15  143.14   12.57
   0   1 -16   68.32    8.80
   0   1  16   68.48    8.96
   0   1  17   38.84    6.88
   0   1 -17   28.92    6.20
   0   1  18    4.67    2.52
   0   1  19   89.49   11.48
   0   1  20   24.36    6.10
   0   1  21   28.69    6.77
   0   1  22    3.22    2.64
   0   1  23   11.65    4.45
   0   1  24   -0.01    1.24
   0   1  25    4.36    2.64
   0   1  26    1.63    1.47
   0   2   0 2142.69   17.15
   0   2   1   76.60    3.48
   0   2   2 2146.32   21.23
   0   2   3   19.37    2.33
   0   2  -3   14.59    1.84
   0   2  -4 1917.32   23.31
   0   2   4 1882.82   25.86
   0   2  -5   16.70    2.34
   0   2   5   17.15    2.71
   0   2  -6   64.53    5.11
   0   2   6   45.06    4.73
   0   2  -7   16.79    2.78
   0   2   7   20.18    3.28
   0   2   8 1276.45   27.78
   0   2  -8 1191.07   24.67
   0   2  -9  107.81    8.15
   0   2   9  169.51   10.69
   0   2 -10  329.97   14.53
   0   2  10  304.00   14.94
   0   2  11   29.15    5.00
   0   2 -11   44.68    5.72
   0   2 -12  119.85   10.13
   0   2  12  153.28   11.63
   0   2  13   70.91    8.21
   0   2 -13   76.02    8.27
   0   2 -14    8.27    2.79
   0   2  14    6.47    2.53
   0   2 -15   22.08    4.97
   0   2  15   33.59    5.99
   0   2  16  266.85   18.40
   0   2 -16  307.30   18.85
   0   2  17  116.21   11.97
   0   2 -17  192.76   16.02
   0   2  18   18.28    4.97
   0   2  19   73.61   10.48
   0   2  20   13.73    4.70
   0   2  21  145.62   15.44
   0   2  22    4.63    2.75
   0   2  23   41.32    8.78
   0   2  24    5.49    3.42
   0   2  25   52.71   10.54
   0   2  26    4.59    3.42
   0   3   0    0.50    0.25
   0   3   1  872.10   13.74
   0   3   2   12.51    1.74
   0   3   3 1050.91   18.46
   0   3   4   16.97    2.54
   0   3  -4   16.87    2.24
   0   3   5    7.38    1.81
   0   3   5    6.71    1.70
   0   3  -5    5.14    1.40
   0   3  -6   17.27    2.85
   0   3   6   25.83    3.69
   0   3  -7   55.24    5.18
   0   3   7   70.15    6.64
   0   3  -8   56.20    5.87
   0   3   8   94.16    8.11
   0   3  -9   27.94    4.06
   0   3   9   19.82    4.01
   0   3 -10   58.85    6.16
   0   3  10   39.81    5.74
   0   3  11   46.21    6.45
   0   3 -11   67.27    7.19
   0   3 -12   10.51    2.96
   0   3  12   16.91    4.04
   0   3  13   42.69    6.97
   0   3 -13   68.68    7.84
   0   3 -14   33.60    5.72
   0   3  14   31.81    5.83
   0   3  15   88.43   10.58
   0   3 -15  131.80   11.74
   0   3  16   18.94    4.83
   0   3 -16   30.01    5.73
   0   3 -17  106.53   11.45
   0   3  17   82.32   10.65
   0   3  18   10.70    3.86
   0   3  19   17.97    5.32
   0   3  20   27.61    6.52
   0   3  21   14.45    5.46
   0   3  22    5.07    2.83
   0   3  23    9.42    4.37
   0   3  24   12.07    5.04
   0   3  25    4.35    3.31
   0   4   0 2049.47   23.39
   0   4   1  323.40    9.43
   0   4  -1  361.05   10.07
   0   4   2  819.97   16.13
   0   4   3    6.12    1.54
   0   4   4 1845.15   28.03
   0   4  -4 1836.63   27.08
   0   4   5   36.52    4.29
   0   4  -5   34.35    3.78
   0   4   6  275.88   12.62
   0   4   6  278.58   12.79
   0   4  -6  287.23   11.79
   0   4  -7  124.49    8.10
   0   4   7  162.10   10.24
   0   4  -8  347.53   14.59
   0   4   8  469.74   18.73
   0   4  -9   30.39    4.39
   0   4   9   32.40    5.02
   0   4 -10   86.71    7.86
   0   4  10   87.18    8.71
   0   4 -11   21.62    4.01
   0   4  11   16.65    4.25
   0   4  12   92.54    9.63
   0   4 -12  123.86   10.06
   0   4 -13   27.07    4.96
   0   4  13   23.82    5.04
   0   4 -14   20.22    4.53
   0   4  14   40.79    6.83
   0   4 -15   45.28    7.06
   0   4  15   62.84    8.93
   0   4 -16   10.09    3.30
   0   4  16    7.30    3.42
   0   4 -17   99.66   11.03
   0   4  17   56.60    9.10
   0   4  18   10.48    3.84
   0   4  19   32.67    7.17
   0   4  20   29.99    7.54
   0   4  21   81.03   11.80
   0   4  22   15.17    5.19
   0   4  23   32.97    8.10
   0   4  24    4.73    3.00
   0   4  25   34.94    8.94
   0   5   0    0.42    0.02
   0   5   1  359.72   10.98
   0   5  -1  357.45   11.47
   0   5   2   23.05    2.86
   0   5   3  449.47   13.85
   0   5   4   13.71    2.50
   0   5   5   86.83    7.30
   0   5  -5   78.91    6.37
   0   5   6    1.69    0.92
   0   5  -6    1.74    1.09
   0   5   7  243.31   13.19
   0   5   7  238.19   12.94
   0   5  -7  256.87   12.33
   0   5   8   12.23    3.13
   0   5  -8   16.43    3.17
   0   5  -9  396.34   16.54
   0   5   9  282.80   15.72
   0   5  10    9.25    2.93
   0   5 -10   11.08    2.84
   0   5 -11  278.69   15.07
   0   5  11  197.72   14.20
   0   5 -12   29.32    5.08
   0   5  12   34.10    6.08
   0   5  13   87.68   10.18
   0   5 -13  100.07    9.74
   0   5 -14   46.52    7.03
   0   5  14   81.05    9.79
   0   5  15   83.97   10.37
   0   5 -15   59.75    8.18
   0   5  16   25.66    5.88
   0   5 -16   44.16    6.83
   0   5  17   28.48    6.48
   0   5  18   18.02    5.51
   0   5  19    2.78    1.91
   0   5  20    4.13    2.59
   0   5  21    9.24    4.13
   0   5  22   -1.03    0.59
   0   5  23    5.56    3.57
   0   5  24    4.39    3.09
   0   6   0   35.82    3.77
   0   6   1    4.12    1.19
   0   6  -1    4.61    1.31
   0   6   2  431.60   13.61
   0   6  -2  445.18   13.97
   0   6   3   94.50    6.71
   0   6   4 1086.06   24.96
   0   6   5   51.84    5.53
   0   6   6  152.01   10.34
   0   6  -6  160.32   10.25
   0   6   7  190.42   11.90
   0   6   7  187.96   12.12
   0   6  -7  184.21   10.86
   0   6   8  100.79    9.35
   0   6  -8  143.32    9.94
   0   6   9   20.94    4.32
   0   6  -9   14.34    3.24
   0   6 -10  172.93   11.72
   0   6  10  158.30   12.62
   0   6 -11  119.90    9.97
   0   6  11  139.62   12.34
   0   6 -12  301.30   16.72
   0   6  12  263.82   17.77
   0   6 -13   36.19    5.82
   0   6  13   68.26    9.44
   0   6 -14   57.88    7.80
   0   6  14   49.14    8.29
   0   6 -15   40.18    6.45
   0   6  15   66.68    9.54
   0   6  16   13.94    4.45
   0   6 -16   18.56    4.60
   0   6  17   38.56    7.84
   0   6  18    5.88    3.14
   0   6  19   23.77    6.46
   0   6  20    6.38    3.63
   0   6  21   59.37   11.10
   0   6  22   12.88    5.02
   0   6  23   20.96    6.89
   0   6  24   17.55    6.17
   0   7   0    0.37    0.52
   0   7   1   11.58    2.36
   0   7  -1   12.46    2.48
   0   7   2    4.24    1.39
   0   7  -2    7.64    1.91
   0   7   3  236.76   11.41
   0   7  -3  238.54   11.47
   0   7   4   19.76    3.52
   0   7   5   40.27    5.22
   0   7   6   81.35    8.07
   0   7  -6   51.97    6.02
   0   7   7   70.38    7.57
   0   7  -7  101.45    8.75
   0   7   8   17.35    3.96
   0   7   8   18.72    3.98
   0   7  -8   12.58    3.12
   0   7   9    4.09    1.86
   0   7  -9    4.25    1.91
   0   7 -10  162.53   11.62
   0   7  10  156.18   12.95
   0   7 -11   37.95    5.77
   0   7  11   25.99    5.48
   0   7 -12   41.06    6.25
   0   7  12   50.37    7.90
   0   7 -13   17.31    4.25
   0   7  13   14.59    4.55
   0   7 -14   15.11    3.98
   0   7  14   29.06    6.34
   0   7 -15   11.95    3.72
   0   7  15   15.66    4.86
   0   7  16   11.35    4.18
   0   7  17    5.28    3.08
   0   7  18   22.17    6.36
   0   7  19    6.70    4.01
   0   7  20   22.34    6.87
   0   7  21   11.02    5.19
   0   7  22    2.78    2.43
   0   7  23    4.39    3.53
   0   8   0  406.04   14.72
   0   8  -1  353.90   13.79
   0   8   1  339.81   13.63
   0   8   2  266.79   12.19
   0   8  -2  263.66   11.91
   0   8   3  278.31   13.14
   0   8  -3  306.52   13.12
   0   8   4  479.21   18.07
   0   8  -4  463.47   17.42
   0   8   5  139.74   10.14
   0   8   6   88.78    8.64
   0   8  -6  103.02    9.08
   0   8   7   14.01    3.50
   0   8  -7   15.95    3.57
   0   8   8    3.70    1.95
   0   8   8    4.88    2.28
   0   8  -8    6.76    2.28
   0   8   9    5.42    2.41
   0   8   9    5.91    2.45
   0   8  -9   11.37    3.17
   0   8  10   37.59    6.54
   0   8 -10   46.30    6.46
   0   8  11   14.28    4.26
   0   8 -11   15.63    3.57
   0   8 -12  128.30   11.50
   0   8  12   96.64   11.46
   0   8  13    7.44    3.41
   0   8 -13   11.80    3.60
   0   8 -14   55.64    8.06
   0   8  14   44.97    8.25
   0   8  15    4.03    2.82
   0   8  16    7.06    4.10
   0   8  17   14.47    5.51
   0   8  18   34.66    7.96
   0   8  19    8.46    4.90
   0   8  20   13.26    5.52
   0   8  21   42.87   10.64
   0   8  22   16.43    5.95
   0   9   0    8.51    2.17
   0   9   1  163.22   10.03
   0   9  -1  202.10   10.93
   0   9   2   44.80    5.22
   0   9  -2   63.74    6.20
   0   9   3   42.31    5.34
   0   9  -3   33.34    4.68
   0   9   4    9.57    2.62
   0   9  -4    8.11    2.23
   0   9   5  169.68   11.64
   0   9  -5  141.64   10.23
   0   9   6  119.42   10.21
   0   9   7  246.03   15.49
   0   9  -7  255.02   15.28
   0   9   8   54.09    7.23
   0   9  -8   71.93    8.31
   0   9   9   21.66    5.01
   0   9   9   21.11    4.66
   0   9  -9   30.50    5.49
   0   9  10    6.52    3.04
   0   9 -10   10.11    3.30
   0   9 -11   89.87    9.54
   0   9  11   56.33    8.69
   0   9  12   10.65    3.74
   0   9 -12   10.45    3.49
   0   9  13   15.94    5.12
   0   9 -13   23.19    5.29
   0   9  14   52.08    9.08
   0   9  15    7.66    3.81
   0   9  16   32.71    7.47
   0   9  17   30.94    7.93
   0   9  18   15.63    5.95
   0   9  19   22.87    6.43
   0   9  20    2.07    2.58
   0   9  21   13.78    5.52
   0  10   0   50.54    5.78
   0  10   1  190.71   11.43
   0  10  -1  171.88   10.60
   0  10   2  181.83   11.36
   0  10  -2  151.64   10.19
   0  10   3  196.45   12.19
   0  10  -3  178.18   11.13
   0  10   4   59.69    7.05
   0  10  -4   47.41    6.06
   0  10   5   28.68    4.92
   0  10  -5   30.62    4.68
   0  10   6   28.88    5.11
   0  10  -6   27.02    4.78
   0  10   7   50.17    7.18
   0  10  -7   45.75    6.60
   0  10   8  109.18   10.77
   0  10  -8  124.36   11.55
   0  10   9   90.70   10.69
   0  10   9   86.59    9.99
   0  10  -9   86.76    9.36
   0  10  10   23.61    5.91
   0  10 -10   22.98    5.20
   0  10  11   92.28   11.45
   0  10 -11   74.02    9.08
   0  10 -12   43.99    7.25
   0  10  12   47.68    8.51
   0  10  13   42.33    8.22
   0  10  14   17.45    5.43
   0  10  15   22.95    6.40
   0  10  16   35.08    8.41
   0  10  17    4.69    3.20
   0  10  18   41.74    9.51
   0  10  19    0.21    0.83
   0  10  20   10.45    5.66
   0  11   0    1.84    1.09
   0  11  -1    9.90    2.61
   0  11   1    7.75    2.37
   0  11   2    6.17    2.39
   0  11  -2    4.28    1.70
   0  11   3    3.92    1.88
   0  11  -3    3.74    1.72
   0  11   4    4.86    1.91
   0  11  -4    7.36    2.30
   0  11   5   19.19    4.24
   0  11  -5   17.24    3.66
   0  11   6    3.32    1.91
   0  11  -6    1.40    1.07
   0  11   7  172.06   14.03
   0  11  -7  145.20   12.56
   0  11  -7  162.27   12.48
   0  11   8    2.47    1.74
   0  11  -8    2.83    1.94
   0  11   9    4.54    2.47
   0  11   9    2.61    0.30
   0  11  -9    4.44    2.33
   0  11  10   21.14    5.65
   0  11  11    1.56    0.59
   0  11  12    7.11    3.86
   0  11  13    5.77    3.40
   0  11  14   41.29    8.71
   0  11  15   15.00    5.53
   0  11  16   30.49    7.86
   0  11  17   12.68    4.88
   0  11  18   32.06    9.23
   0  11  19   17.54    6.10
   0  12   0   45.19    6.06
   0  12  -1   46.02    6.06
   0  12   1   42.85    5.83
   0  12  -2    3.81    1.58
   0  12   2    4.26    1.91
   0  12  -3   68.42    7.54
   0  12   3   78.77    8.58
   0  12  -4   15.59    3.48
   0  12   4   20.54    4.54
   0  12  -5   46.13    6.23
   0  12   5   45.71    6.87
   0  12  -6   41.54    6.33
   0  12   6   50.70    7.66
   0  12  -7   40.86    6.31
   0  12   7   37.37    6.63
   0  12  -8   10.91    3.36
   0  12   8   15.04    4.20
   0  12   9   13.88    4.61
   0  12   9   15.02    4.39
   0  12  10   22.27    5.90
   0  12  11    1.60    1.78
   0  12  12    7.44    3.66
   0  12  13    7.93    3.41
   0  12  14   24.18    6.96
   0  12  15   -0.05    1.58
   0  12  16   13.31    5.04
   0  12  17   19.32    6.64
   0  12  18   12.39    5.65
   0  13   0   20.75    4.32
   0  13   1    5.67    2.52
   0  13  -1    3.97    1.94
   0  13  -2   25.58    4.60
   0  13   2   39.78    6.24
   0  13  -3    1.87    0.89
   0  13   3    1.15    1.17
   0  13  -4   30.91    5.38
   0  13   4   42.57    6.96
   0  13  -5    5.93    2.18
   0  13   5    9.52    3.23
   0  13  -6   26.92    4.99
   0  13   6   45.44    7.65
   0  13  -7   27.06    5.29
   0  13   7   42.41    7.53
   0  13  -8    7.71    2.84
   0  13   8   10.88    3.64
   0  13  -9    8.06    3.02
   0  13   9    5.48    3.17
   0  13   9    4.60    2.72
   0  13 -10   58.70    8.42
   0  13  10   42.08    8.23
   0  13  11    7.37    4.26
   0  13  12   40.06    8.74
   0  13  13    4.42    3.49
   0  13  14    7.92    4.35
   0  13  15    5.89    3.66
   0  13  16    5.30    3.17
   0  14   0    4.41    1.89
   0  14   1    2.29    1.52
   0  14  -1    0.88    0.28
   0  14   2   21.06    4.72
   0  14  -2   15.96    3.81
   0  14   3   15.55    4.25
   0  14  -3    9.68    2.77
   0  14   4    6.24    2.46
   0  14  -4    6.92    2.50
   0  14   5    2.93    1.96
   0  14  -5    0.86    0.62
   0  14   6   15.58    4.61
   0  14  -6    8.35    2.74
   0  14   7   71.28    9.99
   0  14  -7   52.92    7.31
   0  14   8   30.18    6.37
   0  14  -8   35.20    6.32
   0  14   9   44.99    8.91
   0  14   9   40.05    7.78
   0  14  -9   26.72    5.32
   0  14  10   11.02    4.62
   0  14 -10    8.74    3.37
   0  14  11   -0.23    1.25
   0  14 -11    4.67    2.93
   0  14  12    5.19    3.11
   0  14 -12    7.33    2.85
   0  14  13    2.31    3.13
   0  14  14    5.76    3.84
   0  14  15    1.11    0.31
   0  15   0    2.34    1.53
   0  15   1    1.44    1.20
   0  15  -1    2.74    1.69
   0  15   2    4.11    2.03
   0  15  -2    2.85    1.75
   0  15   3    7.17    2.64
   0  15  -3    7.18    2.71
   0  15   4    7.60    2.91
   0  15  -4    8.91    2.63
   0  15   5    5.68    2.25
   0  15  -5    6.39    2.50
   0  15   6    8.92    3.48
   0  15  -6    5.60    2.28
   0  15   7   54.08    9.00
   0  15  -7   47.78    7.09
   0  15   8    8.46    3.34
   0  15  -8    7.78    2.64
   0  15   9    6.94    3.14
   0  15   9    9.72    4.19
   0  15  -9    6.50    2.63
   0  15  10   13.85    4.88
   0  15 -10   14.55    4.07
   0  15  11    5.59    3.46
   0  15 -11    4.21    2.40
   0  15  12    0.43    1.75
   0  15 -12    2.35    1.80
   0  15  13    5.81    3.72
   0  16   0    1.86    1.25
   0  16   1   43.79    7.26
   0  16  -1   47.14    7.39
   0  16   2    5.64    2.53
   0  16  -2    1.63    0.78
   0  16   3   17.39    4.42
   0  16  -3   19.32    4.48
   0  16   4    4.29    2.12
   0  16  -4    3.08    1.54
   0  16   5    0.30    0.06
   0  16  -5    0.97    1.13
   0  16   6    2.65    2.07
   0  16  -6   -0.20    0.92
   0  16   7    8.46    3.39
   0  16  -7    9.83    3.25
   0  16   8   21.08    5.93
   0  16  -8   14.25    4.15
   0  16   9   -2.12    2.75
   0  16  10   26.54    7.50
   0  16  11    5.96    3.93
   0  17   0   20.07    5.38
   0  17  -1    4.81    1.97
   0  17   1    4.52    1.77
   0  17   2   13.03    4.44
   0  17  -2    7.32    2.96
   0  17   3    2.82    1.90
   0  17  -3    1.92    1.02
   0  17   4    6.76    3.65
   0  17  -4    5.09    2.46
   0  17   5    2.22    1.81
   0  17   6    6.72    2.92
   0  17   7    2.75    2.74
   0  17   8    7.20    4.45
   0  18   2    2.54    1.42
   0  18   3    2.90    1.82
   0  18   4    1.27    1.59
   0  18   5    0.79    1.19
   0  18   6    2.92    2.41
   0  18   7    6.20    3.61
   1 -14  -4    8.95    3.21
   1 -13  -6   12.02    3.73
   1 -13  -5    9.06    2.84
   1 -13  -4   23.73    5.01
   1 -13  -3   15.51    3.81
   1 -12  -7   98.50   10.42
   1 -12  -6   51.76    7.30
   1 -12  -5   77.30    9.19
   1 -12  -4   15.05    3.84
   1 -12  -3   76.55    8.67
  -1 -12  -3   83.39    9.53
  -1 -12  -4   48.14    7.54
  -1 -12  -5   30.42    5.86
   1 -11  -8   41.45    6.51
   1 -11  -7   33.74    5.85
   1 -11  -6   49.87    6.85
   1 -11  -5   12.08    3.22
   1 -11  -4   27.48    4.99
   1 -11  -3    8.11    2.44
   1 -11  -2   29.89    4.99
  -1 -11  -3    7.58    2.67
  -1 -11  -4   48.50    7.08
  -1 -11  -5    7.90    3.12
  -1 -11  -6  155.66   12.84
  -1 -11  -7   41.00    6.88
   1 -10  -9   49.79    7.04
   1 -10  -8   50.88    7.02
   1 -10  -7   35.48    5.67
   1 -10  -6   25.03    4.66
   1 -10  -5   97.98    8.86
   1 -10  -4  174.37   11.70
   1 -10  -3  401.15   18.08
   1 -10  -2   30.60    4.75
  -1 -10  -2    9.21    2.94
  -1 -10  -3   57.03    7.29
  -1 -10  -4  267.09   16.44
  -1 -10  -5   91.79    9.18
  -1 -10  -6   63.92    7.86
  -1 -10  -7   69.68    8.62
  -1 -10  -8   47.03    7.34
   1  -9 -10   43.53    6.74
   1  -9  -9  101.97    9.90
   1  -9  -8  125.02   10.46
   1  -9  -7   85.11    8.25
   1  -9  -6  100.93    8.85
   1  -9  -5   27.17    4.46
   1  -9  -4  100.82    8.31
   1  -9  -3   27.76    4.23
   1  -9  -2   36.29    4.84
   1  -9  -1   40.52    5.12
  -1  -9  -2  178.53   12.23
  -1  -9  -3   17.15    3.66
  -1  -9  -4   81.87    8.18
  -1  -9  -5    6.97    2.48
  -1  -9  -6  118.27   10.34
  -1  -9  -7   86.94    8.94
  -1  -9  -8  105.66   10.06
  -1  -9  -9   50.94    7.19
   1  -8 -11   32.65    6.15
   1  -8 -10  127.21   11.08
   1  -8  -9  132.37   10.78
   1  -8  -8   27.63    5.00
   1  -8  -7   22.05    4.09
   1  -8  -6  139.43    9.84
   1  -8  -5  140.74    9.61
   1  -8  -4  104.69    8.04
   1  -8  -3  331.25   13.75
   1  -8  -2   29.84    4.14
   1  -8  -1  165.82    9.52
  -1  -8  -1   38.39    5.27
  -1  -8  -2   18.18    3.59
  -1  -8  -3   17.16    3.81
  -1  -8  -4  344.95   16.00
  -1  -8  -5   13.19    3.32
  -1  -8  -6   10.64    2.92
  -1  -8  -7   70.10    7.73
  -1  -8  -8  178.09   12.49
  -1  -8  -9   23.66    4.76
  -1  -8 -10   80.99    9.20
   1  -7 -12   65.29    8.70
   1  -7 -11   66.51    8.13
   1  -7 -10   19.88    4.54
   1  -7  -9   59.60    7.23
   1  -7  -8   67.72    7.28
   1  -7  -7  371.20   15.99
   1  -7  -6  154.37   10.02
   1  -7  -5  112.67    8.22
   1  -7  -4   21.83    3.56
   1  -7  -3   41.98    4.57
   1  -7  -2   92.58    6.67
   1  -7  -1   34.62    4.01
   1  -7   0   77.76    5.89
  -1  -7  -1  323.98   14.24
  -1  -7  -2  126.02    8.83
  -1  -7  -3   41.67    5.14
  -1  -7  -4  198.84   11.40
  -1  -7  -5   29.98    4.60
  -1  -7  -6  111.80    9.00
  -1  -7  -7  171.92   11.49
  -1  -7  -8   15.88    3.76
  -1  -7  -9  128.04   10.58
  -1  -7 -10    6.41    2.72
  -1  -7 -11  103.44   10.13
  -1  -6  25    2.01    2.11
  -1  -6  24    2.66    2.76
  -1  -6  23   11.97    5.02
  -1  -6  22   19.52    6.05
  -1  -6  21   54.14   10.30
  -1  -6  20    5.52    3.49
  -1  -6  19   15.07    5.24
  -1  -6  18   11.45    4.32
  -1  -6  17   36.78    7.31
  -1  -6  16    8.34    3.44
  -1  -6  15   76.59    9.54
  -1  -6  14   22.87    5.06
  -1  -6  13  120.39   11.14
   1  -6 -12   56.80    7.98
   1  -6 -11    8.10    3.02
   1  -6 -10   50.97    7.06
   1  -6  -9   30.22    5.03
   1  -6  -8   86.23    8.17
   1  -6  -7   12.13    3.01
   1  -6  -6  122.54    8.63
   1  -6  -5   34.28    4.24
   1  -6  -4  138.23    8.17
   1  -6  -3   46.75    4.54
   1  -6  -2   50.17    4.48
   1  -6  -1    7.75    1.68
   1  -6   0  292.37   10.56
  -1  -6  -1   51.08    5.19
  -1  -6  -2   24.71    3.73
  -1  -6  -3    6.91    2.07
  -1  -6  -4   78.76    6.80
  -1  -6  -5  104.82    7.98
  -1  -6  -6  191.12   11.11
  -1  -6  -7  183.62   11.46
  -1  -6  -8   60.48    6.89
  -1  -6  -9  111.24    9.36
  -1  -6 -10   53.80    7.09
  -1  -6 -11   34.10    5.84
  -1  -6 -12   56.22    7.80
   1  -6  15   25.71    5.00
   1  -6  16    2.72    1.84
   1  -6  17   38.22    7.08
   1  -6  18    3.43    2.48
   1  -6  19   14.55    4.30
   1  -6  20    8.05    3.31
   1  -6  21   30.54    7.71
   1  -6  22    0.53    1.52
   1  -6  23    6.65    3.78
   1  -6  24    3.63    2.51
  -1  -5  26   -0.26    1.56
  -1  -5  25    1.65    2.58
  -1  -5  24   12.21    5.81
  -1  -5  23    3.53    2.81
  -1  -5  22    1.42    2.32
  -1  -5  21    1.59    2.03
  -1  -5  20    2.31    1.83
  -1  -5  19    3.18    2.18
  -1  -5  18    7.52    4.11
  -1  -5  17   -0.02    1.43
  -1  -5  16    5.18    3.02
  -1  -5  15  146.05   13.67
  -1  -5  14   61.43    8.36
   1  -5 -13  116.89   11.41
  -1  -5  13  118.89   11.30
   1  -5 -12   51.53    7.23
  -1  -5  12   43.37    6.57
   1  -5 -11  259.41   15.75
  -1  -5  11  196.58   13.48
   1  -5 -10    9.17    3.01
  -1  -5  10   10.05    2.77
   1  -5  -9  328.68   16.33
  -1  -5   9  275.39   14.64
   1  -5  -8  120.15    9.32
   1  -5  -7  142.85    9.84
   1  -5  -6  406.30   15.14
   1  -5  -5   51.68    5.07
   1  -5  -4   18.61    2.80
   1  -5  -3   22.73    2.96
   1  -5  -2  101.51    5.76
   1  -5  -1  155.36    6.81
   1  -5   0  157.52    6.85
  -1  -5  -1  110.26    6.91
  -1  -5  -2   16.11    2.75
  -1  -5  -3   64.20    5.58
  -1  -5  -4    2.86    1.19
  -1  -5  -5   35.71    4.45
  -1  -5  -6   14.34    3.20
  -1  -5  -7  167.74   10.29
  -1  -5  -8   75.19    7.36
  -1  -5  -9  110.09    9.33
  -1  -5 -10   98.07    9.36
   1  -5  10  151.92   10.06
  -1  -5 -11  211.40   14.11
   1  -5  11  164.98   11.38
  -1  -5 -12   27.22    5.14
   1  -5  12   27.66    4.76
  -1  -5 -13   84.36    9.51
   1  -5  13   64.13    8.09
   1  -5  14  136.88   11.58
   1  -5  15   14.43    3.91
   1  -5  16   62.73    8.51
   1  -5  17    8.00    3.21
   1  -5  18    6.16    3.08
   1  -5  19    2.19    1.53
   1  -5  20    7.73    3.89
   1  -5  21    4.12    3.12
   1  -5  22   17.28    5.60
   1  -5  23    1.57    1.48
   1  -5  24    9.60    4.27
   1  -5  25    4.49    3.69
  -1  -4  26   -0.28    0.17
  -1  -4  25    4.73    3.12
  -1  -4  24    0.33    1.28
  -1  -4  23    1.88    1.53
  -1  -4  22    7.05    3.22
  -1  -4  21   21.81    6.77
  -1  -4  20    6.39    2.95
  -1  -4  19    5.83    3.90
  -1  -4  18    0.68    0.72
  -1  -4  17   20.48    5.71
  -1  -4  16   70.39    9.22
  -1  -4  15   45.42    7.16
  -1  -4  14   16.11    4.44
   1  -4 -13   82.32    9.63
  -1  -4  13   68.51    8.28
   1  -4 -12  139.11   12.03
  -1  -4  12   87.48    9.48
   1  -4 -11  117.07   10.68
  -1  -4  11  120.45    9.99
   1  -4 -10  221.35   13.92
  -1  -4  10  152.78   11.00
   1  -4  -9  202.83   12.77
  -1  -4   9  187.78   11.82
   1  -4  -8  654.52   22.46
  -1  -4   8  779.44   23.18
   1  -4  -7  570.77   19.56
  -1  -4   7  697.84   20.41
   1  -4  -6   51.64    5.28
   1  -4  -5   22.01    3.31
   1  -4  -4   58.43    4.96
   1  -4  -3   18.76    2.43
   1  -4  -2  207.22    7.49
   1  -4  -1   56.43    3.53
  -1  -4   0 1407.47   23.22
   1  -4   0 1418.79   17.65
  -1  -4  -1   34.98    3.81
  -1  -4  -2   60.17    4.74
  -1  -4  -3   94.41    6.19
  -1  -4  -4   83.36    6.19
  -1  -4  -5  249.22   11.09
  -1  -4  -6   80.45    6.80
  -1  -4  -7   36.91    4.85
  -1  -4  -8  627.92   20.85
   1  -4   8  842.04   21.05
  -1  -4  -9  150.75   10.62
   1  -4   9  235.78   11.86
  -1  -4 -10   59.69    7.22
   1  -4  10   50.47    5.83
  -1  -4 -11   48.61    6.77
   1  -4  11   25.88    4.36
  -1  -4 -12  122.64   11.32
   1  -4  12  110.82    9.22
  -1  -4 -13   75.11    9.07
   1  -4  13   64.06    7.33
   1  -4  14   37.76    6.13
   1  -4  15   83.41    9.36
   1  -4  16   34.47    6.61
   1  -4  17   67.78    9.24
   1  -4  18   24.70    5.45
   1  -4  19   37.21    7.39
   1  -4  20   17.42    5.25
   1  -4  21   31.27    7.37
   1  -4  22    5.41    3.26
   1  -4  23   21.44    6.29
   1  -4  24   -2.00    2.32
   1  -4  25    5.57    3.53
  -1  -3  26    6.03    4.04
  -1  -3  25   12.51    5.18
  -1  -3  24    8.71    4.46
  -1  -3  23    2.89    2.35
  -1  -3  22    2.77    1.81
  -1  -3  21    8.76    3.77
  -1  -3  20    3.47    2.15
  -1  -3  19   32.24    7.16
  -1  -3  18    1.20    1.20
  -1  -3  17   81.52   10.08
  -1  -3  16  143.40   13.15
  -1  -3  15   80.70    9.69
   1  -3 -14   77.77    9.27
   1  -3 -14   65.41    8.97
  -1  -3  14  101.68   10.01
   1  -3 -13   42.76    6.78
   1  -3 -13   34.93    6.30
  -1  -3  13   30.28    5.40
   1  -3 -12   38.19    6.12
   1  -3 -12   33.49    6.00
  -1  -3  12   54.90    7.00
   1  -3 -11  123.62   10.76
   1  -3 -11  131.42   10.97
  -1  -3  11   92.22    8.88
   1  -3 -10  107.78    9.59
   1  -3 -10  114.50    9.73
  -1  -3  10  160.12   10.91
   1  -3  -9  151.70   10.70
   1  -3  -9  143.93   10.55
  -1  -3   9  151.42   10.38
   1  -3  -8  426.51   17.10
   1  -3  -8  444.40   17.31
  -1  -3   8  480.96   17.55
   1  -3  -7  456.89   16.66
   1  -3  -7  469.69   16.96
  -1  -3   7  421.44   15.30
   1  -3  -6   64.37    5.90
   1  -3  -6   60.37    5.55
  -1  -3   6   85.46    6.58
   1  -3  -5  214.54    9.77
  -1  -3   5  184.68    9.30
   1  -3  -4   21.18    2.85
   1  -3  -3   57.86    4.17
   1  -3  -2  103.35    4.76
   1  -3  -1   71.50    3.46
  -1  -3   0 1000.51   17.54
   1  -3   0  972.69   11.72
  -1  -3  -1  203.97    7.78
  -1  -3  -2   23.02    2.71
  -1  -3  -3  114.92    6.25
  -1  -3  -4  108.42    6.30
  -1  -3  -5   26.64    3.59
  -1  -3  -6  200.62   10.01
   1  -3   6  258.02    9.90
  -1  -3  -7  498.77   17.53
   1  -3   7  507.02   14.62
  -1  -3  -8  160.06   10.38
   1  -3   8  198.47   10.00
  -1  -3  -9  221.44   12.74
   1  -3   9  213.31   10.99
  -1  -3 -10  161.26   11.49
   1  -3  10  152.03    9.79
  -1  -3 -11  283.75   15.93
   1  -3  11  215.77   12.32
  -1  -3 -12    1.67    1.53
   1  -3  12    2.48    1.45
  -1  -3 -13  229.46   15.40
   1  -3  13  171.97   11.96
  -1  -3 -14    7.79    3.01
   1  -3  14   12.86    3.53
   1  -3  15  102.06   10.10
   1  -3  16   12.74    3.56
   1  -3  17   59.38    8.39
   1  -3  18    9.37    3.42
   1  -3  19    5.99    2.84
   1  -3  20    6.61    3.20
   1  -3  21    8.46    3.67
   1  -3  22    3.33    2.38
   1  -3  23    1.83    2.14
   1  -3  24    4.88    3.77
   1  -3  25    3.59    3.18
   1  -3  26    2.13    2.59
  -1  -2  26    2.19    2.38
  -1  -2  25   10.00    4.59
  -1  -2  24    1.42    1.51
  -1  -2  23   15.30    5.39
  -1  -2  22   15.18    5.04
  -1  -2  21   93.32   12.48
  -1  -2  20   10.94    4.11
  -1  -2  19  111.23   12.73
  -1  -2  18    9.25    3.65
  -1  -2  17  197.82   16.07
  -1  -2  16   49.12    7.45
  -1  -2  15   33.97    6.31
   1  -2 -15   51.61    7.81
   1  -2 -14    9.71    3.41
  -1  -2  14    9.61    3.22
  -1  -2  13  175.51   13.11
   1  -2 -13  217.63   14.76
  -1  -2  12   65.35    7.69
   1  -2 -12   68.05    7.93
  -1  -2  11   48.81    6.31
   1  -2 -11   42.08    5.96
   1  -2 -10   14.02    3.49
  -1  -2  10   15.27    3.51
  -1  -2   9  305.25   14.16
   1  -2  -9  288.02   14.49
  -1  -2   8  339.62   13.97
   1  -2  -8  240.20   12.48
   1  -2  -7   11.34    2.52
  -1  -2   7   11.96    2.46
  -1  -2   6   52.60    4.91
   1  -2  -6   36.37    4.47
  -1  -2   5  162.67    8.34
   1  -2  -5  155.77    8.35
   1  -2  -4   44.74    4.21
  -1  -2   4   59.55    4.59
   1  -2  -3  697.18   14.81
  -1  -2   3  665.84   14.53
   1  -2  -2  122.79    4.92
   1  -2  -1   29.99    1.96
  -1  -2   0   15.40    1.92
  -1  -2  -1   84.92    4.34
  -1  -2  -2  114.27    5.10
  -1  -2  -3 1017.99   16.57
  -1  -2  -4   85.24    5.45
   1  -2   4   68.24    4.03
  -1  -2  -5  450.38   13.90
   1  -2   5  473.34   11.54
  -1  -2  -6   43.81    4.68
   1  -2   6   37.00    3.59
  -1  -2  -7   71.48    6.30
   1  -2   7  108.98    6.55
  -1  -2  -8  175.85   10.76
   1  -2   8  281.25   11.57
  -1  -2  -9  612.12   19.44
  -1  -2  -9  692.65   23.47
   1  -2   9  668.62   18.99
  -1  -2 -10   76.00    7.20
  -1  -2 -10   79.93    8.25
   1  -2  10   79.07    6.91
  -1  -2 -11  107.84    9.82
  -1  -2 -11  100.43    8.74
   1  -2  11   80.94    7.63
  -1  -2 -12   53.02    7.55
  -1  -2 -12   50.59    6.56
   1  -2  12   73.41    7.37
  -1  -2 -13  240.95   14.95
  -1  -2 -13  248.81   16.44
   1  -2  13  255.38   14.72
  -1  -2 -14   33.84    6.47
  -1  -2 -14   30.06    5.53
   1  -2  14   40.99    6.06
  -1  -2 -15    3.83    2.28
   1  -2  15    3.14    1.80
  -1  -2 -16   28.35    5.58
   1  -2  16   20.38    4.83
   1  -2  17   19.56    4.94
   1  -2  18    5.04    2.87
   1  -2  19    1.57    1.86
   1  -2  20    2.48    2.21
   1  -2  21   26.98    6.53
   1  -2  22   -0.92    1.46
   1  -2  23    1.73    1.93
   1  -2  24    0.06    1.37
   1  -2  25    7.11    3.88
   1  -2  26    3.11    2.73
  -1  -1  26    4.91    3.27
  -1  -1  25   -0.81    1.44
  -1  -1  24    9.11    4.50
  -1  -1  23   -1.72    2.10
  -1  -1  22    1.69    1.83
  -1  -1  21    8.50    3.98
  -1  -1  20   26.24    6.31
  -1  -1  19   27.54    6.38
  -1  -1  18    7.09    3.43
  -1  -1  17  149.93   13.71
  -1  -1  16   25.80    5.50
  -1  -1  15   60.28    8.18
   1  -1 -15   98.92   10.94
  -1  -1  14   72.53    8.62
   1  -1 -14  105.52   10.72
  -1  -1  13   44.30    6.33
   1  -1 -13   52.35    7.22
  -1  -1  12    4.74    1.83
   1  -1 -12    4.13    1.94
  -1  -1  11  321.57   15.91
   1  -1 -11  383.14   18.27
  -1  -1  10  107.00    8.70
   1  -1 -10   96.64    8.59
  -1  -1   9 1221.97   28.08
   1  -1  -9 1192.80   28.63
  -1  -1   8  118.48    8.10
   1  -1  -8   86.43    7.33
  -1  -1   7  748.38   19.38
   1  -1  -7  760.31   20.63
  -1  -1   6  192.27    9.13
   1  -1  -6  162.13    8.87
  -1  -1   5  318.57   11.13
   1  -1  -5  322.34   11.72
  -1  -1   4   55.14    4.46
   1  -1  -4   67.05    4.91
  -1  -1   3 1169.08   17.43
   1  -1  -3 1154.52   17.77
  -1  -1   2  810.96   12.95
   1  -1  -2  750.73   12.77
   1  -1  -1   67.21    3.04
  -1  -1  -2  582.61   10.16
  -1  -1  -3  857.69   14.56
   1  -1   3  887.19   11.23
  -1  -1  -4   92.78    5.34
   1  -1   4  112.26    4.84
  -1  -1  -5  475.96   12.43
  -1  -1  -5  524.07   14.78
   1  -1   5  502.52   11.67
  -1  -1  -6    7.66    1.95
  -1  -1  -6    6.22    1.57
   1  -1   6    8.07    1.76
  -1  -1  -7  523.60   16.54
   1  -1   7  535.46   14.76
  -1  -1  -7  528.99   15.56
  -1  -1  -8   48.47    5.38
   1  -1   8   35.18    4.08
  -1  -1  -8   47.72    4.92
  -1  -1  -9  788.25   22.96
   1  -1   9  825.59   21.18
  -1  -1  -9  805.28   21.75
  -1  -1 -10   68.63    7.13
   1  -1  10   84.76    7.18
  -1  -1 -10   69.25    6.72
  -1  -1 -11  408.20   18.39
   1  -1  11  434.38   17.39
  -1  -1 -11  430.14   17.70
  -1  -1 -12   15.49    3.51
  -1  -1 -12   16.00    3.73
   1  -1  12    7.70    2.39
  -1  -1 -13  224.34   14.95
   1  -1  13  180.86   12.49
  -1  -1 -13  233.91   14.34
  -1  -1 -14   89.44    9.94
   1  -1  14  131.42   10.91
  -1  -1 -14   84.18    9.19
  -1  -1 -15  342.25   20.16
  -1  -1 -15  346.18   19.14
   1  -1  15  255.18   16.05
  -1  -1 -16   22.58    5.05
   1  -1  16   27.57    5.28
  -1  -1 -17   12.63    4.08
   1  -1  17   18.99    4.63
   1  -1  18   32.37    6.26
   1  -1  19   29.88    6.19
   1  -1  20   12.66    4.24
   1  -1  21    8.53    3.51
   1  -1  22    0.21    0.97
   1  -1  23    5.17    3.18
   1  -1  24   12.71    4.51
   1  -1  25   -0.71    0.94
   1  -1  26    9.13    4.43
   1  -1  27    2.80    2.66
  -1   0  26   -0.42    0.71
  -1   0  25   10.82    5.08
  -1   0  24    2.91    3.04
  -1   0  23    0.79    1.37
  -1   0  22   15.75    5.33
  -1   0  21   58.50    9.92
  -1   0  20    5.29    2.66
  -1   0  19   23.91    5.82
  -1   0  18   34.87    6.83
  -1   0  17   99.51   11.44
  -1   0  16  185.87   15.15
   1   0 -16  187.22   15.49
  -1   0  15   46.86    7.28
   1   0 -15   49.05    7.47
  -1   0  14    9.28    3.08
   1   0 -14   11.67    3.56
  -1   0  13  331.94   17.78
   1   0 -13  350.08   18.87
  -1   0  12    2.94    1.64
   1   0 -12    1.78    1.28
  -1   0  11  589.78   21.66
   1   0 -11  601.63   22.08
   1   0 -10   19.28    3.83
  -1   0  10   17.74    3.56
  -1   0   9  563.77   19.43
   1   0  -9  554.05   19.26
  -1   0   8   44.78    5.15
   1   0  -8   43.80    5.08
  -1   0   7    6.27    1.97
   1   0  -7    6.36    1.97
   1   0  -6    2.97    1.32
  -1   0   6    3.41    1.45
   1   0  -5  504.42   13.97
  -1   0   5  519.32   13.88
  -1   0   4   41.88    3.61
   1   0  -4   37.35    3.39
  -1   0   3  172.41    6.62
   1   0  -3  163.29    6.36
   1   0  -2    1.29    0.48
  -1   0   2    0.79    0.34
   1   0   2    1.29    0.46
  -1   0  -2    1.86    0.52
  -1   0  -3    5.08    1.07
  -1   0  -3    3.14    0.74
   1   0   3    4.39    0.84
  -1   0  -4   13.20    1.98
  -1   0  -4   13.64    1.77
   1   0   4   11.12    1.63
  -1   0  -5   79.55    4.90
   1   0   5   79.81    5.00
  -1   0  -6    3.46    1.27
   1   0   6    5.09    1.41
   1   0   7    2.12    1.00
  -1   0  -7    2.26    1.05
  -1   0  -8  142.29    8.54
   1   0   8  145.26    8.40
  -1   0  -9  383.02   14.92
   1   0   9  381.03   14.54
   1   0  10   47.89    5.58
  -1   0 -10   43.14    5.19
  -1   0 -11  104.33    8.55
   1   0  11  101.25    8.21
  -1   0 -12    1.49    1.16
   1   0  12    0.78    0.75
  -1   0 -13   34.22    5.83
  -1   0 -13   36.85    5.75
   1   0  13   31.95    5.27
  -1   0 -14    5.23    2.53
  -1   0 -14    5.54    2.35
   1   0  14    4.46    2.06
  -1   0 -15    6.92    2.77
  -1   0 -15    7.37    3.15
   1   0  15    7.94    2.93
   1   0  16   76.31    9.10
  -1   0 -16   81.93    9.42
   1   0  17   71.23    9.17
  -1   0 -17   71.91    9.15
   1   0  18    6.86    2.87
   1   0  19  171.40   15.41
   1   0  20    3.25    2.38
   1   0  21  116.50   13.29
   1   0  22    0.20    0.99
   1   0  23   23.36    6.52
   1   0  24   -0.72    0.82
   1   0  25   25.81    7.38
   1   0  26    3.58    2.97
   1   0  27   -0.52    1.48
  -1   1  26    4.45    3.70
  -1   1  25    4.06    3.43
  -1   1  24   21.90    6.48
  -1   1  23    3.16    2.23
  -1   1  22    3.48    2.55
  -1   1  21    6.56    3.51
  -1   1  20   32.95    7.31
  -1   1  19   27.32    6.46
  -1   1  18   14.09    4.29
  -1   1  17  104.61   11.73
  -1   1  16   28.28    5.71
   1   1 -16   20.92    5.44
  -1   1  15   94.55   10.45
   1   1 -15   63.05    8.64
  -1   1  14   93.47    9.96
   1   1 -14   75.35    8.90
  -1   1  13   55.28    7.25
   1   1 -13   45.22    6.66
   1   1 -12    5.18    2.16
  -1   1  12    3.50    1.76
  -1   1  11  393.99   18.52
   1   1 -11  345.77   16.97
  -1   1  10   94.94    8.37
   1   1 -10  106.58    8.84
   1   1  -9 1251.84   28.77
  -1   1   9 1212.59   28.52
  -1   1   8   82.51    6.90
   1   1  -8  115.27    8.09
   1   1  -7  776.74   20.29
  -1   1   7  763.44   20.33
   1   1  -6  192.94    9.14
  -1   1   6  160.21    8.65
   1   1  -5  310.28   10.88
  -1   1   5  332.46   12.04
   1   1  -4   55.85    4.34
  -1   1   4   68.88    4.88
   1   1  -3 1180.83   17.90
  -1   1   3 1178.83   18.14
   1   1  -2  810.57   13.08
  -1   1   2  783.73   13.20
   1   1  -1   64.72    3.20
  -1   1   1   68.18    3.07
   1   1   1   60.73    3.02
   1   1   2  620.30   10.65
   1   1   3  898.36   14.95
  -1   1  -3  881.61   11.31
   1   1   4   99.83    5.62
   1   1   4   98.16    5.17
  -1   1  -4  107.98    4.65
  -1   1  -5  503.34   11.68
   1   1   5  508.78   13.03
  -1   1  -6    8.31    1.76
   1   1   6    5.68    1.49
  -1   1  -7  527.47   14.51
   1   1   7  559.61   16.02
   1   1   8   55.24    5.30
  -1   1  -8   34.58    3.97
   1   1   9  866.63   22.85
  -1   1  -9  855.66   21.63
   1   1  10   71.65    6.93
  -1   1 -10   85.04    7.22
   1   1  11  429.44   17.75
  -1   1 -11  458.41   18.15
  -1   1 -12   12.25    3.14
   1   1  12   16.21    3.40
  -1   1 -13  186.44   12.64
   1   1  13  241.80   14.61
  -1   1 -14  124.19   10.76
   1   1  14   86.73    9.54
   1   1  15  338.96   18.36
  -1   1 -15  271.45   17.20
  -1   1 -16   33.59    5.97
   1   1  16   21.87    4.85
  -1   1 -17   21.02    5.11
   1   1  17   13.27    4.12
   1   1  18   32.44    6.35
   1   1  19   17.97    4.95
   1   1  20    3.50    2.72
   1   1  21   10.28    4.01
   1   1  22   -0.72    0.97
   1   1  23    7.74    3.35
   1   1  24   21.91    6.20
   1   1  25   -1.03    1.25
   1   1  26    5.24    3.48
   1   1  27   -0.37    0.43
  -1   2  25   16.74    6.12
  -1   2  24    1.39    1.76
  -1   2  23   12.51    5.16
  -1   2  22   12.66    5.20
  -1   2  21   99.72   13.13
  -1   2  20   18.91    5.26
  -1   2  19  146.43   14.83
  -1   2  18   12.98    4.28
  -1   2  17  271.42   18.94
   1   2 -16   50.62    7.66
  -1   2  16   32.80    6.23
  -1   2  15   51.00    7.96
   1   2 -15   30.59    6.02
  -1   2  14    8.82    3.33
   1   2 -14    8.81    3.18
  -1   2  13  220.18   14.88
   1   2 -13  174.61   13.03
   1   2 -12   62.17    7.42
  -1   2  12   68.30    7.83
   1   2 -11   42.38    5.71
  -1   2  11   45.16    6.23
   1   2 -10   14.35    3.33
  -1   2  10   14.70    3.52
  -1   2   9  299.33   14.83
   1   2  -9  291.53   13.52
   1   2  -8  357.74   14.74
  -1   2   8  253.58   12.78
  -1   2   7   12.18    2.66
   1   2  -7   13.53    2.66
   1   2  -6   53.68    4.97
  -1   2   6   41.11    4.73
   1   2  -5  159.69    8.19
  -1   2   5  167.04    8.79
   1   2  -4   58.53    4.52
  -1   2   4   47.72    4.39
   1   2  -3  652.40   14.06
  -1   2   3  712.60   15.16
  -1   2   2  136.79    5.90
   1   2  -2  168.11    6.51
  -1   2   1   31.24    2.05
   1   2   0   17.58    1.91
   1   2   1   81.11    4.26
   1   2   2  117.51    5.43
   1   2   3 1107.17   17.83
  -1   2  -3 1104.38   14.03
   1   2   4   93.87    5.96
  -1   2  -4   70.37    4.27
   1   2   5  476.43   13.57
   1   2   5  456.62   13.91
  -1   2  -5  475.99   11.60
  -1   2  -6   36.24    3.45
   1   2   6   45.03    4.59
  -1   2  -7  103.89    6.51
   1   2   7   79.87    6.49
   1   2   8  186.34   10.54
  -1   2  -8  260.59   11.04
  -1   2  -9  676.28   19.10
   1   2   9  669.41   20.96
   1   2  10   78.52    7.55
  -1   2 -10   85.95    7.24
  -1   2 -11   84.29    7.56
   1   2  11  104.12    8.87
  -1   2 -12   74.10    7.37
   1   2  12   52.10    6.88
  -1   2 -13  264.32   14.84
   1   2  13  255.98   15.39
   1   2  14   28.39    5.46
  -1   2 -14   47.07    6.58
   1   2  15    3.96    2.03
  -1   2 -15    3.55    2.08
   1   2  16   30.92    5.81
  -1   2 -16   23.41    5.10
   1   2  17   14.77    4.36
  -1   2 -17   16.27    4.45
   1   2  18    8.86    3.36
   1   2  19    4.33    2.42
   1   2  20    7.04    3.47
   1   2  21   53.01    9.15
   1   2  22    0.55    1.44
   1   2  23    1.84    2.11
   1   2  24    3.46    2.31
   1   2  25    7.17    4.03
   1   2  26    3.77    3.29
  -1   3  25    5.56    3.19
  -1   3  24    9.13    4.56
  -1   3  23    1.95    2.04
  -1   3  22   -1.87    2.25
  -1   3  21    6.20    3.41
  -1   3  20    4.75    2.83
  -1   3  19   46.60    8.43
  -1   3  18    2.35    1.38
  -1   3  17   76.96   10.64
  -1   3  16  155.95   14.10
   1   3 -16  158.11   13.99
  -1   3  15  112.60   11.67
   1   3 -15   91.48   10.18
   1   3 -14  111.72   10.90
  -1   3  14   67.80    8.86
   1   3 -13   28.65    5.21
  -1   3  13   47.00    7.13
   1   3 -12   60.26    7.31
  -1   3  12   36.31    6.21
   1   3 -11   97.47    8.77
  -1   3  11  127.03   10.65
   1   3 -10  162.41   11.01
  -1   3  10  113.49    9.82
   1   3  -9  151.28   10.19
  -1   3   9  160.79   11.00
   1   3  -8  479.89   17.37
  -1   3   8  478.62   18.82
   1   3  -7  430.15   15.44
  -1   3   7  491.77   17.56
   1   3  -6   75.99    6.08
  -1   3   6   63.62    6.04
   1   3  -5  184.38    9.18
  -1   3   5  237.04   10.90
   1   3  -4   20.01    2.82
  -1   3   4   20.91    2.99
  -1   3   3   66.18    4.96
   1   3  -3   89.29    5.66
  -1   3   2  110.74    5.36
  -1   3   1   81.23    3.84
  -1   3   0  984.92   11.34
   1   3   0 1084.95   17.92
   1   3   1  209.36    7.82
  -1   3  -1  256.57    5.60
   1   3   2   24.71    2.78
   1   3   3  129.85    6.63
   1   3   4  126.71    7.24
  -1   3  -4  122.39    5.75
   1   3   5   34.47    4.47
  -1   3  -5   23.99    2.90
   1   3   6  213.82   10.71
   1   3   6  224.96   10.60
  -1   3  -6  244.44    9.58
   1   3   7  520.80   18.00
  -1   3  -7  515.04   14.94
   1   3   7  521.35   17.21
  -1   3  -8  191.37    9.62
   1   3   8  176.26   10.87
   1   3   9  253.98   13.54
  -1   3  -9  215.14   10.74
  -1   3 -10  156.04    9.94
   1   3  10  182.15   12.03
  -1   3 -11  208.59   11.82
   1   3  11  317.89   16.50
  -1   3 -12    3.76    1.73
   1   3  12    1.40    1.24
  -1   3 -13  181.28   12.71
   1   3  13  262.42   15.90
   1   3  14    8.19    3.08
  -1   3 -14    9.75    3.00
  -1   3 -15  100.15    9.99
   1   3  15  135.57   12.38
   1   3  16    8.22    3.28
  -1   3 -16   11.37    3.32
  -1   3 -17   69.57    8.96
   1   3  17   90.51   10.74
   1   3  18   15.24    4.52
   1   3  19    8.76    3.74
   1   3  20   21.78    5.62
   1   3  21    2.57    2.01
   1   3  22    6.70    3.53
   1   3  23    6.17    3.35
   1   3  24   25.88    7.17
   1   3  25    0.69    0.54
   1   3  26    6.10    4.13
  -1   4  24   -0.61    0.54
  -1   4  23    3.11    2.27
  -1   4  22    5.88    3.63
  -1   4  21   52.92    9.50
  -1   4  20   10.16    4.21
  -1   4  19   20.30    5.97
  -1   4  18    2.41    1.80
  -1   4  17   34.15    6.79
  -1   4  16   41.25    7.45
   1   4 -16   75.89    9.71
  -1   4  15   40.85    7.32
   1   4 -15   50.24    7.33
   1   4 -14   20.64    4.55
  -1   4  14   27.14    5.63
   1   4 -13   69.86    8.16
  -1   4  13   85.10    9.55
   1   4 -12   99.77    9.80
  -1   4  12  150.82   12.38
   1   4 -11  132.65   10.46
  -1   4  11  132.68   11.17
   1   4 -10  170.36   11.81
  -1   4  10  242.22   14.86
   1   4  -9  180.35   11.23
  -1   4   9  222.37   13.54
   1   4  -8  766.59   22.44
  -1   4   8  704.97   23.50
   1   4  -7  700.42   20.32
  -1   4   7  638.95   21.25
   1   4  -6   40.40    4.87
  -1   4   6   55.08    5.87
  -1   4   5   24.68    3.86
   1   4  -5   30.20    3.96
  -1   4   4   67.49    5.77
  -1   4   4   64.32    5.37
   1   4  -4   84.66    6.45
  -1   4   3   18.65    2.74
  -1   4   2  220.98    7.99
  -1   4   1   59.41    3.68
   1   4  -1   81.87    5.49
   1   4   0 1402.51   22.04
  -1   4   0 1372.81   16.04
  -1   4  -1   29.09    2.32
   1   4   1   31.86    3.44
   1   4   2   61.15    4.74
   1   4   3   97.30    6.14
   1   4   4   89.04    6.37
   1   4   5  271.78   12.02
  -1   4  -5  261.60    9.89
   1   4   6   89.99    7.66
  -1   4  -6  132.14    7.41
   1   4   7   37.32    4.97
   1   4   7   40.45    5.20
  -1   4  -7   41.60    4.53
   1   4   8  713.91   23.03
  -1   4  -8  821.03   20.33
   1   4   8  706.96   22.18
  -1   4  -9  230.19   11.59
   1   4   9  179.75   11.83
  -1   4 -10   46.79    5.66
   1   4  10   68.05    7.55
   1   4  11   50.51    6.79
  -1   4 -11   32.63    4.75
   1   4  12  136.01   11.81
  -1   4 -12  110.90    9.40
  -1   4 -13   62.96    7.15
   1   4  13   82.78    9.23
   1   4  14   73.12    9.20
  -1   4 -14   45.08    6.67
  -1   4 -15   94.33    9.86
   1   4  15   74.96    9.46
  -1   4 -16   42.14    6.98
   1   4  16   70.30    9.75
  -1   4 -17   72.08    9.45
   1   4  17  102.66   11.76
   1   4  18   13.86    4.37
   1   4  19   62.93    9.58
   1   4  20   27.72    6.48
   1   4  21   70.72   11.18
   1   4  22   12.92    5.19
   1   4  23   23.75    6.86
   1   4  24    4.44    2.81
   1   4  25   15.02    5.81
  -1   5  24   36.05    8.61
  -1   5  23    0.27    0.91
  -1   5  22    1.68    1.89
  -1   5  21    8.98    4.41
  -1   5  20    4.10    2.63
  -1   5  19    2.99    1.98
  -1   5  18   24.70    6.19
  -1   5  17    3.54    2.61
  -1   5  16   13.02    4.29
  -1   5  15  178.08   15.30
   1   5 -15  161.98   14.19
   1   5 -14   60.55    8.01
  -1   5  14   47.02    7.76
   1   5 -13  111.84   10.48
  -1   5  13  138.59   12.75
   1   5 -12   43.18    6.36
  -1   5  12   59.44    8.15
   1   5 -11  209.34   13.80
  -1   5  11  304.76   17.95
   1   5 -10    8.96    2.69
  -1   5  10    6.96    2.40
   1   5  -9  289.39   15.06
  -1   5   9  350.23   17.40
   1   5  -8  183.14   11.27
  -1   5   8  133.31   10.59
   1   5  -7  114.25    8.76
  -1   5   7  150.11   10.71
  -1   5   6  440.06   17.35
   1   5  -6  421.79   15.85
  -1   5   5   61.46    6.14
  -1   5   5   60.10    5.75
   1   5  -5   42.84    5.11
  -1   5   4   21.82    3.24
  -1   5   3   24.00    3.24
  -1   5   2  106.82    6.20
  -1   5   1  153.29    6.70
   1   5  -1  199.71    9.42
   1   5   0  165.00    8.26
  -1   5   0  152.38    6.13
  -1   5  -1  135.83    5.81
   1   5   1  104.09    6.62
  -1   5  -2   16.90    2.27
   1   5   2   15.88    2.68
   1   5   3   61.75    5.28
   1   5   4    1.83    0.96
   1   5   5   40.42    4.96
  -1   5  -5   31.22    3.76
   1   5   6   17.24    3.59
  -1   5  -6   18.08    3.08
   1   5   7  201.71   12.21
  -1   5  -7  178.44    9.75
   1   5   8   85.62    8.11
   1   5   8   82.39    8.13
  -1   5  -8   56.61    5.74
  -1   5  -9  107.50    8.29
   1   5   9  136.03   10.58
  -1   5 -10  147.24   10.03
   1   5  10  109.27    9.96
  -1   5 -11  184.75   11.60
   1   5  11  249.16   15.73
  -1   5 -12   25.32    4.47
   1   5  12   30.36    5.62
   1   5  13  112.92   11.45
  -1   5 -13   76.47    8.02
  -1   5 -14  134.37   11.22
   1   5  14  108.27   11.62
  -1   5 -15   13.36    3.64
   1   5  15    8.75    3.38
   1   5  16   57.45    8.71
  -1   5 -16   65.78    8.52
  -1   5 -17    8.95    3.40
   1   5  17    9.01    3.40
   1   5  18    9.26    3.64
   1   5  19    3.94    2.54
   1   5  20   21.52    5.78
   1   5  21   10.77    4.55
   1   5  22   22.66    6.47
   1   5  23    2.68    2.47
   1   5  24   14.82    5.57
   1   5  25    4.79    3.28
  -1   6  23   32.27    8.06
  -1   6  22   40.32    9.25
  -1   6  21  123.66   15.35
  -1   6  20   17.32    5.37
  -1   6  19   31.82    7.30
  -1   6  18   21.53    5.90
  -1   6  17   55.15    9.44
  -1   6  16    7.68    3.38
  -1   6  15   68.55    9.89
   1   6 -15   77.31    9.60
   1   6 -14   27.70    5.54
  -1   6  14   33.85    6.54
   1   6 -13  125.15   11.53
  -1   6  13  176.72   15.07
   1   6 -12   69.99    8.52
  -1   6  12   66.72    8.95
   1   6 -11    8.50    2.78
  -1   6  11    8.53    3.03
   1   6 -10   44.79    6.40
  -1   6  10   54.59    7.64
   1   6  -9   50.99    6.31
  -1   6   9   35.14    5.83
   1   6  -8  154.91   10.78
  -1   6   8  100.57    9.51
  -1   6   7   14.20    3.51
   1   6  -7   14.66    3.47
  -1   6   6  135.52    9.58
  -1   6   6  139.83   10.30
   1   6  -6   99.48    8.57
  -1   6   5   33.81    4.46
   1   6  -5   33.03    4.63
  -1   6   4  161.75    9.49
  -1   6   3   52.89    4.98
  -1   6   2   50.29    4.44
   1   6  -2   64.06    5.88
  -1   6   1    7.70    1.63
   1   6  -1   13.84    2.81
   1   6   0  254.98   11.02
  -1   6   0  269.51    9.18
  -1   6  -1   47.58    3.88
   1   6   1   44.86    4.52
  -1   6  -2   27.61    3.09
   1   6   2   24.71    3.59
   1   6   3    6.79    1.99
   1   6   4   83.66    7.05
   1   6   5  117.10    8.79
   1   6   6  200.06   11.89
  -1   6  -6  153.41    9.64
   1   6   7  228.43   13.82
  -1   6  -7  279.76   12.67
   1   6   8   68.16    7.62
   1   6   8   66.74    7.42
  -1   6  -8   58.92    6.36
   1   6   9  131.69   10.99
   1   6   9  136.24   11.06
  -1   6  -9  107.89    8.37
  -1   6 -10   56.59    6.52
   1   6  10   59.80    7.62
  -1   6 -11   41.57    5.48
   1   6  11   38.84    6.37
  -1   6 -12   67.41    7.61
   1   6  12   66.80    8.87
  -1   6 -13  105.61    9.58
   1   6  13  119.28   12.15
  -1   6 -14   64.49    7.77
   1   6  14   71.31    9.63
  -1   6 -15   28.07    5.38
   1   6  15   25.00    6.01
  -1   6 -16    2.23    1.62
   1   6  16    1.99    1.13
  -1   6 -17   38.97    7.06
   1   6  17   77.07   10.67
   1   6  18   11.34    4.20
   1   6  19   15.73    5.19
   1   6  20    4.03    2.88
   1   6  21   67.99   10.98
   1   6  22    3.00    2.20
   1   6  23    6.22    3.60
   1   6  24    3.51    3.07
  -1   7  23    3.21    2.68
  -1   7  22   13.38    5.36
  -1   7  21    9.30    4.40
  -1   7  20   16.16    5.41
  -1   7  19   12.21    5.08
  -1   7  18   40.68    8.44
  -1   7  17   13.76    5.09
  -1   7  16   35.30    7.40
  -1   7  15   11.99    4.43
   1   7 -14  108.70   11.31
  -1   7  14   86.59   11.29
   1   7 -13   20.13    4.78
  -1   7  13   28.04    6.40
   1   7 -12  106.07   10.43
  -1   7  12   76.26    9.99
   1   7 -11   57.27    7.70
  -1   7  11   78.17    9.56
  -1   7  10   21.69    4.98
   1   7 -10   34.46    5.65
   1   7  -9   86.35    8.74
  -1   7   9   65.35    8.27
  -1   7   8   73.79    8.62
   1   7  -8   47.20    6.39
  -1   7   7  426.10   19.55
   1   7  -7  414.49   18.59
  -1   7   6  169.89   11.09
   1   7  -6  122.68    9.75
  -1   7   5  124.36    9.08
  -1   7   4   24.90    3.97
  -1   7   3   48.45    5.07
   1   7  -3   33.13    4.64
  -1   7   2   95.17    6.56
   1   7  -2  118.14    8.24
  -1   7   1   30.78    3.57
   1   7  -1   43.09    5.00
   1   7   0   91.51    7.09
  -1   7   0   78.24    5.48
  -1   7  -1  362.28   11.64
   1   7   1  301.73   12.91
  -1   7  -2  108.01    6.44
   1   7   2  118.09    8.09
   1   7   3   42.19    5.01
  -1   7  -3   60.48    5.04
   1   7   4  198.42   11.17
   1   7   5   34.16    4.96
   1   7   6  118.99    9.52
  -1   7  -6  119.82    8.59
   1   7   7  194.96   12.91
  -1   7  -7  143.40   10.24
   1   7   8   14.82    3.66
  -1   7  -8   25.17    4.14
   1   7   9  144.43   11.99
   1   7   9  143.99   11.81
  -1   7  -9  114.26    9.30
   1   7  10    6.81    2.72
   1   7  10    7.26    3.03
  -1   7 -10    6.63    2.16
  -1   7 -11   88.42    8.91
   1   7  11  120.97   11.75
   1   7  12   16.45    4.48
  -1   7 -12   16.19    3.72
  -1   7 -13   20.32    4.48
   1   7  13   37.40    7.13
  -1   7 -14   84.04    9.34
   1   7  14   59.07    9.38
   1   7  15   23.45    5.62
  -1   7 -15   24.37    4.99
  -1   7 -16    3.90    1.89
   1   7  16    7.14    3.19
   1   7  17   41.07    8.07
   1   7  18   44.81    8.59
   1   7  19   10.48    4.19
   1   7  20   31.32    7.53
   1   7  21    0.52    0.73
   1   7  22   10.11    4.48
   1   7  23    7.04    3.63
  -1   8  22   15.89    5.49
  -1   8  21   26.16    7.33
  -1   8  20   11.36    4.92
  -1   8  19   10.01    5.14
  -1   8  18   17.90    5.66
  -1   8  17   32.94    7.52
  -1   8  16   27.71    6.59
  -1   8  15   27.14    6.94
  -1   8  14   79.73   10.99
   1   8 -13   69.07    8.87
  -1   8  13   79.61   10.67
   1   8 -12   41.22    6.74
  -1   8  12   34.59    6.94
   1   8 -11   48.66    6.92
  -1   8  11   38.80    7.15
   1   8 -10  105.41   10.42
  -1   8  10  148.23   13.08
   1   8  -9  161.89   12.58
  -1   8   9  148.15   12.94
  -1   8   8   29.17    5.85
   1   8  -8   24.47    4.87
  -1   8   7   26.33    5.03
  -1   8   7   24.12    4.62
   1   8  -7   34.17    5.51
  -1   8   6  147.46   10.56
   1   8  -6  117.34    9.86
  -1   8   5  157.56   10.77
  -1   8   4  117.30    8.72
  -1   8   3  372.36   15.09
   1   8  -3  399.41   16.66
  -1   8   2   29.66    3.91
   1   8  -2   25.22    4.24
  -1   8   1  156.94    8.53
   1   8  -1  147.90    9.52
  -1   8   0  284.61   11.47
   1   8   0  328.04   14.22
  -1   8  -1   50.33    4.68
   1   8   1   35.55    4.66
   1   8   2   18.28    3.45
  -1   8  -2   18.62    2.74
  -1   8  -3   15.79    2.97
   1   8   3   13.06    3.06
   1   8   4  333.82   15.41
  -1   8  -4  430.09   15.08
   1   8   5   12.99    3.30
   1   8   6   10.51    3.08
   1   8   7   75.37    8.17
  -1   8  -7   73.66    7.50
   1   8   8  201.34   14.21
  -1   8  -8  252.55   13.91
   1   8   9   26.11    5.17
   1   8   9   22.79    5.05
  -1   8  -9   27.20    4.70
   1   8  10   90.20   10.31
   1   8  10   88.76    9.98
  -1   8 -10   52.18    6.74
   1   8  11   37.37    6.77
  -1   8 -11   45.19    6.24
  -1   8 -12   81.41    8.79
   1   8  12   71.50    9.70
  -1   8 -13   45.05    6.66
   1   8  13   73.51   10.28
  -1   8 -14   80.55    9.33
   1   8  14  110.44   12.54
  -1   8 -15   35.57    6.32
   1   8  15   23.83    6.01
  -1   8 -16   42.60    7.07
   1   8  16   74.30   11.21
   1   8  17   49.17    9.34
   1   8  18   43.33    8.66
   1   8  19    5.17    2.78
   1   8  20   26.31    7.09
   1   8  21   86.76   13.31
   1   8  22   20.90    6.56
  -1   9  21    6.07    3.33
  -1   9  20    9.98    4.78
  -1   9  19    0.31    0.35
  -1   9  18   11.62    4.47
  -1   9  17    7.49    3.76
  -1   9  16   -0.34    1.51
  -1   9  15   55.14    9.94
  -1   9  14   62.12    9.80
  -1   9  13   37.56    7.71
   1   9 -12   36.34    6.45
  -1   9  12   57.87    9.34
   1   9 -11   90.82   10.23
  -1   9  11  147.43   14.04
   1   9 -10   40.35    6.67
  -1   9  10   51.57    8.10
  -1   9   9  114.14   11.96
   1   9  -9   79.99    8.92
  -1   9   8  131.15   12.36
   1   9  -8  105.72   10.47
  -1   9   7  105.10    9.92
   1   9  -7   67.66    8.27
  -1   9   6  105.22    9.47
  -1   9   5   34.12    5.28
  -1   9   4  104.91    8.61
   1   9  -4   84.66    8.25
  -1   9   3   29.65    4.54
   1   9  -3   32.57    4.92
  -1   9   2   35.30    4.57
   1   9  -2   25.22    4.16
  -1   9   1   39.06    4.65
   1   9  -1   32.45    4.76
  -1   9   0   27.52    3.68
   1   9   0   32.00    4.61
   1   9   1   25.84    4.13
  -1   9  -1   19.95    3.12
   1   9   2  154.95   10.48
  -1   9  -2  123.87    8.02
   1   9   3   14.00    3.16
  -1   9  -3   12.80    2.60
   1   9   4   83.90    8.09
  -1   9  -4   63.43    5.87
   1   9   5    7.86    2.46
  -1   9  -5    5.79    2.05
   1   9   6  124.95   10.83
   1   9   7   93.11    9.48
  -1   9  -7   75.70    7.96
   1   9   8  125.78   11.85
  -1   9  -8   84.72    8.79
   1   9   9   61.95    8.42
  -1   9  -9   41.32    6.04
   1   9  10  181.61   14.82
   1   9  10  180.74   15.09
  -1   9 -10  146.75   11.68
   1   9  11   23.70    5.79
  -1   9 -11   15.87    4.08
  -1   9 -12   50.11    7.22
   1   9  12   57.59    9.05
  -1   9 -13   57.13    7.72
   1   9  13   43.35    8.02
  -1   9 -14  103.95   10.72
   1   9  14   90.47   12.21
  -1   9 -15   31.62    6.13
   1   9  15   34.58    7.63
   1   9  16   36.32    8.04
   1   9  17   11.76    4.90
   1   9  18   44.10    9.17
   1   9  19    3.77    2.82
   1   9  20   23.69    6.83
   1   9  21    2.33    1.72
  -1  10  20   11.08    4.60
  -1  10  19    2.29    2.85
  -1  10  18   40.16    8.96
  -1  10  17   29.87    7.69
  -1  10  16  113.56   14.65
  -1  10  15   20.73    6.26
  -1  10  14  160.00   16.86
  -1  10  13  197.49   18.11
  -1  10  12   37.20    7.72
  -1  10  11   57.28    9.05
   1  10 -10   23.98    5.26
  -1  10  10   31.00    6.48
  -1  10   9   66.55    9.34
   1  10  -9   73.36    9.06
  -1  10   8   61.32    8.74
   1  10  -8   67.98    8.88
  -1  10   7   40.38    6.20
   1  10  -7   59.40    7.92
  -1  10   6   26.89    5.06
  -1  10   5  122.32   10.75
   1  10  -5  136.06   11.08
  -1  10   4  194.51   12.44
   1  10  -4  228.85   13.71
  -1  10   3  408.52   17.70
   1  10  -3  442.13   18.69
  -1  10   2   32.65    4.70
   1  10  -2   23.64    4.11
  -1  10   1   32.77    4.49
   1  10  -1   38.42    5.44
  -1  10   0   19.31    3.45
   1  10   0   13.81    3.28
   1  10   1   62.40    6.81
  -1  10  -1   76.07    6.54
   1  10   2    9.01    2.83
  -1  10  -2   10.95    2.49
   1  10   3   54.93    6.64
  -1  10  -3   69.24    6.43
   1  10   4  241.28   14.47
  -1  10  -4  293.68   13.27
   1  10   5   87.20    8.82
  -1  10  -5  122.55    8.79
   1  10   6   68.45    8.37
  -1  10  -6   47.54    5.85
   1  10   7   76.78    8.84
  -1  10  -7  104.87    9.76
   1  10   8   48.73    7.78
  -1  10  -8   49.45    7.11
   1  10   9   34.95    6.42
  -1  10  -9   56.21    7.27
   1  10  10   23.00    5.54
   1  10  10   23.78    5.45
  -1  10 -10   17.38    4.26
   1  10  11  111.06   12.63
   1  10  11  106.73   12.12
  -1  10 -11  116.16   11.14
  -1  10 -12   43.88    6.87
   1  10  12   53.59    9.10
  -1  10 -13  102.43   10.85
   1  10  13  125.81   14.18
   1  10  14   22.35    6.21
   1  10  15    8.60    4.30
   1  10  16   12.75    4.84
   1  10  17   15.82    5.57
   1  10  18   35.13    8.52
   1  10  19    7.06    4.31
   1  10  20    7.99    4.18
  -1  11  19    9.92    5.44
  -1  11  18   16.81    6.01
  -1  11  17   12.16    5.66
  -1  11  16    9.89    4.61
  -1  11  15   26.24    7.30
  -1  11  14   18.30    5.93
  -1  11  13   65.49   10.88
  -1  11  12   92.06   12.35
  -1  11  11   38.62    7.96
  -1  11  10   96.45   12.14
  -1  11   9    6.69    3.04
  -1  11   8   46.38    7.97
  -1  11   8   51.93    7.84
  -1  11   7   34.90    6.12
   1  11  -7   26.82    5.46
   1  11  -7   25.11    5.11
  -1  11   6   56.09    7.68
   1  11  -6   39.55    6.25
  -1  11   5   13.41    3.67
   1  11  -5   15.04    3.67
  -1  11   4   27.95    4.87
   1  11  -4   20.29    4.18
  -1  11   3    8.77    2.67
   1  11  -3    6.86    2.20
  -1  11   2   30.48    4.73
   1  11  -2   36.57    5.65
  -1  11   1   17.82    3.53
   1  11  -1   21.20    4.00
  -1  11   0   46.10    5.50
   1  11   0   33.92    5.17
  -1  11  -1   42.58    5.28
   1  11   1   34.75    5.38
   1  11   2   60.79    7.23
  -1  11  -2   42.70    5.20
  -1  11  -3    9.45    2.47
   1  11   3    6.99    2.29
   1  11   4   48.64    6.79
  -1  11  -4   32.59    4.73
   1  11   5    8.17    2.78
  -1  11  -5    8.73    2.59
   1  11   6  169.06   13.52
  -1  11  -6  128.37    9.71
   1  11   7   39.44    6.63
  -1  11  -7   30.01    5.64
  -1  11  -7   32.26    5.33
   1  11   8   44.22    7.54
  -1  11  -8   35.35    5.98
   1  11   9   12.64    4.17
  -1  11  -9    6.27    2.70
   1  11  10   64.79    9.38
   1  11  10   66.29    9.95
  -1  11 -10   57.79    7.98
   1  11  11   40.64    7.98
   1  11  11   33.84    7.28
  -1  11 -11   18.71    4.90
   1  11  12   72.65   11.07
   1  11  13   24.44    6.69
   1  11  14   33.08    7.54
   1  11  15   41.79    9.14
   1  11  16   25.19    6.98
   1  11  17    6.58    4.30
   1  11  18   27.61    7.47
   1  11  19    1.46    2.67
  -1  12  18   26.02    7.75
  -1  12  17    8.87    4.77
  -1  12  16   11.95    5.21
  -1  12  15    6.66    3.89
  -1  12  14   57.75   10.53
  -1  12  13   29.28    7.48
  -1  12  12   28.82    7.19
  -1  12  11   55.28    9.74
  -1  12  10  113.73   13.67
  -1  12   9   47.01    8.54
   1  12  -8    5.08    2.98
  -1  12   8    4.64    2.32
  -1  12   8    9.18    3.61
   1  12  -7  135.18   12.16
  -1  12   7  101.88   10.79
   1  12  -6   38.72    6.13
  -1  12   6   59.67    8.08
   1  12  -5   95.93    9.96
  -1  12   5   87.11    9.64
   1  12  -4   22.09    4.63
  -1  12   4   17.93    4.15
   1  12  -3   78.82    8.51
  -1  12   3   82.79    8.59
   1  12  -2    5.12    1.92
  -1  12   2    5.29    1.81
   1  12  -1   10.70    2.90
  -1  12   1    9.63    2.64
   1  12   0   26.92    4.90
  -1  12   0   21.95    3.86
   1  12   1   90.20    9.03
  -1  12  -1   98.64    8.44
   1  12   2   16.28    3.72
  -1  12  -2   19.44    3.62
  -1  12  -3  107.00    8.83
   1  12   3   73.24    8.31
  -1  12  -4   51.25    6.12
   1  12   4   42.35    6.52
  -1  12  -5   39.76    5.37
   1  12   5   30.47    5.68
  -1  12  -6   29.91    4.86
   1  12   6   18.57    4.47
  -1  12  -7   29.59    4.96
   1  12   7   20.82    4.87
  -1  12  -8   73.36    8.27
   1  12   8   59.39    9.01
  -1  12  -9  178.45   13.30
   1  12   9  147.70   14.31
   1  12  10   56.27    9.06
   1  12  10   59.02    9.69
   1  12  11   43.03    8.11
   1  12  11   37.03    7.71
   1  12  12   42.06    8.53
   1  12  13   23.39    6.47
   1  12  14   75.08   11.99
   1  12  15   13.19    5.47
   1  12  16   38.76    8.96
   1  12  17    4.08    3.38
   1  12  18   27.86    7.97
  -1  13  16    6.03    3.86
  -1  13  15   24.17    6.98
  -1  13  14    3.53    3.42
  -1  13  13   14.39    5.53
  -1  13  12   26.89    7.36
  -1  13  11   17.37    5.62
   1  13 -10   42.47    7.39
  -1  13  10   72.76   11.55
   1  13  -9   43.91    7.60
  -1  13   9   57.30    9.80
   1  13  -8   53.16    8.13
  -1  13   8   65.28    9.49
  -1  13   8   67.61   10.32
   1  13  -7   34.35    6.16
  -1  13   7   27.62    5.74
   1  13  -6   13.96    3.87
  -1  13   6   14.83    4.18
   1  13  -5   11.69    3.36
  -1  13   5    8.24    3.12
   1  13  -4   32.25    5.63
  -1  13   4   26.56    5.07
   1  13  -3   21.40    4.60
  -1  13   3   17.82    3.92
   1  13  -2    1.20    0.55
  -1  13   2    2.46    1.31
   1  13  -1   11.83    3.22
  -1  13   1    9.49    2.82
   1  13   0    3.55    2.02
  -1  13   0    4.92    2.06
   1  13   1   13.60    3.66
  -1  13  -1   17.25    3.56
  -1  13  -2    8.76    2.44
   1  13   2   10.82    3.22
  -1  13  -3    3.25    1.55
   1  13   3    3.06    1.96
  -1  13  -4   12.88    2.99
   1  13   4   10.74    3.50
  -1  13  -5    4.38    1.98
   1  13   5    1.29    1.34
  -1  13  -6   18.80    3.99
   1  13   6   25.81    5.67
  -1  13  -7   11.46    2.98
   1  13   7   13.27    4.01
  -1  13  -8   22.36    4.50
   1  13   8   30.26    6.71
  -1  13  -9    9.02    3.18
   1  13   9   12.58    4.46
  -1  13 -10   63.32    8.35
   1  13  10   90.66   12.58
   1  13  10   85.84   11.68
  -1  13 -11   33.39    6.07
   1  13  11   25.14    6.53
   1  13  11   28.35    6.75
   1  13  12   15.08    5.31
   1  13  13   16.95    5.78
   1  13  14   14.51    5.96
   1  13  15    6.21    3.06
   1  13  16    0.62    1.22
  -1  14  15   11.72    4.91
  -1  14  14   31.81    8.36
  -1  14  13    8.35    4.78
  -1  14  12   30.40    7.80
   1  14 -12   14.15    4.61
  -1  14  11   24.76    7.03
   1  14 -11   21.89    5.51
  -1  14  10   20.76    6.37
   1  14 -10   13.01    3.94
  -1  14   9   55.97    9.80
   1  14  -9   81.57   10.10
  -1  14   8   15.47    5.17
   1  14  -8   22.70    5.41
  -1  14   7   65.25    9.12
   1  14  -7   92.48   10.38
  -1  14   6    4.99    2.31
   1  14  -6    5.59    2.17
  -1  14   5   42.19    7.06
   1  14  -5   48.89    7.25
  -1  14   4    8.67    3.05
   1  14  -4    7.37    2.62
  -1  14   3   37.26    6.26
   1  14  -3   36.24    6.12
  -1  14   2   12.36    3.48
   1  14  -2   11.38    3.17
  -1  14   1   98.30    9.67
   1  14  -1   96.96    9.95
   1  14   0   32.22    5.68
  -1  14   0   46.50    6.65
   1  14   1   64.80    8.29
  -1  14  -1   76.43    8.13
   1  14   2   19.51    4.49
  -1  14  -2   17.35    3.51
   1  14   3   49.32    7.49
  -1  14  -3   68.65    7.67
   1  14   4    6.91    2.88
  -1  14  -4    9.08    2.63
   1  14   5   22.45    5.30
  -1  14  -5   27.32    4.59
   1  14   6   41.76    7.44
  -1  14  -6   33.15    5.40
   1  14   7   63.89    9.50
  -1  14  -7   91.66    9.18
   1  14   8   12.85    4.44
  -1  14  -8   26.17    5.01
   1  14   9   18.86    5.40
  -1  14  -9   24.62    5.10
   1  14  10   24.29    6.68
   1  14  10   23.31    5.96
  -1  14 -10   24.09    4.99
   1  14  11   13.17    4.68
   1  14  11   13.87    4.81
  -1  14 -11   15.30    4.00
   1  14  12   25.17    7.09
  -1  14 -12   20.19    4.82
   1  14  13   11.07    4.49
  -1  14 -13   13.56    4.13
   1  14  14   31.66    8.50
   1  14  15    6.55    3.80
   1  15 -14    5.42    3.20
  -1  15  13    5.84    3.96
   1  15 -13    5.58    3.02
  -1  15  12    8.68    4.90
   1  15 -12    3.32    2.11
  -1  15  11    8.45    4.40
   1  15 -11   10.80    3.93
  -1  15  10   11.81    4.73
   1  15 -10    8.95    3.58
  -1  15   9    1.31    0.67
   1  15  -9    0.76    1.43
  -1  15   8   19.42    5.93
   1  15  -8   14.21    4.03
  -1  15   7   10.46    3.64
   1  15  -7   10.21    3.38
  -1  15   6    8.05    3.19
   1  15  -6    6.61    2.51
  -1  15   5    7.73    2.80
   1  15  -5    7.23    2.94
  -1  15   4   12.33    4.10
   1  15  -4    7.53    2.63
  -1  15   3    0.90    0.52
   1  15  -3    1.18    0.59
  -1  15   2   17.30    4.26
   1  15  -2   10.87    3.39
  -1  15   1    8.67    3.11
   1  15  -1    8.92    2.95
  -1  15   0   10.09    3.26
   1  15   0    6.64    2.77
  -1  15  -1    2.39    1.77
   1  15   1    1.96    1.19
  -1  15  -2   29.48    5.00
   1  15   2   34.44    6.56
   1  15   3    7.65    2.90
  -1  15  -3    8.22    2.40
   1  15   4   10.52    3.86
  -1  15  -4    8.15    2.42
   1  15   5    3.46    2.33
  -1  15  -5    3.14    1.65
   1  15   6   42.09    7.80
  -1  15  -6   30.76    5.15
   1  15   7   15.83    4.88
  -1  15  -7   11.40    3.03
   1  15   8    8.18    3.71
  -1  15  -8    6.65    2.31
   1  15   9   13.03    4.28
  -1  15  -9   10.74    3.05
   1  15  10   24.70    7.14
   1  15  10   22.53    6.46
  -1  15 -10   15.33    4.08
   1  15  11    3.76    3.43
   1  15  12   19.26    6.67
   1  15  13    6.92    4.03
  -1  16  11    8.02    4.37
  -1  16  10   38.35    9.13
   1  16 -10   29.77    6.44
  -1  16   9    8.39    4.32
   1  16  -9   10.27    3.66
  -1  16   8   27.13    7.42
   1  16  -8   23.81    5.51
  -1  16   7   47.16    8.43
   1  16  -7   61.63    8.99
  -1  16   6   64.79    9.64
   1  16  -6   54.41    8.07
  -1  16   5    2.23    1.72
   1  16  -5    2.05    0.57
  -1  16   4   10.88    3.86
   1  16  -4    8.04    3.22
  -1  16   3    8.79    3.27
   1  16  -3   11.09    3.89
  -1  16   2   15.18    4.17
   1  16  -2   13.14    3.74
  -1  16   1   40.06    6.74
   1  16  -1   36.60    6.59
  -1  16   0    3.04    1.74
   1  16   0    4.57    1.96
  -1  16  -1   15.45    4.01
   1  16   1   19.36    5.08
  -1  16  -2    4.70    1.68
   1  16   2    5.20    2.34
  -1  16  -3   22.54    4.48
   1  16   3   23.57    5.67
   1  16   4    5.11    2.67
  -1  16  -4    2.17    1.28
   1  16   5   15.50    4.52
  -1  16  -5   18.45    3.98
   1  16   6   12.89    4.27
  -1  16  -6    6.79    2.39
   1  16   7   13.28    4.21
   1  16   8    3.67    3.50
   1  16   9   19.47    5.33
   1  16  10   24.57    7.44
   1  16  10   22.14    6.46
  -1  17   8    9.11    4.33
   1  17  -7    4.03    2.56
  -1  17   6   24.23    6.16
   1  17  -6   18.59    4.86
  -1  17   5    0.07    1.06
   1  17  -5    3.14    2.18
  -1  17   4    2.32    1.69
   1  17  -4    1.47    1.26
  -1  17   3    6.17    3.03
   1  17  -3    5.11    2.77
  -1  17   2    5.41    2.62
   1  17  -2    4.56    2.93
  -1  17   1    4.85    2.54
   1  17  -1    2.64    1.55
   1  17   0    2.65    2.10
  -1  17   0    4.57    2.85
   1  17   1    5.32    2.57
  -1  17  -1    3.93    2.16
   1  17   2    6.01    3.06
   1  17   3    1.91    1.37
   1  17   4    4.24    2.79
   1  17   5    3.73    2.49
   1  17   6    4.29    2.80
   1  17   7   10.21    4.41
   1  17   8    8.23    3.72
   1  17   9    0.01    0.05
   1  17  10    5.00    3.84
   1  18  -2   25.57    6.00
   1  18  -1   41.82    7.72
   1  18   0    3.44    2.00
   1  18   1   18.34    5.09
   1  18   2   13.88    4.51
   1  18   3    5.54    3.12
   1  18   4    1.93    1.44
   1  18   5    4.39    2.40
   1  18   6    7.38    4.05
   1  18   7   10.29    4.31
   1  18   8    2.09    2.20
   1  18   9    4.15    2.53
   1  19   7   12.44    4.49
   1  19   8   12.33    5.66
   2 -14  -6   15.12    4.53
   2 -14  -5    9.36    3.14
   2 -14  -4    9.51    3.10
   2 -13  -7   48.68    7.55
   2 -13  -6   20.90    4.78
   2 -13  -5    4.32    1.84
   2 -13  -4    7.79    2.60
   2 -13  -3   33.42    5.68
   2 -12  -8   36.83    6.42
   2 -12  -7  104.29   10.27
   2 -12  -6    4.59    2.13
   2 -12  -5   25.03    4.93
   2 -12  -4   23.84    4.59
   2 -12  -3   15.20    3.62
  -2 -12  -4    4.50    2.03
   2 -11  -9    2.88    1.67
   2 -11  -8   32.29    5.64
   2 -11  -7   97.80    9.51
   2 -11  -6   15.69    3.75
   2 -11  -5   29.63    4.98
   2 -11  -4    3.19    1.79
   2 -11  -3   67.71    7.08
   2 -11  -2   26.29    4.49
  -2 -11  -3   12.78    3.73
  -2 -11  -4   23.21    5.12
  -2 -11  -5    3.60    2.14
  -2 -11  -6   27.99    5.82
   2 -10 -10    7.90    2.91
   2 -10  -9   16.90    4.00
   2 -10  -8   20.59    4.40
   2 -10  -7   83.03    8.49
   2 -10  -6   25.63    4.50
   2 -10  -5  149.25   10.75
   2 -10  -4   89.36    8.08
   2 -10  -3  250.44   13.39
   2 -10  -2   68.90    6.85
   2 -10  -1  326.57   14.45
  -2 -10  -2  161.24   12.57
  -2 -10  -3  276.55   16.82
  -2 -10  -4   65.76    8.01
  -2 -10  -5   58.96    8.06
  -2 -10  -6   12.29    3.65
  -2 -10  -7  148.96   12.67
   2  -9 -11   17.00    4.56
   2  -9 -10    5.43    2.55
   2  -9  -9   29.61    5.41
   2  -9  -8   16.63    3.70
   2  -9  -7   84.01    8.18
   2  -9  -6    6.15    2.09
   2  -9  -5    7.16    2.17
   2  -9  -4   22.66    3.77
   2  -9  -3   55.15    5.69
   2  -9  -2   15.56    3.09
   2  -9  -1  174.19    9.89
  -2  -9  -2   35.56    5.65
  -2  -9  -3    7.07    2.59
  -2  -9  -4   73.46    8.51
  -2  -9  -5    6.17    2.35
  -2  -9  -6    2.28    1.54
  -2  -9  -7   37.10    5.97
  -2  -9  -8   11.05    3.50
  -2  -9  -9    7.33    2.89
   2  -8 -11   38.10    6.20
   2  -8 -10   35.47    6.08
   2  -8  -9   73.49    8.03
   2  -8  -8   50.10    6.36
   2  -8  -7   61.63    6.65
   2  -8  -6    8.51    2.35
   2  -8  -5   38.27    4.78
   2  -8  -4   91.11    7.26
   2  -8  -3  174.21    9.56
   2  -8  -2   38.67    4.38
   2  -8  -1   71.68    5.73
  -2  -8  -2  165.21   11.58
  -2  -8  -3   34.74    5.19
  -2  -8  -4  194.29   12.43
  -2  -8  -5   18.57    3.85
  -2  -8  -6    5.60    2.12
  -2  -8  -7   15.50    3.70
  -2  -8  -8  122.63   10.66
  -2  -8  -9   43.58    6.48
  -2  -8 -10   89.56    9.76
  -2  -7  21    2.69    2.27
  -2  -7  20    2.13    2.09
   2  -7 -12   11.97    3.82
   2  -7 -11  102.31   10.65
   2  -7 -10    6.93    2.41
   2  -7  -9   25.26    4.49
   2  -7  -8   17.79    3.72
   2  -7  -7  172.77   11.05
   2  -7  -6   71.15    6.68
   2  -7  -5   20.67    3.33
   2  -7  -4    6.90    1.96
   2  -7  -3  160.67    8.46
   2  -7  -2   22.91    3.10
   2  -7  -1   21.13    2.84
   2  -7   0    1.92    0.81
  -2  -7  -1   21.43    3.92
  -2  -7  -2   17.81    3.58
  -2  -7  -3   13.48    3.33
  -2  -7  -4   36.02    5.06
  -2  -7  -5   29.00    4.66
  -2  -7  -6    6.37    2.15
  -2  -7  -7  294.69   15.75
  -2  -7  -8    8.72    2.73
  -2  -7  -9    5.51    2.47
  -2  -7 -10    4.16    2.18
  -2  -7 -11   27.20    5.52
  -2  -6  25   17.20    6.44
  -2  -6  24   14.12    5.32
  -2  -6  23   12.88    5.13
  -2  -6  22   21.48    6.10
  -2  -6  21   80.17   11.93
  -2  -6  20   11.81    4.56
  -2  -6  19   36.02    7.57
  -2  -6  18    7.50    3.89
  -2  -6  17   26.20    6.08
  -2  -6  16    9.63    3.99
  -2  -6  15   12.09    4.03
  -2  -6  14   10.07    3.54
  -2  -6  13   55.11    7.71
   2  -6 -12  126.72   11.70
   2  -6 -11   14.78    3.74
   2  -6 -10   33.96    5.57
   2  -6  -9  122.42   10.13
   2  -6  -8  181.86   11.91
   2  -6  -7  240.49   13.07
   2  -6  -6  123.41    8.51
   2  -6  -5  304.88   12.65
   2  -6  -4  491.31   14.91
   2  -6  -3  288.21   10.58
   2  -6  -2  265.89    9.58
   2  -6  -1  384.81   10.85
   2  -6   0  783.53   15.34
  -2  -6  -1  112.62    8.42
  -2  -6  -2  618.66   19.17
  -2  -6  -3  175.13   10.34
  -2  -6  -4  783.30   22.34
  -2  -6  -5   81.34    7.39
  -2  -6  -6  147.17   10.33
  -2  -6  -7   36.23    5.14
  -2  -6  -8  273.12   14.87
  -2  -6  -9   20.57    4.24
  -2  -6 -10   56.73    7.36
  -2  -6 -11    7.81    2.98
  -2  -6 -12   52.77    7.55
   2  -6  16    9.34    2.79
   2  -6  17  145.66   12.51
   2  -6  18    5.89    2.59
   2  -6  19   21.89    5.05
   2  -6  20    3.22    1.13
   2  -6  21   71.67    9.87
   2  -6  22   10.04    3.90
   2  -6  23    9.90    3.96
  -2  -5  25    4.99    3.22
  -2  -5  24   18.55    6.49
  -2  -5  23    1.80    0.59
  -2  -5  22    3.18    2.75
  -2  -5  21   13.54    4.90
  -2  -5  20    3.11    2.65
  -2  -5  19   24.86    6.11
  -2  -5  18   41.42    7.69
  -2  -5  17   35.06    7.05
  -2  -5  16   14.02    4.18
  -2  -5  15   53.73    8.33
  -2  -5  14   25.97    5.62
   2  -5 -13   19.06    4.79
  -2  -5  13   15.21    4.54
   2  -5 -12   50.48    7.42
  -2  -5  12   44.67    6.95
   2  -5 -11  178.42   13.71
  -2  -5  11  261.05   15.90
   2  -5 -10  100.78    9.61
  -2  -5  10   70.38    7.84
   2  -5  -9   56.33    7.02
  -2  -5   9   39.79    5.84
   2  -5  -8  269.73   14.80
   2  -5  -7   80.74    7.22
   2  -5  -6   36.59    4.58
   2  -5  -5   14.67    2.70
   2  -5  -4   87.20    6.09
   2  -5  -3  198.75    8.29
   2  -5  -2  315.86    9.58
   2  -5  -1    4.03    0.91
   2  -5   0  101.00    4.86
  -2  -5  -1    3.56    1.39
  -2  -5  -2  491.47   16.67
  -2  -5  -3   15.74    2.97
  -2  -5  -4   52.45    5.49
  -2  -5  -5   10.66    2.58
  -2  -5  -6  126.29    8.89
  -2  -5  -7   17.16    3.56
  -2  -5  -8   11.02    3.01
  -2  -5  -9   33.96    5.20
  -2  -5 -10   87.90    8.66
  -2  -5 -11   76.60    8.91
   2  -5  11  108.85    8.46
  -2  -5 -12    3.37    1.94
   2  -5  12    4.50    1.65
   2  -5  13   58.34    6.70
   2  -5  14   46.60    7.03
   2  -5  15  124.91   10.93
   2  -5  16   11.27    3.40
   2  -5  17   98.90   10.44
   2  -5  18   21.27    4.83
   2  -5  19   10.66    3.62
   2  -5  20   25.27    6.45
   2  -5  21   20.88    5.34
   2  -5  22   14.07    4.66
   2  -5  23    5.18    2.97
   2  -5  24    3.80    3.47
  -2  -4  25   33.49    8.26
  -2  -4  24   10.26    4.66
  -2  -4  23   29.34    7.46
  -2  -4  22   23.28    6.58
  -2  -4  21   66.91   10.84
  -2  -4  20   22.49    5.75
  -2  -4  19   22.73    6.05
  -2  -4  18   26.00    6.07
  -2  -4  17   87.01   11.04
  -2  -4  16  140.80   13.48
  -2  -4  15   13.90    4.77
  -2  -4  14   78.51    9.34
   2  -4 -13    9.35    3.40
   2  -4 -13    9.95    3.40
  -2  -4  13    6.68    2.88
   2  -4 -12  232.05   15.73
   2  -4 -12  211.92   15.06
  -2  -4  12  260.79   15.82
   2  -4 -11   15.00    3.73
   2  -4 -11   15.43    3.92
  -2  -4  11    8.93    2.89
   2  -4 -10  358.76   17.95
   2  -4 -10  379.79   18.59
  -2  -4  10  401.82   18.47
   2  -4  -9   30.84    5.22
   2  -4  -9   34.24    5.33
  -2  -4   9   28.05    4.84
   2  -4  -8  435.18   17.69
   2  -4  -8  444.72   18.29
  -2  -4   8  410.49   17.67
   2  -4  -7   72.52    6.70
  -2  -4   7   65.76    6.65
   2  -4  -6   97.81    7.40
   2  -4  -5   21.84    3.31
   2  -4  -4  768.94   18.48
   2  -4  -3   99.30    5.71
   2  -4  -2   69.90    4.12
   2  -4  -1 1320.24   15.71
   2  -4   0 2654.39   19.49
  -2  -4  -1  372.90   13.15
  -2  -4  -2    5.52    1.63
  -2  -4  -3   21.24    3.16
  -2  -4  -4  991.04   22.01
  -2  -4  -5  118.48    7.84
  -2  -4  -6  131.66    8.63
  -2  -4  -7   41.79    5.05
  -2  -4  -8  285.17   14.09
   2  -4   8  283.78   11.26
  -2  -4  -9  435.25   18.12
   2  -4   9  334.37   13.84
  -2  -4 -10   98.97    9.19
   2  -4  10  141.69    9.20
  -2  -4 -11   54.54    7.02
   2  -4  11   31.43    4.62
  -2  -4 -12  240.24   15.47
   2  -4  12  306.08   14.58
  -2  -4 -13   61.28    7.97
   2  -4  13   64.88    7.02
   2  -4  14   68.55    7.50
   2  -4  15   24.12    4.89
   2  -4  16   37.47    6.14
   2  -4  17   17.37    4.49
   2  -4  18   39.16    6.73
   2  -4  19   13.32    3.91
   2  -4  20   31.73    6.55
   2  -4  21   87.34   10.89
   2  -4  22    8.96    3.59
   2  -4  23   29.81    6.76
   2  -4  24    2.33    2.55
  -2  -3  26   -0.33    0.58
  -2  -3  25    2.71    2.62
  -2  -3  24    1.83    1.39
  -2  -3  23    2.71    2.35
  -2  -3  22    0.48    1.06
  -2  -3  21    3.32    1.95
  -2  -3  20    7.67    3.73
  -2  -3  19   32.78    7.15
  -2  -3  18   10.13    3.82
  -2  -3  17    9.06    3.68
  -2  -3  16   15.36    4.63
  -2  -3  15   65.16    8.87
   2  -3 -14   34.90    6.64
  -2  -3  14   22.16    5.06
   2  -3 -14   31.99    6.29
  -2  -3  13   68.81    8.40
   2  -3 -13   51.04    7.58
  -2  -3  12   40.50    6.18
   2  -3 -12   50.15    7.10
  -2  -3  11   95.99    9.24
   2  -3 -11   70.15    8.21
  -2  -3  10  138.76   10.85
   2  -3 -10  196.01   13.00
  -2  -3   9  116.18    9.37
   2  -3  -9   95.12    8.67
   2  -3  -8   10.62    2.78
  -2  -3   8    5.73    1.99
  -2  -3   7  188.78   10.72
   2  -3  -7  139.93    9.57
   2  -3  -6  198.92   10.89
  -2  -3   6  150.93    9.54
   2  -3  -5   94.85    6.97
  -2  -3   5   97.20    7.11
   2  -3  -4  112.97    7.13
   2  -3  -2  270.67    7.79
   2  -3  -1   18.31    1.67
  -2  -3  -1  182.04    8.34
  -2  -3  -2   90.29    5.81
  -2  -3  -3   50.20    4.37
  -2  -3  -4   86.41    5.99
  -2  -3  -5   43.74    4.49
  -2  -3  -6   29.35    3.84
   2  -3   6   32.45    3.11
  -2  -3  -7  112.37    8.11
   2  -3   7  161.65    7.66
  -2  -3  -8    6.58    2.11
   2  -3   8    5.99    1.47
  -2  -3  -9   15.37    3.40
   2  -3   9   28.20    3.72
  -2  -3 -10   61.46    7.20
   2  -3  10   91.09    7.12
  -2  -3 -11  104.10    9.93
   2  -3  11  157.59    9.75
  -2  -3 -12    3.76    2.06
   2  -3  12    2.57    1.16
  -2  -3 -13  152.08   12.96
   2  -3  13  208.85   12.40
  -2  -3 -14   48.37    7.44
   2  -3  14   29.61    5.16
   2  -3  15  159.34   11.87
   2  -3  16   12.09    3.53
   2  -3  17   33.25    5.76
   2  -3  18   21.64    5.16
   2  -3  19    7.51    3.08
   2  -3  20    5.82    2.19
   2  -3  21    6.33    3.80
   2  -3  22    4.62    3.23
   2  -3  23    2.92    2.75
   2  -3  24    1.24    1.68
   2  -3  25    3.19    2.97
  -2  -2  26   14.30    5.62
  -2  -2  25   56.60   11.02
  -2  -2  24   14.65    5.29
  -2  -2  23   40.71    8.84
  -2  -2  22    4.67    3.27
  -2  -2  21  197.91   18.30
  -2  -2  20   18.50    5.41
  -2  -2  19   99.85   12.16
  -2  -2  18    1.32    1.15
  -2  -2  17   29.14    6.66
  -2  -2  16   13.63    3.95
  -2  -2  15  237.23   16.46
  -2  -2  14   39.80    6.51
   2  -2 -14   59.10    8.42
  -2  -2  13  147.97   12.45
   2  -2 -13  123.41   11.91
  -2  -2  12  222.28   14.53
   2  -2 -12  223.16   15.18
   2  -2 -11   13.88    3.52
  -2  -2  11    9.22    2.90
  -2  -2  10   29.83    4.75
   2  -2 -10   29.20    4.99
  -2  -2   9   48.15    5.90
   2  -2  -9   69.21    7.26
  -2  -2   8  731.33   21.82
   2  -2  -8  729.92   22.42
  -2  -2   7   20.49    3.84
   2  -2  -7   32.53    4.90
  -2  -2   6  407.43   15.01
   2  -2  -6  390.64   14.69
  -2  -2   5   46.36    4.71
   2  -2  -5   35.32    4.12
  -2  -2   4  503.58   14.49
   2  -2  -4  528.31   15.08
  -2  -2   3  280.92   10.31
   2  -2  -3  209.80    8.61
   2  -2  -2  866.11   15.49
   2  -2  -1   84.34    4.27
  -2  -2  -1  371.69   10.66
  -2  -2  -2  512.05   12.35
  -2  -2  -3   24.55    2.92
  -2  -2  -4  427.74   12.41
   2  -2   4  434.97    8.31
   2  -2   5    4.97    1.13
  -2  -2  -5    4.29    1.38
  -2  -2  -6  506.82   15.61
   2  -2   6  578.41   12.72
  -2  -2  -7  305.46   12.75
   2  -2   7  292.26   10.11
  -2  -2  -8  336.15   14.85
   2  -2   8  405.35   12.82
  -2  -2  -9   59.49    6.53
   2  -2   9   66.79    5.58
  -2  -2 -10   97.59    8.74
   2  -2  10   73.86    6.55
  -2  -2 -11   17.44    3.78
   2  -2  11    5.83    2.15
  -2  -2 -12   93.27    9.38
   2  -2  12   96.36    8.18
  -2  -2 -13  116.57   10.92
   2  -2  13   90.16    8.43
  -2  -2 -14   13.25    3.90
   2  -2  14   13.04    3.19
   2  -2  15    7.39    2.74
   2  -2  16   11.36    3.92
   2  -2  17   69.25    8.81
   2  -2  18   16.23    4.75
   2  -2  19   14.17    4.09
   2  -2  20   17.14    4.84
   2  -2  21  110.91   12.29
   2  -2  22   -0.17    1.46
   2  -2  23   45.24    8.36
   2  -2  24    3.70    2.24
   2  -2  25   33.26    8.37
   2  -2  26    2.76    2.12
  -2  -1  26   -1.09    1.35
  -2  -1  25    0.88    1.15
  -2  -1  24    1.14    1.84
  -2  -1  23    8.78    3.85
  -2  -1  22    2.77    2.37
  -2  -1  21   13.06    4.67
  -2  -1  20   11.04    4.34
  -2  -1  19   42.52    7.88
  -2  -1  18    4.66    2.57
  -2  -1  17   30.72    6.35
  -2  -1  16   24.04    5.56
  -2  -1  15   24.36    5.21
   2  -1 -15   21.77    5.61
  -2  -1  14  108.76   10.81
   2  -1 -14  149.49   13.18
  -2  -1  13   71.15    8.48
   2  -1 -13  106.87   10.56
  -2  -1  12   66.92    7.79
   2  -1 -12   89.58    9.39
  -2  -1  11   55.33    6.69
   2  -1 -11   44.47    6.44
  -2  -1  10  152.09   10.82
   2  -1 -10  211.22   13.58
  -2  -1   9  293.09   14.35
   2  -1  -9  369.45   16.80
  -2  -1   8  478.09   17.32
   2  -1  -8  501.27   18.29
  -2  -1   7   83.83    7.00
   2  -1  -7  110.08    8.07
  -2  -1   6  147.33    8.77
   2  -1  -6  125.88    8.11
  -2  -1   5  241.93   10.58
   2  -1  -5  263.36   10.98
  -2  -1   4   90.13    5.92
   2  -1  -4  105.38    6.34
  -2  -1   3  756.72   15.89
   2  -1  -3  787.26   15.84
  -2  -1   2  362.19    9.79
   2  -1  -2  355.95    9.39
  -2  -1   1   56.92    3.54
   2  -1  -1   65.58    3.44
   2  -1   0   21.07    1.53
  -2  -1  -1   43.03    3.29
   2  -1   2   27.11    1.85
  -2  -1  -2   25.86    2.57
  -2  -1  -3  924.53   15.69
  -2  -1  -4  110.22    5.90
   2  -1   4   78.58    3.28
  -2  -1  -5  336.31   11.23
   2  -1   5  222.06    6.50
  -2  -1  -6  101.28    6.86
   2  -1   6   55.52    4.10
  -2  -1  -7   51.00    5.20
   2  -1   7   25.87    3.08
  -2  -1  -8   58.50    5.87
   2  -1   8   53.65    4.77
  -2  -1  -9  184.44    9.97
  -2  -1  -9  185.47   11.11
   2  -1   9  136.28    8.15
  -2  -1 -10   89.82    8.32
  -2  -1 -10   88.11    7.29
   2  -1  10   78.24    6.64
  -2  -1 -11   58.55    6.27
  -2  -1 -11   59.97    7.29
   2  -1  11   39.72    4.93
  -2  -1 -12   31.66    5.73
  -2  -1 -12   25.29    4.23
   2  -1  12   32.50    4.74
  -2  -1 -13   91.99    8.82
  -2  -1 -13  110.87   11.04
   2  -1  13  125.82    9.90
  -2  -1 -14   66.80    7.73
  -2  -1 -14   76.64    9.44
   2  -1  14   62.34    7.39
  -2  -1 -15   71.86    9.48
  -2  -1 -15   61.78    7.88
   2  -1  15   96.65    9.54
  -2  -1 -16    7.36    2.66
   2  -1  16   11.70    3.42
  -2  -1 -17   93.98   10.33
   2  -1  17  145.40   12.41
   2  -1  18    2.47    1.97
   2  -1  19   68.80    9.18
   2  -1  20    2.22    1.82
   2  -1  21   23.22    5.54
   2  -1  22    3.94    2.59
   2  -1  23    1.36    0.29
   2  -1  24    6.44    3.42
   2  -1  25    4.99    2.97
   2  -1  26    2.78    2.08
  -2   0  25   85.55   13.37
  -2   0  24    1.66    1.05
  -2   0  23   41.17    8.82
  -2   0  22    1.60    1.91
  -2   0  21  216.86   19.55
  -2   0  20    4.61    2.79
  -2   0  19   92.88   11.79
  -2   0  18    5.20    2.64
  -2   0  17  217.53   16.90
  -2   0  16  377.64   21.97
   2   0 -15    2.01    1.64
  -2   0  15    2.72    1.99
  -2   0  14    6.89    2.87
   2   0 -14    8.75    3.36
  -2   0  13  121.88   11.19
   2   0 -13  129.78   11.62
  -2   0  12   19.92    4.59
   2   0 -12   18.34    4.27
  -2   0  11   35.14    5.53
   2   0 -11   37.38    5.72
  -2   0  10  493.16   19.62
   2   0 -10  489.42   19.62
  -2   0   9   40.02    5.33
   2   0  -9   41.45    5.49
  -2   0   8 1099.00   26.37
   2   0  -8 1138.18   27.60
   2   0  -7    3.14    1.44
  -2   0   7    2.72    1.58
  -2   0   6  238.68   10.86
   2   0  -6  230.09   10.56
  -2   0   5   10.27    2.03
   2   0  -5    9.44    1.99
  -2   0   4 2248.76   29.19
   2   0  -4 2249.77   29.60
   2   0  -3    1.96    0.75
  -2   0   3    1.87    0.62
   2   0  -2 2885.13   26.50
  -2   0   2 2875.86   26.04
   2   0  -1   25.16    2.21
  -2   0   1   25.13    2.14
   2   0   0 2630.85   18.43
  -2   0   0 2622.80   18.56
  -2   0  -1   18.54    1.89
   2   0   1   16.36    1.78
  -2   0  -2 1579.26   16.28
   2   0   2 1587.24   16.17
  -2   0  -3    2.38    0.75
   2   0   3    0.77    0.38
   2   0   3    3.13    0.91
   2   0   4 1500.52   20.87
  -2   0  -4 1452.41   20.47
   2   0   4 1488.34   16.77
  -2   0  -5   19.95    2.63
  -2   0  -5   15.87    1.96
   2   0   5   18.53    2.12
  -2   0  -6   15.48    2.63
  -2   0  -6   10.32    1.77
   2   0   6   12.37    1.93
  -2   0  -7    1.85    1.00
  -2   0  -7    1.48    0.85
   2   0   7   -0.14    0.11
  -2   0  -8 1305.28   27.62
   2   0   8 1320.24   24.29
  -2   0  -8 1297.29   23.89
  -2   0  -9  105.61    8.39
   2   0   9   89.06    6.57
  -2   0  -9  106.35    7.34
  -2   0 -10  203.67   12.14
   2   0  10  205.05   10.91
  -2   0 -10  202.64   10.75
  -2   0 -11   12.50    3.19
  -2   0 -11   11.37    2.68
   2   0  11    6.54    1.99
  -2   0 -12  178.70   12.62
  -2   0 -12  170.85   11.12
   2   0  12  170.27   11.13
  -2   0 -13   79.78    8.85
  -2   0 -13   72.49    7.59
   2   0  13   72.13    7.51
  -2   0 -14   16.46    3.75
  -2   0 -14   16.74    4.37
   2   0  14   11.89    3.32
  -2   0 -15   27.98    5.78
  -2   0 -15   27.79    5.18
   2   0  15   23.31    4.61
  -2   0 -16  254.36   16.37
   2   0  16  253.13   16.18
  -2   0 -17    4.12    2.35
   2   0  17    2.75    1.90
   2   0  18   36.98    6.60
   2   0  19   53.50    8.41
   2   0  20   14.41    4.54
   2   0  21  137.62   14.03
   2   0  22    2.73    1.98
   2   0  23   32.34    7.28
   2   0  24    7.84    3.89
   2   0  25   48.41    9.45
   2   0  26    6.61    3.82
  -2   1  25    3.28    2.45
  -2   1  24    1.85    2.08
  -2   1  23    8.07    4.01
  -2   1  22    2.07    1.75
  -2   1  21    5.61    3.19
  -2   1  20    7.35    3.71
  -2   1  19   24.91    6.25
  -2   1  18    7.11    3.16
  -2   1  17   17.48    5.03
  -2   1  16   28.36    6.00
  -2   1  15   18.57    4.89
   2   1 -15   24.68    5.41
  -2   1  14  132.23   11.80
   2   1 -14  111.90   11.10
  -2   1  13  104.59   10.42
   2   1 -13   69.11    8.47
  -2   1  12   82.38    8.71
   2   1 -12   72.27    8.39
   2   1 -11   56.63    6.97
  -2   1  11   44.91    6.21
   2   1 -10  156.12   11.05
  -2   1  10  189.12   11.93
   2   1  -9  291.72   14.49
  -2   1   9  370.83   16.67
   2   1  -8  493.93   18.19
  -2   1   8  534.34   19.29
  -2   1   7  110.03    8.00
   2   1  -7   83.38    6.88
   2   1  -6  149.98    8.66
  -2   1   6  127.24    8.05
   2   1  -5  232.00   10.34
  -2   1   5  264.77   10.95
   2   1  -4   88.70    5.78
  -2   1   4  101.35    6.06
   2   1  -3  734.52   15.60
  -2   1   3  765.99   15.15
   2   1  -2  371.67   10.08
  -2   1   2  362.09    9.29
   2   1  -1   57.57    3.67
  -2   1   1   67.99    3.41
  -2   1   0   19.63    1.42
   2   1   1   46.98    3.24
   2   1   2   25.38    2.39
  -2   1  -2   26.45    1.80
   2   1   3  950.33   15.92
  -2   1  -3  898.57   12.64
   2   1   4  111.81    6.21
  -2   1  -4   99.99    5.08
  -2   1  -4   35.07    2.40
  -2   1  -5  326.33   10.12
   2   1   5  377.16   12.59
  -2   1  -5  287.19    7.98
   2   1   5  377.75   10.81
  -2   1  -6   65.97    5.08
   2   1   6   99.96    6.82
  -2   1  -6   60.46    4.26
   2   1   6  114.33    6.54
  -2   1  -7   35.28    4.03
   2   1   7   53.43    4.82
  -2   1  -7   30.77    3.31
  -2   1  -8   54.59    5.49
  -2   1  -8   57.38    4.97
   2   1   8   66.17    5.78
  -2   1  -9  153.28    9.88
  -2   1  -9  147.52    8.46
   2   1   9  188.26   10.39
  -2   1 -10   78.36    7.40
  -2   1 -10   78.51    6.61
   2   1  10   93.08    7.58
  -2   1 -11   48.90    6.18
  -2   1 -11   41.79    5.13
   2   1  11   59.82    6.37
  -2   1 -12   35.30    5.51
   2   1  12   25.83    4.56
  -2   1 -12   33.73    4.82
  -2   1 -13  126.03   11.11
  -2   1 -13  134.77   10.33
   2   1  13   89.52    8.66
  -2   1 -14   57.57    7.73
   2   1  14   74.11    8.18
  -2   1 -14   57.13    7.17
  -2   1 -15   87.49    9.93
  -2   1 -15   84.73    8.95
   2   1  15   71.23    8.67
  -2   1 -16   15.41    3.98
   2   1  16    9.32    3.31
  -2   1 -17  154.56   13.11
   2   1  17   84.48   10.01
  -2   1 -18    5.67    2.50
   2   1  18    7.81    3.10
   2   1  19   37.73    7.28
   2   1  20    3.47    2.41
   2   1  21   15.08    4.84
   2   1  22    3.73    2.59
   2   1  23    1.10    2.02
   2   1  24    6.09    3.22
   2   1  25    0.44    1.64
   2   1  26    2.07    2.41
  -2   2  25   64.38   11.82
  -2   2  24   12.13    4.91
  -2   2  23   63.36   11.19
  -2   2  22   12.86    5.07
  -2   2  21  184.99   18.34
  -2   2  20    9.92    4.44
  -2   2  19   72.89   10.94
  -2   2  18    1.07    1.19
  -2   2  17   52.79    8.60
  -2   2  16   16.12    4.62
   2   2 -15  253.20   17.38
  -2   2  15  156.85   13.80
  -2   2  14   55.05    7.62
   2   2 -14   39.69    6.56
   2   2 -13  160.46   12.95
  -2   2  13  122.75   11.86
   2   2 -12  225.28   14.32
  -2   2  12  199.60   13.78
  -2   2  11   13.51    3.31
   2   2 -11    8.51    2.61
  -2   2  10   24.92    4.43
   2   2 -10   32.42    5.13
  -2   2   9   71.78    7.43
   2   2  -9   50.12    5.96
   2   2  -8  731.92   21.85
  -2   2   8  740.44   22.41
   2   2  -7   22.89    4.01
  -2   2   7   33.26    5.06
   2   2  -6  388.78   14.30
  -2   2   6  399.35   14.74
   2   2  -5   45.70    4.59
  -2   2   5   34.00    4.04
   2   2  -4  503.27   14.30
  -2   2   4  518.12   14.64
   2   2  -3  278.77   10.15
  -2   2   3  236.52    9.43
   2   2  -2  866.61   17.24
  -2   2   2  884.77   15.93
  -2   2   1   93.99    4.72
  -2   2   0 3673.60   24.18
   2   2   0 3617.12   33.37
   2   2   1  381.10   10.78
   2   2   2  501.97   12.08
   2   2   3   29.36    3.10
  -2   2  -3   35.53    1.98
   2   2   4  447.63   12.84
  -2   2  -4  235.81    5.04
   2   2   5    5.18    1.62
  -2   2  -5    2.47    0.71
   2   2   6  576.89   17.45
   2   2   6  566.42   15.47
  -2   2  -6  563.14   12.43
   2   2   7  345.91   14.25
  -2   2  -7  289.68    9.99
   2   2   7  346.88   12.88
   2   2   8  357.56   14.21
  -2   2  -8  400.37   13.06
   2   2   9   64.53    6.36
  -2   2  -9   67.65    5.69
   2   2  10  113.17    9.11
  -2   2 -10   76.27    6.44
  -2   2 -11   13.10    2.77
   2   2  11   20.07    3.82
   2   2  12   89.47    8.58
  -2   2 -12   96.08    8.25
  -2   2 -13  102.23    9.13
   2   2  13  128.99   10.94
  -2   2 -14   14.86    3.51
   2   2  14   11.45    3.35
  -2   2 -15    8.98    3.32
  -2   2 -15    7.04    2.61
   2   2  15    7.19    2.98
   2   2  16   26.79    5.46
  -2   2 -16   11.80    3.99
  -2   2 -17   76.26    9.48
   2   2  17   85.00   10.05
  -2   2 -18   11.55    4.38
   2   2  18   39.22    6.93
   2   2  19   19.85    5.30
   2   2  20   36.21    7.20
   2   2  21   85.72   11.59
   2   2  22    4.50    2.60
   2   2  23   24.69    6.65
   2   2  24    3.97    2.92
   2   2  25   71.75   11.87
   2   2  26    1.83    2.74
  -2   3  25    1.68    2.03
  -2   3  24    4.29    2.66
  -2   3  23    8.34    4.00
  -2   3  22    0.62    1.09
  -2   3  21    6.68    3.64
  -2   3  20    6.47    3.28
  -2   3  19   49.77    9.02
  -2   3  18   11.34    4.01
  -2   3  17   16.10    4.80
  -2   3  16   36.03    7.16
  -2   3  15   82.92   10.19
   2   3 -15   72.48    9.50
  -2   3  14   34.52    6.42
   2   3 -14   28.96    5.77
   2   3 -13   73.71    8.82
  -2   3  13   55.78    7.60
  -2   3  12   51.88    7.21
   2   3 -12   43.61    6.46
  -2   3  11   71.30    8.21
   2   3 -11   97.90    9.37
   2   3 -10  146.30   10.91
  -2   3  10  196.82   13.27
   2   3  -9  123.19    9.59
  -2   3   9   99.51    8.78
   2   3  -8    8.20    2.25
  -2   3   8   10.45    2.70
   2   3  -7  196.52   11.19
  -2   3   7  152.07   10.01
   2   3  -6  150.21    9.15
  -2   3   6  211.42   11.53
   2   3  -5   95.98    7.03
  -2   3   5  102.01    7.26
   2   3  -4   90.63    6.41
  -2   3   4  113.10    7.25
   2   3  -3   30.52    3.67
  -2   3   3   44.64    4.23
  -2   3   2  288.03    9.95
   2   3   0  556.75   14.44
   2   3   1  186.88    8.22
   2   3   2   85.95    5.77
   2   3   3   52.13    4.49
   2   3   4   91.93    6.23
  -2   3  -4   75.47    3.99
   2   3   5   49.02    5.04
  -2   3  -5   52.27    3.69
   2   3   6   29.77    4.06
  -2   3  -6   25.61    2.67
   2   3   7  130.55    9.21
   2   3   7  126.72    8.37
  -2   3  -7  169.36    7.77
   2   3   8    6.68    2.12
   2   3   8    6.15    1.78
  -2   3  -8    6.70    1.62
   2   3   9   17.62    3.67
  -2   3  -9   26.30    3.56
  -2   3 -10   90.44    7.00
   2   3  10   73.38    7.57
  -2   3 -11  148.08    9.64
   2   3  11  118.95    9.81
  -2   3 -12    4.28    1.61
   2   3  12    3.19    1.84
   2   3  13  144.40   11.88
  -2   3 -13  201.24   12.55
  -2   3 -14   29.11    4.87
   2   3  14   50.60    7.01
  -2   3 -15  154.99   12.18
   2   3  15  123.80   12.01
  -2   3 -16    8.40    2.94
   2   3  16   13.00    3.99
   2   3  17   25.95    5.91
  -2   3 -17   35.37    6.12
   2   3  18   45.84    7.66
  -2   3 -18   23.70    5.73
   2   3  19   11.01    4.10
   2   3  20    4.98    3.05
   2   3  21   23.73    6.04
   2   3  22   11.41    4.07
   2   3  23    9.44    3.96
   2   3  24    3.52    2.83
   2   3  25    8.71    4.53
   2   3  26    3.85    3.33
  -2   4  24    0.79    1.37
  -2   4  23   16.43    6.46
  -2   4  22   22.61    6.58
  -2   4  21   60.84   11.32
  -2   4  20   14.20    5.13
  -2   4  19   28.87    6.73
  -2   4  18   17.33    5.56
  -2   4  17   99.29   12.20
  -2   4  16  109.13   12.36
  -2   4  15   30.70    6.12
   2   4 -15   19.94    5.19
  -2   4  14   60.89    8.67
   2   4 -14   85.53   10.03
   2   4 -13    8.49    3.03
  -2   4  13   12.83    4.02
   2   4 -12  278.36   16.34
  -2   4  12  234.12   15.88
  -2   4  11   12.93    3.38
   2   4 -11   11.78    3.31
   2   4 -10  425.04   19.06
  -2   4  10  385.89   18.89
   2   4  -9   31.26    5.00
  -2   4   9   37.15    5.75
   2   4  -8  407.05   17.30
  -2   4   8  484.36   19.90
   2   4  -7   66.41    6.63
  -2   4   7   79.70    7.41
   2   4  -6   84.79    7.34
  -2   4   6  107.22    8.36
   2   4  -5   30.58    4.28
  -2   4   5   23.51    3.98
   2   4  -4  670.86   19.38
  -2   4   4  739.41   19.74
  -2   4   3  104.08    6.88
  -2   4   1 1397.04   17.11
   2   4  -1 1474.54   25.94
  -2   4   0 2668.42   19.34
   2   4   0 2770.64   34.28
  -2   4  -1  340.70    5.85
   2   4   1  356.51   12.16
   2   4   2    7.29    1.89
  -2   4  -2    4.08    0.76
   2   4   3   17.49    2.87
   2   4   4 1030.37   22.32
   2   4   5  121.71    8.09
  -2   4  -5   93.14    5.42
   2   4   6  146.25    9.42
  -2   4  -6  129.98    6.72
   2   4   7   48.41    5.92
  -2   4  -7   38.15    3.94
   2   4   8  327.39   15.75
   2   4   8  330.67   14.88
  -2   4  -8  296.91   11.66
   2   4   9  467.54   19.63
  -2   4  -9  359.22   13.62
   2   4   9  482.83   18.84
   2   4  10  110.18    9.59
  -2   4 -10  128.19    8.43
   2   4  11   68.18    7.66
  -2   4 -11   39.16    5.08
   2   4  12  259.45   15.66
  -2   4 -12  294.54   14.07
  -2   4 -13   64.49    7.14
   2   4  13   69.22    8.67
   2   4  14   54.92    7.77
  -2   4 -14   68.92    7.56
   2   4  15   40.89    6.97
  -2   4 -15   29.25    5.23
   2   4  16   31.00    6.13
  -2   4 -16   43.67    6.56
  -2   4 -17   21.70    5.20
   2   4  17   48.53    8.20
   2   4  18   52.04    8.66
  -2   4 -18   39.87    7.06
   2   4  19   15.40    4.85
   2   4  20   45.83    8.60
   2   4  21   45.06    9.50
   2   4  22   17.27    5.36
   2   4  23   13.27    4.98
   2   4  24    6.98    3.39
   2   4  25   34.27    8.58
  -2   5  24   17.41    6.31
  -2   5  23    2.57    2.80
  -2   5  22   -1.51    0.14
  -2   5  21   13.63    5.23
  -2   5  20    6.96    3.32
  -2   5  19   15.93    5.33
  -2   5  18   29.84    6.93
  -2   5  17   25.62    6.00
  -2   5  16    4.58    2.78
  -2   5  15   62.63    9.39
  -2   5  14   29.38    6.44
   2   5 -14   28.10    5.82
  -2   5  13   20.09    4.95
   2   5 -13   17.92    4.63
   2   5 -12   52.37    7.26
  -2   5  12   56.18    7.92
   2   5 -11  262.29   15.61
  -2   5  11  192.61   14.24
   2   5 -10   74.52    7.97
  -2   5  10  103.04   10.28
   2   5  -9   50.30    6.63
  -2   5   9   68.22    8.03
   2   5  -8  213.34   12.72
  -2   5   8  275.73   15.50
   2   5  -7  112.73    8.93
  -2   5   7   96.37    8.75
   2   5  -6   27.98    4.42
  -2   5   6   36.72    5.16
  -2   5   5   18.18    3.36
   2   5  -5   18.67    3.47
  -2   5   4   97.43    7.46
   2   5  -4   82.91    7.04
  -2   5   2  330.03   10.12
  -2   5   1    4.86    1.09
   2   5  -1    7.20    1.88
  -2   5   0   95.29    4.36
   2   5   0   93.60    6.95
   2   5   1    3.74    1.32
  -2   5  -1    4.08    0.78
  -2   5  -2  418.22    8.80
   2   5   2  436.72   14.66
   2   5   3   14.83    2.87
   2   5   4   46.32    4.94
   2   5   5    8.45    2.22
  -2   5  -5    9.94    1.94
   2   5   6  142.61    9.94
  -2   5  -6  143.50    7.70
   2   5   7   19.50    3.86
  -2   5  -7   26.49    3.39
   2   5   8   11.60    3.36
  -2   5  -8   11.07    2.54
   2   5   9   41.88    6.10
   2   5   9   43.20    5.94
  -2   5  -9   30.71    4.05
   2   5  10   95.61    9.54
  -2   5 -10   72.48    6.66
   2   5  10   98.31    9.15
  -2   5 -11  110.19    8.48
   2   5  11   86.86    9.30
   2   5  12    4.67    2.37
  -2   5 -12    2.88    1.36
   2   5  13   46.08    7.28
  -2   5 -13   67.22    7.24
   2   5  14   98.90   10.90
  -2   5 -14   53.96    6.84
   2   5  15   70.99    9.76
  -2   5 -15  116.19   10.26
   2   5  16    7.46    2.99
  -2   5 -16    9.29    3.00
  -2   5 -17   95.23   10.00
   2   5  17   62.79    9.43
  -2   5 -18   19.87    4.80
   2   5  18   14.01    4.66
   2   5  19    5.30    2.65
   2   5  20   41.91    8.19
   2   5  21   12.20    4.85
   2   5  22    3.45    2.58
   2   5  23    1.60    2.13
   2   5  24    2.37    2.51
   2   5  25    1.58    2.23
  -2   6  23   13.20    5.49
  -2   6  22   18.37    6.41
  -2   6  21   62.41   11.73
  -2   6  20    9.49    4.53
  -2   6  19   39.19    8.20
  -2   6  18   15.42    5.00
  -2   6  17   34.47    7.61
  -2   6  16   20.34    5.55
  -2   6  15   16.90    4.95
  -2   6  14   18.81    4.89
   2   6 -14    9.44    3.34
   2   6 -13   58.29    8.14
  -2   6  13   42.44    7.49
   2   6 -12  165.90   13.01
  -2   6  12  144.90   13.29
   2   6 -11   12.49    3.44
  -2   6  11   17.40    4.46
   2   6 -10   28.62    5.32
  -2   6  10   35.46    6.08
   2   6  -9  132.66   10.70
  -2   6   9  139.77   11.77
   2   6  -8  214.04   13.46
  -2   6   8  199.90   13.80
   2   6  -7  260.32   14.23
  -2   6   7  240.47   14.15
  -2   6   6  149.15   10.93
   2   6  -6  176.37   11.77
  -2   6   5  352.95   15.89
   2   6  -5  391.00   16.71
  -2   6   3  316.54   11.81
  -2   6   2  289.05   10.93
   2   6  -2  276.29   13.33
  -2   6   1  411.79   11.38
   2   6  -1  381.04   14.63
  -2   6   0  755.07   14.01
   2   6   0  777.35   20.77
   2   6   1   99.29    7.55
  -2   6  -1  104.90    4.92
  -2   6  -2  615.76   11.92
   2   6   2  600.51   18.28
   2   6   3  178.33   10.35
  -2   6  -3  187.09    7.35
   2   6   4  755.14   21.04
   2   6   5   80.70    7.33
   2   6   6  151.97   10.59
  -2   6  -6  190.76    9.91
   2   6   7   41.86    5.79
  -2   6  -7   44.64    4.75
   2   6   8  313.23   16.86
  -2   6  -8  336.55   13.70
   2   6   9   21.58    4.58
   2   6   9   24.47    4.59
  -2   6  -9   12.85    3.12
   2   6  10   55.56    7.57
   2   6  10   51.91    7.27
  -2   6 -10   86.11    7.33
   2   6  11    6.61    2.82
  -2   6 -11   13.49    3.09
  -2   6 -12   75.40    7.62
   2   6  12   58.96    8.11
   2   6  13   22.91    5.43
  -2   6 -13   22.56    4.19
  -2   6 -14   10.13    2.99
   2   6  14   18.07    4.81
  -2   6 -15    4.66    2.23
   2   6  15    9.70    3.59
   2   6  16    7.46    3.44
  -2   6 -16    8.02    3.00
  -2   6 -17  152.82   13.34
   2   6  17  102.98   12.26
   2   6  18   10.11    4.08
  -2   6 -18    5.61    2.60
   2   6  19   22.68    6.06
   2   6  20    6.30    3.50
   2   6  21   51.77   10.20
   2   6  22   11.75    4.75
   2   6  23   14.24    5.46
   2   6  24    7.10    3.97
  -2   7  22    3.54    2.69
  -2   7  21    6.42    4.20
  -2   7  20    1.74    2.04
  -2   7  19    5.85    3.61
  -2   7  18   13.85    5.72
  -2   7  17    2.28    2.02
  -2   7  16   28.93    6.69
  -2   7  15   20.82    5.97
  -2   7  14   77.33   10.50
   2   7 -13   19.80    4.86
  -2   7  13   16.49    4.89
   2   7 -12    7.50    2.91
  -2   7  12   11.58    4.12
   2   7 -11  178.10   13.76
  -2   7  11  116.69   11.86
   2   7 -10    7.38    2.65
  -2   7  10    9.93    3.29
   2   7  -9   33.08    5.58
  -2   7   9   28.69    5.60
  -2   7   8   19.57    4.29
   2   7  -8   24.36    4.58
   2   7  -7  216.91   13.77
  -2   7   7  199.30   13.56
  -2   7   6   81.99    8.39
   2   7  -6   90.49    8.78
  -2   7   5   24.22    4.34
   2   7  -5   20.94    3.97
  -2   7   4    7.47    2.12
  -2   7   3  187.12    9.71
  -2   7   2   24.96    3.19
   2   7  -2   27.04    4.27
  -2   7   1   20.30    2.76
   2   7  -1   15.25    3.17
  -2   7   0    1.42    0.85
   2   7   0    1.82    0.98
  -2   7  -1   12.91    1.93
   2   7   1   15.50    3.17
   2   7   2   17.24    3.15
  -2   7  -2   18.14    2.31
   2   7   3   11.23    2.80
  -2   7  -3    7.54    1.67
   2   7   4   32.07    4.57
  -2   7  -4   41.08    3.85
   2   7   5   27.33    4.42
   2   7   6    5.93    2.24
  -2   7  -6    8.29    2.00
   2   7   7  309.43   16.23
  -2   7  -7  345.07   14.77
   2   7   8    9.48    2.92
  -2   7  -8    9.77    2.45
   2   7   9    5.36    2.58
  -2   7  -9    8.11    2.33
   2   7  10    3.86    2.00
   2   7  10    3.57    1.88
  -2   7 -10    5.82    2.22
   2   7  11   29.57    6.00
   2   7  11   34.78    6.35
  -2   7 -11   47.33    5.98
   2   7  12    5.51    2.76
  -2   7 -12    8.27    2.58
   2   7  13   13.47    4.36
  -2   7 -13   11.59    3.10
  -2   7 -14   65.52    7.98
   2   7  14  112.94   12.31
  -2   7 -15   20.67    4.66
   2   7  15   17.04    5.18
   2   7  16    6.19    2.94
  -2   7 -16    6.92    2.75
  -2   7 -17   15.96    4.11
   2   7  17   12.21    4.64
   2   7  18   11.21    4.46
   2   7  19   21.92    6.23
   2   7  20    3.01    2.41
   2   7  21   22.03    6.49
   2   7  22   15.55    5.65
   2   7  23   10.47    4.55
  -2   8  22   49.56   10.81
  -2   8  21   23.74    7.15
  -2   8  20   25.43    7.62
  -2   8  19   31.66    7.73
  -2   8  18   39.73    8.74
  -2   8  17    7.79    3.99
  -2   8  16   14.41    5.17
  -2   8  15   40.32    7.89
  -2   8  14   23.57    6.08
  -2   8  13   15.13    4.71
   2   8 -12   98.33   10.95
  -2   8  12   80.90   10.44
   2   8 -11   35.90    6.16
  -2   8  11   39.31    7.17
   2   8 -10   66.90    8.51
  -2   8  10   47.14    7.81
   2   8  -9   60.67    7.86
  -2   8   9   71.49    8.98
   2   8  -8   43.12    6.52
  -2   8   8   60.19    8.03
  -2   8   7   67.77    8.18
   2   8  -7   76.86    8.62
  -2   8   6   10.48    3.16
   2   8  -6    8.49    2.81
  -2   8   5   43.00    5.43
  -2   8   4   96.11    7.61
  -2   8   3  190.34   10.45
   2   8  -3  166.63   11.51
  -2   8   2   40.93    4.54
   2   8  -2   36.49    5.20
  -2   8   1   71.78    5.58
   2   8  -1   75.58    7.30
  -2   8   0  851.05   18.36
   2   8   0  848.64   24.23
  -2   8  -1  323.21   10.68
   2   8   1  341.99   15.27
   2   8   2  139.52    9.60
  -2   8  -2  128.28    6.68
   2   8   3   32.21    4.80
  -2   8  -3   43.48    3.98
   2   8   4  182.20   11.40
  -2   8  -4  164.29    8.02
   2   8   5   19.36    3.85
   2   8   6    4.51    2.06
   2   8   7   15.81    3.87
  -2   8  -7   12.14    2.94
   2   8   8  128.78   11.29
  -2   8  -8   97.58    8.47
   2   8   9   48.60    7.42
  -2   8  -9   31.80    5.06
   2   8  10   92.89   10.27
   2   8  10   98.99   10.66
  -2   8 -10  142.90   10.48
   2   8  11   75.76    9.65
   2   8  11   79.58    9.75
  -2   8 -11   57.70    7.13
  -2   8 -12   90.92    8.82
   2   8  12   69.20    9.43
   2   8  13    9.70    3.63
  -2   8 -13    5.88    2.45
   2   8  14   22.62    5.78
  -2   8 -14   23.72    4.64
  -2   8 -15   19.42    4.37
   2   8  15   31.80    6.72
   2   8  16   27.17    6.67
  -2   8 -16   39.89    6.74
  -2   8 -17   13.24    4.10
   2   8  17    6.35    3.45
   2   8  18   23.25    6.63
   2   8  19    5.93    3.75
   2   8  20   16.76    6.04
   2   8  21   21.19    6.52
   2   8  22   20.70    7.18
  -2   9  21    6.99    4.30
  -2   9  20   29.45    7.98
  -2   9  19    5.29    3.54
  -2   9  18   12.72    5.57
  -2   9  17   11.14    4.64
  -2   9  16   29.24    7.02
  -2   9  15   33.06    7.59
  -2   9  14    8.14    3.53
  -2   9  13   12.41    4.58
  -2   9  12    5.28    2.94
  -2   9  11   25.48    6.11
  -2   9  10    7.10    3.12
   2   9 -10    8.90    3.16
   2   9  -9   43.60    7.02
  -2   9   9   31.64    6.31
  -2   9   8   19.60    4.85
   2   9  -8   15.22    3.99
  -2   9   7   94.14   10.00
   2   9  -7   80.10    9.25
  -2   9   6    8.12    2.62
   2   9  -6    8.29    2.96
  -2   9   5    7.00    2.29
  -2   9   4   22.14    3.78
   2   9  -4   26.23    4.84
  -2   9   3   67.88    6.72
   2   9  -3   64.31    7.18
  -2   9   2   15.13    2.83
   2   9  -2   11.45    2.84
  -2   9   1  165.32    9.00
   2   9  -1  146.47   10.65
  -2   9   0   79.36    5.94
   2   9   0   80.74    7.89
  -2   9  -1   26.29    3.38
   2   9   1   19.74    3.87
   2   9   2   32.25    4.94
  -2   9  -2   36.07    3.76
  -2   9  -3    6.71    1.71
   2   9   3    6.31    2.25
   2   9   4   59.80    6.95
  -2   9  -4   48.56    4.55
   2   9   5    4.83    1.94
  -2   9  -5    9.28    2.09
   2   9   6    2.69    1.82
   2   9   7   40.99    6.52
  -2   9  -7   25.22    4.40
   2   9   8   12.81    3.67
  -2   9  -8    8.81    2.64
   2   9   9   12.53    4.02
  -2   9  -9   11.14    2.95
   2   9  10   21.30    5.19
  -2   9 -10    9.59    3.04
   2   9  11   23.59    5.35
   2   9  11   26.41    5.64
  -2   9 -11   36.33    5.47
   2   9  12    5.07    2.90
   2   9  12    4.96    2.67
  -2   9 -12    3.00    1.84
   2   9  13   21.45    5.58
  -2   9 -13   16.98    3.99
   2   9  14    2.95    2.26
  -2   9 -14    4.84    2.31
   2   9  15   17.33    5.44
  -2   9 -15   21.82    4.79
  -2   9 -16   31.18    5.99
   2   9  16   28.70    7.01
   2   9  17    9.35    3.94
   2   9  18   12.45    4.91
   2   9  19   19.30    6.28
   2   9  20   18.53    6.15
   2   9  21   12.90    5.44
  -2  10  20   13.90    6.45
  -2  10  19   15.31    6.07
  -2  10  18   27.17    7.83
  -2  10  17   28.02    7.44
  -2  10  16   16.46    5.68
  -2  10  15    1.99    2.33
  -2  10  14   29.72    6.88
  -2  10  13   10.24    4.13
  -2  10  12   19.99    5.41
  -2  10  11    7.72    3.38
  -2  10  10   11.77    3.98
  -2  10   9   20.08    5.24
  -2  10   8   25.85    6.12
   2  10  -8   41.03    7.25
  -2  10   7  101.71   11.01
   2  10  -7  126.21   12.07
  -2  10   5  167.28   11.77
   2  10  -5  169.03   13.08
  -2  10   4   99.22    8.73
   2  10  -4   73.58    8.28
  -2  10   3  275.58   14.28
   2  10  -3  274.64   16.33
  -2  10   2   75.56    6.96
   2  10  -2   52.92    6.90
  -2  10   1  339.02   13.95
   2  10  -1  361.84   17.50
  -2  10   0  192.52   10.09
   2  10   0  167.45   11.67
  -2  10  -1  218.06   10.34
   2  10   1  218.61   13.46
   2  10   2  141.32   10.85
  -2  10  -2  169.73    9.05
   2  10   3  259.93   15.18
  -2  10  -3  261.46   11.17
   2  10   4   62.36    7.48
  -2  10  -4   58.16    5.37
   2  10   5   49.92    6.78
  -2  10  -5   69.40    6.20
   2  10   6   13.37    3.57
  -2  10  -6   10.21    2.31
   2  10   7  151.11   12.92
  -2  10  -7  165.17   12.00
  -2  10  -7  170.16   10.55
   2  10   8   73.97    9.16
  -2  10  -8  103.74    9.83
   2  10   9   12.29    4.10
  -2  10  -9    8.16    2.66
   2  10  10   14.26    4.30
  -2  10 -10   12.38    3.46
   2  10  11    6.20    2.80
   2  10  11    8.67    3.91
  -2  10 -11    9.47    2.77
   2  10  12   11.51    4.08
   2  10  12   13.89    4.61
  -2  10 -12    8.55    2.83
   2  10  13    8.18    3.57
  -2  10 -13   10.81    3.27
   2  10  14   15.30    4.94
  -2  10 -14    4.64    2.17
   2  10  15    5.80    3.13
  -2  10 -15    4.35    2.46
   2  10  16    5.54    3.51
   2  10  17   19.57    5.96
   2  10  18   14.15    5.79
   2  10  19    3.05    1.49
   2  10  20   13.20    5.77
  -2  11  19    6.80    3.10
  -2  11  18    4.66    3.67
  -2  11  17   15.07    5.65
  -2  11  16   21.79    7.34
  -2  11  15    8.39    4.18
  -2  11  14    9.75    4.14
  -2  11  13    6.39    3.38
  -2  11  12   33.46    7.60
  -2  11  11   11.09    4.34
  -2  11  10   18.83    5.56
  -2  11   9    3.27    1.75
  -2  11   8   42.33    7.85
  -2  11   7  114.27   12.12
   2  11  -7  129.89   12.37
  -2  11   6   19.69    4.39
   2  11  -6   13.87    3.73
  -2  11   5   32.11    5.25
   2  11  -5   26.61    5.15
  -2  11   4    3.83    1.90
   2  11  -4    4.62    2.36
  -2  11   3   71.48    7.58
   2  11  -3   56.15    7.15
  -2  11   2   25.93    4.07
   2  11  -2   34.81    5.67
  -2  11   1   10.74    2.53
   2  11  -1   11.67    3.37
  -2  11   0   29.24    4.08
   2  11   0   38.05    5.86
  -2  11  -1  112.58    7.90
   2  11   1   91.68    8.93
   2  11   2    4.20    1.89
  -2  11  -2    4.05    1.30
  -2  11  -3    6.94    1.77
   2  11   3   11.19    3.27
   2  11   4   21.09    4.54
  -2  11  -4   16.13    2.88
   2  11   5    1.83    1.33
  -2  11  -5    1.41    1.02
   2  11   6   21.73    4.65
  -2  11  -6   24.98    3.84
   2  11   7   15.24    4.40
  -2  11  -7   11.98    2.73
   2  11   8   13.04    3.90
  -2  11  -8   17.01    4.07
  -2  11  -8   15.63    3.32
   2  11   9   36.88    7.34
  -2  11  -9   22.37    4.83
   2  11  10   28.79    6.36
  -2  11 -10   19.63    4.50
   2  11  11   25.35    6.10
   2  11  11   23.60    6.04
  -2  11 -11   39.24    6.49
   2  11  12    4.92    3.00
   2  11  12    5.33    2.86
  -2  11 -12    5.62    2.19
   2  11  13   13.19    4.69
  -2  11 -13   16.79    4.52
   2  11  14   15.10    5.37
   2  11  15   11.96    4.76
   2  11  16   27.02    7.55
   2  11  17    6.34    4.14
   2  11  18   26.65    7.69
   2  11  19    8.82    4.23
  -2  12  17    3.58    3.11
  -2  12  16    3.12    3.15
  -2  12  15    6.31    3.64
  -2  12  14   24.11    6.77
  -2  12  13   30.04    7.16
  -2  12  12   18.05    6.08
  -2  12  11   23.17    5.88
  -2  12  10   41.26    8.08
  -2  12   9    7.77    3.23
  -2  12   8   44.76    8.23
   2  12  -8   25.92    5.83
  -2  12   7  109.75   12.45
   2  12  -7   82.96   10.06
  -2  12   6    8.02    3.09
   2  12  -6    2.60    1.53
  -2  12   5   25.36    4.75
   2  12  -5   24.29    5.23
  -2  12   4   27.28    5.05
   2  12  -4   18.78    4.15
  -2  12   3   19.62    4.23
   2  12  -3   14.72    3.84
  -2  12   2   36.09    5.29
   2  12  -2   20.93    4.42
  -2  12   1   19.43    3.68
   2  12  -1   16.94    4.09
  -2  12   0   17.66    3.48
   2  12   0   11.00    3.10
  -2  12  -1   25.48    4.03
   2  12   1   30.04    5.45
  -2  12  -2    7.09    2.08
   2  12   2    6.94    2.35
  -2  12  -3   50.58    5.52
   2  12   3   59.88    7.75
   2  12   4    4.55    2.26
  -2  12  -4    6.39    2.08
   2  12   5   13.35    3.97
  -2  12  -5   15.92    3.14
   2  12   6   18.97    4.75
  -2  12  -6   21.25    3.81
   2  12   7   14.28    4.25
  -2  12  -7   19.24    3.75
   2  12   8    7.47    3.38
  -2  12  -8    6.61    2.41
  -2  12  -8    8.55    2.74
   2  12   9   37.01    7.62
  -2  12  -9   25.26    5.34
  -2  12  -9   28.24    4.93
   2  12  10   16.20    5.00
  -2  12 -10   14.78    3.88
   2  12  11   41.04    7.99
   2  12  11   40.40    8.11
   2  12  12    5.63    3.16
   2  12  12    4.68    2.91
   2  12  13    3.69    2.76
   2  12  14    7.69    3.84
   2  12  15    6.75    3.07
   2  12  16    5.98    3.41
   2  12  17    5.74    3.55
   2  12  18   12.47    5.28
  -2  13  16   18.66    6.11
  -2  13  15    9.85    4.93
  -2  13  14    9.43    4.44
  -2  13  13    9.40    3.79
  -2  13  12   -0.59    1.01
  -2  13  11    2.89    2.37
   2  13 -10    8.18    3.33
  -2  13  10   16.09    5.22
   2  13  -9    9.19    3.45
  -2  13   9   10.16    4.47
   2  13  -8    2.14    1.69
  -2  13   8    6.98    3.54
   2  13  -7   38.16    6.62
  -2  13   7   53.55    9.11
   2  13  -6   32.21    6.32
  -2  13   6   23.95    5.27
   2  13  -5    5.80    2.88
  -2  13   5    4.58    2.08
   2  13  -4    8.71    3.21
  -2  13   4    9.11    3.14
   2  13  -3   21.83    4.75
  -2  13   3   35.89    5.85
   2  13  -2    4.43    2.22
  -2  13   2    3.28    1.79
   2  13  -1   36.73    6.42
  -2  13   1   30.88    5.00
   2  13   0    3.20    1.69
  -2  13   0    4.66    1.84
   2  13   1    1.05    1.03
  -2  13  -1    1.52    1.06
  -2  13  -2   18.02    3.26
   2  13   2   26.42    5.55
   2  13   3   14.99    3.90
  -2  13  -3   16.40    3.17
  -2  13  -4   13.63    2.92
   2  13   4   10.68    3.68
  -2  13  -5   14.91    3.19
   2  13   5    8.19    3.33
  -2  13  -6    1.85    0.95
   2  13   6    0.88    0.50
  -2  13  -7    4.15    1.92
   2  13   7    2.18    2.27
  -2  13  -8   38.75    5.42
   2  13   8   64.62    9.65
  -2  13  -9    2.55    1.37
   2  13   9    5.45    3.27
  -2  13 -10    0.52    0.65
   2  13  10    1.72    1.19
  -2  13 -11   19.18    4.02
   2  13  11   17.00    5.22
   2  13  11   15.69    5.34
   2  13  12    8.81    3.75
   2  13  12   10.16    4.29
   2  13  13    3.03    2.08
   2  13  14    2.76    1.69
   2  13  15   18.68    6.02
   2  13  16   18.32    6.47
  -2  14  15    5.12    3.66
  -2  14  14    7.48    3.99
  -2  14  13    3.02    2.58
  -2  14  12    8.78    3.90
  -2  14  11   -0.32    1.35
   2  14 -11    4.05    2.62
  -2  14  10   27.05    7.08
   2  14 -10   29.20    6.75
  -2  14   9   26.00    7.03
   2  14  -9   23.07    5.69
  -2  14   8   16.05    5.02
   2  14  -8    9.94    3.57
  -2  14   7   25.04    6.42
   2  14  -7   32.49    6.67
   2  14  -6   11.80    3.71
  -2  14   5   10.28    3.51
   2  14  -5    9.26    3.43
  -2  14   4   11.70    3.40
   2  14  -4   12.47    3.88
  -2  14   3   12.97    3.63
   2  14  -3   10.50    3.34
  -2  14   2   24.05    5.04
   2  14  -2   12.22    3.57
  -2  14   1   33.50    5.32
   2  14  -1   34.38    6.07
  -2  14   0    3.49    1.63
   2  14   0    3.16    1.56
  -2  14  -1   37.42    5.49
   2  14   1   31.78    5.94
  -2  14  -2    8.87    2.48
   2  14   2   10.67    3.60
   2  14   3   72.59    9.55
  -2  14  -3   73.14    7.12
   2  14   4    2.20    1.76
  -2  14  -4    3.06    1.36
   2  14   5    2.33    1.59
  -2  14  -5    1.80    1.38
   2  14   6   11.34    4.16
  -2  14  -6   12.32    2.95
   2  14   7   40.36    7.66
  -2  14  -7   43.91    5.75
   2  14   8    9.91    3.78
  -2  14  -8   16.50    3.50
   2  14   9    7.64    3.09
  -2  14  -9    4.75    2.01
   2  14  10    8.53    3.48
  -2  14 -10    7.47    2.57
   2  14  11    3.82    2.39
   2  14  11    4.73    2.60
  -2  14 -11    4.96    2.26
   2  14  12    3.75    3.34
   2  14  12    3.97    2.65
   2  14  13    6.18    3.42
   2  14  14   23.96    7.33
   2  14  15    4.19    3.40
   2  15 -14   12.88    4.65
  -2  15  13    3.79    3.37
   2  15 -13    4.18    2.68
  -2  15  12   13.89    5.49
   2  15 -12   10.21    4.15
  -2  15  11    9.29    4.46
   2  15 -11    7.92    3.84
  -2  15  10   -0.42    1.29
   2  15 -10    0.07    1.78
  -2  15   9    9.68    4.62
   2  15  -9    8.59    3.49
  -2  15   8   31.72    8.07
   2  15  -8   21.19    5.62
  -2  15   7   10.36    4.38
   2  15  -7    4.92    2.09
   2  15  -6    9.62    3.88
  -2  15   5    3.40    2.03
   2  15  -5    2.81    1.66
  -2  15   4   33.31    6.04
   2  15  -4   21.47    4.92
  -2  15   3    5.21    2.34
   2  15  -3    2.15    0.58
  -2  15   2   25.11    5.20
   2  15  -2   25.70    5.46
  -2  15   1    3.27    2.09
   2  15  -1    0.45    1.38
  -2  15   0   28.30    5.14
   2  15   0   25.85    5.58
  -2  15  -1   81.67    8.42
   2  15   1   74.66    9.73
  -2  15  -2   13.35    3.12
   2  15   2   13.41    4.12
   2  15   3   12.62    4.03
  -2  15  -3   11.36    2.77
   2  15   4   47.45    8.28
  -2  15  -4   32.74    4.84
   2  15   5    4.02    2.29
  -2  15  -5    1.75    1.27
   2  15   6   26.41    6.33
  -2  15  -6   16.33    3.45
   2  15   7   24.05    5.98
  -2  15  -7   20.14    3.97
   2  15   8   14.17    4.56
   2  15   9    8.51    3.84
   2  15  10    5.13    2.92
   2  15  11    2.68    2.53
   2  15  11    2.23    2.62
   2  15  12    3.91    2.93
   2  15  12    6.13    3.37
   2  16 -12   -1.23    1.43
  -2  16  11    3.55    2.75
   2  16 -11    3.19    2.54
  -2  16  10   18.27    5.99
   2  16 -10   16.50    4.98
  -2  16   9    6.18    3.58
   2  16  -9    2.96    2.36
  -2  16   8    6.62    4.36
   2  16  -8    1.64    1.70
  -2  16   7   12.78    5.00
   2  16  -7    5.73    2.70
   2  16  -6    8.37    3.36
   2  16  -5    4.91    2.38
  -2  16   4    2.67    1.90
   2  16  -4    2.46    1.31
  -2  16   3   10.62    3.52
   2  16  -3    8.83    3.22
  -2  16   2   12.61    3.56
   2  16  -2    6.61    2.66
  -2  16   1   21.44    4.71
   2  16  -1   16.34    4.40
  -2  16   0    1.05    1.17
   2  16   0   -0.55    1.17
  -2  16  -1    3.08    1.06
   2  16   1    3.77    2.89
   2  16   2    9.19    3.43
  -2  16  -2    7.52    2.34
  -2  16  -3   18.60    3.63
   2  16   3   19.31    5.14
   2  16   4    2.93    2.31
   2  16   5   10.40    3.85
   2  16   6    7.22    3.67
   2  16   7    1.25    1.60
   2  16   8    3.53    2.56
   2  16   9    4.36    2.61
   2  16  10    0.71    0.99
   2  16  11    2.25    2.54
   2  17  -9    4.67    2.81
  -2  17   8    6.80    4.34
   2  17  -8    4.34    2.50
  -2  17   7    6.70    4.20
   2  17  -7    5.16    2.33
  -2  17   6    3.39    3.05
   2  17  -6    3.26    1.98
   2  17  -5    0.79    0.51
  -2  17   4    8.05    2.83
   2  17  -4    6.35    2.92
  -2  17   3   11.06    3.68
   2  17  -3   10.10    3.64
   2  17  -2    9.42    3.59
   2  17  -1   -0.79    1.44
   2  17   0    6.67    2.60
   2  17   1    0.75    1.11
   2  17   2    3.72    2.22
   2  17   3   -0.12    0.84
   2  17   4    6.56    2.87
   2  17   5    2.07    2.07
   2  17   6    7.17    3.55
   2  17   7    5.03    2.63
   2  17   8    7.03    3.86
   2  17   9    1.79    2.41
   2  17  10    0.00    0.41
   2  17  11    0.79    1.17
   2  18  -4    3.87    2.38
   2  18  -3   15.01    4.37
   2  18  -2    9.52    3.72
   2  18  -1    6.35    2.72
   2  18   0    8.99    3.58
   2  18   1    4.90    2.69
   2  18   2    3.34    2.51
   2  18   3    8.14    3.47
   2  18   4    4.74    2.63
   2  18   5    1.20    1.43
   2  18   6    1.86    0.78
   2  18   7    4.09    3.17
   2  18   8    3.10    2.00
   2  18   9   -1.67    2.02
   2  18  10    9.62    5.04
   2  19   2    8.10    3.54
   2  19   3    3.51    2.74
   2  19   4    8.49    4.04
   2  19   5   18.12    6.08
   2  19   6   15.94    6.08
   2  19   7    7.79    3.64
   2  19   8    0.97    2.05
   3 -14  -6   40.63    6.73
   3 -14  -5   24.08    4.94
   3 -14  -4    5.35    2.28
   3 -13  -7   13.23    3.62
   3 -13  -6   30.59    5.40
   3 -13  -5    1.99    1.85
   3 -13  -4   12.62    3.39
   3 -13  -3    0.27    0.63
   3 -12  -8   42.50    6.63
   3 -12  -7  199.18   14.19
   3 -12  -6   21.91    4.38
   3 -12  -5   15.29    3.61
   3 -12  -4   32.92    5.40
   3 -12  -3   11.60    2.99
   3 -11  -9   25.24    5.11
   3 -11  -8   40.76    6.30
   3 -11  -7   16.06    3.72
   3 -11  -6   37.07    5.61
   3 -11  -5   39.80    5.50
   3 -11  -4   46.29    5.82
   3 -11  -3   29.56    4.66
   3 -11  -2   26.92    4.33
  -3 -11  -3    5.65    2.66
  -3 -11  -4   18.82    4.78
   3 -10 -10  147.78   12.51
   3 -10  -9  159.82   12.49
   3 -10  -8   13.44    3.66
   3 -10  -7   93.01    8.78
   3 -10  -6  120.91    9.63
   3 -10  -5  138.45    9.85
   3 -10  -4   27.97    4.30
   3 -10  -3   63.39    6.18
   3 -10  -2   37.21    4.57
   3 -10  -1  116.29    8.16
  -3 -10  -3   64.49    8.49
  -3 -10  -4  120.52   11.50
  -3 -10  -5   22.87    5.13
  -3 -10  -6   52.05    7.99
   3  -9 -11   35.00    6.33
   3  -9 -10   86.04    9.33
   3  -9  -9   40.28    6.12
   3  -9  -8   39.22    5.71
   3  -9  -7   11.59    3.13
   3  -9  -6   43.23    5.64
   3  -9  -5    6.25    2.09
   3  -9  -4   67.88    6.22
   3  -9  -3   27.10    3.72
   3  -9  -2   24.03    3.35
   3  -9  -1   12.93    2.41
  -3  -9  -2   37.89    6.08
  -3  -9  -3   30.88    5.58
  -3  -9  -4   23.12    4.64
  -3  -9  -5   37.50    6.44
  -3  -9  -6  174.26   13.20
  -3  -9  -7   32.64    5.85
  -3  -9  -8  140.53   12.40
   3  -8 -11   57.57    7.83
   3  -8 -10   39.11    6.13
   3  -8  -9   57.66    7.12
   3  -8  -8   92.90    8.72
   3  -8  -7   72.27    7.25
   3  -8  -6    6.51    2.05
   3  -8  -5   74.91    6.56
   3  -8  -4   51.05    5.18
   3  -8  -3  208.62    9.90
   3  -8  -2   15.84    2.55
   3  -8  -1  174.45    8.62
  -3  -8  -2   42.86    6.08
  -3  -8  -3   14.74    3.73
  -3  -8  -4   81.48    8.96
  -3  -8  -5   22.19    4.48
  -3  -8  -6   21.23    4.50
  -3  -8  -7   34.27    5.86
  -3  -8  -8   61.95    8.24
  -3  -8  -9  177.92   13.68
  -3  -7  22    1.70    1.60
  -3  -7  21    2.98    2.32
  -3  -7  20    3.82    3.24
  -3  -7  19    5.68    3.20
   3  -7 -12   15.60    4.40
   3  -7 -11  158.32   12.94
   3  -7 -10   45.49    6.70
   3  -7  -9   74.64    8.24
   3  -7  -8   37.86    5.62
   3  -7  -7   60.41    6.49
   3  -7  -6   43.20    5.13
   3  -7  -5   18.94    3.19
   3  -7  -4   58.42    5.13
   3  -7  -3   77.22    5.65
   3  -7  -2   12.60    2.21
   3  -7  -1   31.90    3.30
   3  -7   0   38.05    3.43
  -3  -7  -2  176.89   11.87
  -3  -7  -3   28.62    4.70
  -3  -7  -4   37.42    5.57
  -3  -7  -5   11.62    3.06
  -3  -7  -6  102.87    9.27
  -3  -7  -7   55.69    6.96
  -3  -7  -8  112.73   10.13
  -3  -7  -9   52.10    7.16
  -3  -7 -10  136.70   11.58
  -3  -6  24    5.19    3.27
  -3  -6  23    5.71    3.55
  -3  -6  22    4.36    2.39
  -3  -6  21   17.81    6.43
  -3  -6  20    4.88    3.00
  -3  -6  19   16.11    5.99
  -3  -6  18   10.74    4.17
  -3  -6  17   70.90   10.54
  -3  -6  16    7.98    3.60
  -3  -6  15   16.16    4.95
  -3  -6  14   19.70    4.76
  -3  -6  13  166.67   14.01
   3  -6 -12   27.47    5.82
  -3  -6  12   24.09    5.17
   3  -6 -11  162.65   13.55
   3  -6 -10   97.07    9.91
   3  -6  -9  230.33   14.44
   3  -6  -8   50.53    6.32
   3  -6  -7  129.24    9.37
   3  -6  -6  114.44    8.34
   3  -6  -5   70.68    6.20
   3  -6  -4  157.13    8.27
   3  -6  -3   44.02    4.01
   3  -6  -2   54.10    4.07
   3  -6  -1   94.30    4.80
   3  -6   0   78.53    4.17
  -3  -6  -1  234.27   12.79
  -3  -6  -2   64.30    6.73
  -3  -6  -3   99.18    8.63
  -3  -6  -4  121.09    9.39
  -3  -6  -5   17.87    3.59
  -3  -6  -6   13.93    3.38
  -3  -6  -7   28.93    4.80
  -3  -6  -8  158.12   11.68
  -3  -6  -9   57.15    7.14
  -3  -6 -10   61.62    7.64
  -3  -6 -11   41.80    6.55
   3  -6  20   24.47    5.67
   3  -6  21   18.58    5.25
   3  -6  22    8.10    3.38
  -3  -5  25    3.41    3.30
  -3  -5  24    2.95    2.47
  -3  -5  23    0.87    1.76
  -3  -5  22    8.55    4.15
  -3  -5  21    4.77    2.82
  -3  -5  20    9.16    4.17
  -3  -5  19   10.08    4.14
  -3  -5  18   45.64    8.63
  -3  -5  17   16.34    5.14
  -3  -5  16   68.60    9.84
  -3  -5  15   22.67    5.71
  -3  -5  14  149.95   13.80
   3  -5 -13   36.20    6.65
  -3  -5  13   63.33    8.75
   3  -5 -12   37.98    6.52
   3  -5 -12   38.99    6.71
  -3  -5  12   52.36    7.60
   3  -5 -11  194.30   13.89
   3  -5 -11  210.01   14.95
  -3  -5  11  149.37   12.86
   3  -5 -10  134.02   11.06
  -3  -5  10  178.46   13.06
   3  -5  -9   85.05    8.44
  -3  -5   9   65.87    7.86
   3  -5  -8  412.04   17.49
   3  -5  -7  322.55   14.65
   3  -5  -6   15.51    3.29
   3  -5  -5   98.58    7.18
   3  -5  -4   20.48    3.07
   3  -5  -3    6.25    1.44
   3  -5  -2   29.47    2.84
   3  -5  -1   33.71    2.62
   3  -5   0   15.98    1.57
  -3  -5  -1   22.26    3.73
  -3  -5  -2   80.68    6.91
  -3  -5  -3   39.07    4.95
  -3  -5  -4   65.51    6.35
  -3  -5  -5   13.87    3.08
  -3  -5  -6  173.42   10.84
  -3  -5  -7  303.22   14.83
  -3  -5  -8   47.46    6.17
  -3  -5  -9  349.45   17.21
  -3  -5 -10   29.81    5.21
  -3  -5 -11  302.81   17.18
  -3  -5 -12  148.51   12.16
   3  -5  13   85.25    8.08
   3  -5  14  212.20   12.98
   3  -5  15   88.91    9.35
   3  -5  16   25.23    4.79
   3  -5  17   14.22    4.72
   3  -5  18   16.83    4.39
   3  -5  19   14.81    4.55
   3  -5  20   21.90    5.93
   3  -5  21    4.90    2.81
   3  -5  22    3.20    2.72
  -3  -4  25    7.19    4.00
  -3  -4  24    3.72    3.36
  -3  -4  23   22.90    6.74
  -3  -4  22   14.03    4.89
  -3  -4  21   82.17   12.15
  -3  -4  20    1.65    1.66
  -3  -4  19   66.20   10.22
  -3  -4  18   10.94    4.05
  -3  -4  17  114.24   13.12
  -3  -4  16   38.55    7.33
  -3  -4  15   55.83    8.50
  -3  -4  14   51.19    7.81
   3  -4 -13  132.74   12.68
  -3  -4  13   94.25   10.24
   3  -4 -12   99.52   10.71
  -3  -4  12  136.53   11.79
   3  -4 -11   82.89    9.45
  -3  -4  11   63.68    7.92
   3  -4 -10   51.49    7.29
  -3  -4  10   73.89    8.40
   3  -4  -9  162.57   12.04
  -3  -4   9  128.36   10.74
   3  -4  -8   99.53    9.11
  -3  -4   8  135.94   10.61
   3  -4  -7   45.27    5.81
  -3  -4   7   59.91    6.61
   3  -4  -6   10.79    2.76
   3  -4  -5   54.07    5.66
   3  -4  -3   51.42    4.20
   3  -4  -2   94.16    4.99
   3  -4  -1  121.67    4.72
   3  -4   0    0.97    0.15
  -3  -4  -1  306.09   12.96
  -3  -4  -2   83.14    6.64
  -3  -4  -3  138.07    8.64
  -3  -4  -4  124.31    8.41
  -3  -4  -5  162.71    9.59
  -3  -4  -6   49.98    5.57
  -3  -4  -7    6.01    2.06
  -3  -4  -8   86.66    8.05
  -3  -4  -9  261.12   14.39
   3  -4   9  338.50   11.92
  -3  -4 -10   38.64    5.67
   3  -4  10   38.06    4.44
  -3  -4 -11  128.58   10.90
   3  -4  11  201.90   10.96
  -3  -4 -12  114.92   10.89
   3  -4  12  147.87    9.71
  -3  -4 -13  112.00   10.87
   3  -4  13  109.83    8.75
   3  -4  14   39.82    5.61
   3  -4  15   30.00    5.03
   3  -4  16    1.74    1.48
   3  -4  17   10.01    3.33
   3  -4  18   56.81    7.70
   3  -4  19    3.67    1.92
   3  -4  20   11.21    3.49
   3  -4  21   15.13    5.43
   3  -4  22    4.10    2.48
   3  -4  23    2.77    2.04
  -3  -3  25    2.70    2.37
  -3  -3  24   11.82    5.40
  -3  -3  23    6.26    3.66
  -3  -3  22    9.20    4.12
  -3  -3  21    4.07    2.86
  -3  -3  20    0.35    0.89
  -3  -3  19    2.33    1.44
  -3  -3  18    4.25    2.96
  -3  -3  17   25.69    6.04
  -3  -3  16    6.49    3.18
  -3  -3  15   74.29    9.76
  -3  -3  14   86.46   10.10
  -3  -3  13   43.94    7.25
   3  -3 -13   51.09    7.60
  -3  -3  12  201.58   14.33
   3  -3 -12  159.58   13.16
  -3  -3  11   63.49    7.86
   3  -3 -11   69.71    8.42
  -3  -3  10  185.21   12.88
   3  -3 -10  135.45   11.40
  -3  -3   9   51.35    6.69
   3  -3  -9   58.61    7.30
  -3  -3   8   51.95    6.14
   3  -3  -8   47.91    6.28
  -3  -3   7  152.22   10.14
   3  -3  -7  179.83   11.28
  -3  -3   6  290.72   13.86
   3  -3  -6  212.11   11.43
  -3  -3   5   31.23    4.35
   3  -3  -5   27.23    3.97
   3  -3  -4   88.15    6.57
   3  -3  -3   50.43    4.61
   3  -3  -2  654.23   15.11
  -3  -3  -1  302.94   12.11
  -3  -3  -2  405.75   14.07
  -3  -3  -3  152.17    8.33
  -3  -3  -4  125.32    7.68
  -3  -3  -5   23.88    3.53
  -3  -3  -6   30.90    4.26
  -3  -3  -7   37.05    4.78
   3  -3   7   51.36    3.89
  -3  -3  -8   85.04    7.39
   3  -3   8  104.76    6.05
  -3  -3  -9  215.68   12.54
   3  -3   9  154.73    7.81
  -3  -3 -10   80.22    7.95
   3  -3  10   76.23    6.21
  -3  -3 -11  105.71    9.59
   3  -3  11   77.75    6.54
  -3  -3 -12  157.35   12.19
   3  -3  12  120.15    8.46
  -3  -3 -13  202.21   14.38
   3  -3  13  185.92   11.34
   3  -3  14  144.62   10.44
   3  -3  15  108.73    9.86
   3  -3  16   27.17    4.88
   3  -3  17   36.78    6.15
   3  -3  18   14.15    3.98
   3  -3  19    3.02    2.24
   3  -3  20   13.20    4.69
   3  -3  21    7.88    3.31
   3  -3  22    7.54    3.61
   3  -3  23   12.66    4.39
   3  -3  24   16.58    4.81
  -3  -2  25    4.76    3.69
  -3  -2  24    1.00    1.28
  -3  -2  23    6.54    3.97
  -3  -2  22    5.25    3.09
  -3  -2  21   42.62    8.80
  -3  -2  20   15.89    4.93
  -3  -2  19   23.70    6.28
  -3  -2  18   13.75    4.63
  -3  -2  17   40.20    7.38
  -3  -2  16   14.03    4.65
  -3  -2  15  124.46   12.32
  -3  -2  14   33.01    6.01
   3  -2 -14   24.23    5.66
  -3  -2  13  284.60   17.32
   3  -2 -13  352.60   20.13
  -3  -2  12   17.96    4.22
   3  -2 -12   19.93    4.68
  -3  -2  11  190.51   13.17
   3  -2 -11  227.15   15.15
  -3  -2  10   71.09    8.04
   3  -2 -10  107.49    9.83
  -3  -2   9  199.72   12.34
   3  -2  -9  166.42   11.72
  -3  -2   8    7.95    2.27
   3  -2  -8    7.60    2.41
  -3  -2   7  255.62   13.10
   3  -2  -7  281.71   13.82
  -3  -2   6   14.27    3.20
   3  -2  -6   14.38    3.07
  -3  -2   5  125.95    8.20
   3  -2  -5  140.16    8.63
  -3  -2   4   30.88    3.98
   3  -2  -4   26.26    3.52
  -3  -2   3    4.87    1.52
   3  -2  -3    2.33    0.97
   3  -2  -2  292.89    9.89
   3  -2  -1   32.70    3.04
   3  -2   0  632.53   10.90
  -3  -2  -1  179.88    8.70
  -3  -2  -2  104.56    6.83
  -3  -2  -3   63.15    4.97
  -3  -2  -4  172.79    8.51
   3  -2   5   12.80    1.37
  -3  -2  -5   18.01    2.88
  -3  -2  -6   71.98    6.05
   3  -2   6  104.78    4.69
  -3  -2  -7   72.12    6.33
   3  -2   7   58.35    4.11
  -3  -2  -8   17.77    3.30
   3  -2   8   12.55    1.95
  -3  -2  -9   18.79    3.60
   3  -2   9   12.28    2.28
  -3  -2 -10   66.33    7.26
   3  -2  10  103.13    6.96
  -3  -2 -11    6.11    2.41
   3  -2  11    5.24    1.87
  -3  -2 -12   37.32    5.90
   3  -2  12   46.99    5.34
  -3  -2 -13  110.69   10.68
   3  -2  13   85.15    7.81
  -3  -2 -14   12.75    3.90
   3  -2  14    9.71    2.64
   3  -2  15   65.27    7.44
   3  -2  16   50.50    6.65
   3  -2  17   81.33    9.55
   3  -2  18   33.50    6.31
   3  -2  19   50.59    7.63
   3  -2  20   18.10    4.73
   3  -2  21   32.19    6.90
   3  -2  22    3.33    2.58
   3  -2  23   16.87    5.22
   3  -2  24    2.97    2.29
  -3  -1  25    2.98    2.41
  -3  -1  24    7.19    3.81
  -3  -1  23    1.99    1.84
  -3  -1  22    2.45    2.35
  -3  -1  21    5.10    2.95
  -3  -1  20    3.11    2.28
  -3  -1  19   17.87    5.28
  -3  -1  18    5.32    3.08
  -3  -1  17   57.25    9.00
  -3  -1  16   94.95   11.12
  -3  -1  15   47.42    7.65
  -3  -1  14  103.91   11.03
   3  -1 -14   76.34    9.81
  -3  -1  13   12.13    3.70
   3  -1 -13   14.23    4.42
  -3  -1  12   87.32    9.34
   3  -1 -12   67.50    8.74
  -3  -1  11   38.84    6.07
   3  -1 -11   50.79    7.04
  -3  -1  10  239.71   14.20
   3  -1 -10  194.06   12.99
  -3  -1   9  297.62   15.25
   3  -1  -9  296.20   15.40
  -3  -1   8  254.84   13.56
   3  -1  -8  213.25   12.57
  -3  -1   7  544.03   18.66
   3  -1  -7  591.68   19.44
  -3  -1   6   61.63    6.08
   3  -1  -6   69.05    6.41
  -3  -1   5   11.29    2.65
   3  -1  -5    9.26    2.34
  -3  -1   4   75.84    5.72
   3  -1  -4   86.99    6.23
  -3  -1   3  310.66   11.20
   3  -1  -3  361.67   11.48
  -3  -1   2   70.61    4.92
   3  -1  -2   61.64    4.28
  -3  -1   1  122.56    5.94
   3  -1  -1  142.07    5.66
   3  -1   0 1097.25   13.37
  -3  -1  -1  198.84    7.95
   3  -1   1  173.52    5.32
  -3  -1  -2   10.36    1.81
   3  -1   2    7.59    1.07
  -3  -1  -3   27.31    3.00
   3  -1   3   19.66    2.05
  -3  -1  -4   41.19    3.75
   3  -1   4   37.57    3.20
  -3  -1  -5  221.54    9.39
   3  -1   5  213.66    5.73
  -3  -1  -6   64.86    5.42
   3  -1   6   13.49    1.81
  -3  -1  -7  469.93   15.61
   3  -1   7  455.67   11.56
  -3  -1  -8  132.64    8.76
   3  -1   8  187.61    8.23
  -3  -1  -9  220.96   12.21
   3  -1   9  203.13    9.33
  -3  -1 -10  115.37    9.59
   3  -1  10   65.91    5.94
  -3  -1 -11  403.23   18.35
   3  -1  11  311.30   13.58
  -3  -1 -12    6.65    2.44
   3  -1  12    5.22    2.07
  -3  -1 -13  249.81   15.56
   3  -1  13  186.06   11.71
  -3  -1 -14   25.48    5.20
   3  -1  14   25.85    4.47
  -3  -1 -15  151.09   13.18
   3  -1  15  176.80   12.72
   3  -1  16   33.19    5.62
   3  -1  17   97.94   10.00
   3  -1  18    1.42    1.26
   3  -1  19   33.46    6.26
   3  -1  20    1.45    2.16
   3  -1  21    4.06    2.57
   3  -1  22    3.38    2.34
   3  -1  23    1.65    1.63
   3  -1  24   14.91    4.97
   3  -1  25    6.06    3.21
  -3   0  25   39.17    9.32
  -3   0  24    1.57    2.15
  -3   0  23   38.42    8.99
  -3   0  22    8.57    4.00
  -3   0  21  127.27   15.17
  -3   0  20    0.99    1.38
  -3   0  19  103.52   12.73
  -3   0  18    2.20    1.98
  -3   0  17  252.35   18.62
  -3   0  16    4.76    2.75
  -3   0  15  119.83   11.93
  -3   0  14    6.35    2.93
   3   0 -14    5.96    2.75
  -3   0  13  181.57   13.95
   3   0 -13  183.67   14.23
  -3   0  12    2.25    1.58
   3   0 -12    0.20    0.50
  -3   0  11   94.74    9.38
   3   0 -11   89.83    9.06
  -3   0  10   29.69    5.12
   3   0 -10   32.71    5.50
  -3   0   9   85.22    8.07
   3   0  -9   84.92    8.06
   3   0  -8    6.88    2.33
  -3   0   8    6.96    2.41
  -3   0   7   21.72    3.75
   3   0  -7   17.90    3.40
  -3   0   6    0.66    0.29
   3   0  -6    0.13    0.15
  -3   0   5    2.36    0.98
   3   0  -5    2.05    0.94
  -3   0   4    6.23    1.68
   3   0  -4    5.66    1.44
  -3   0   3  982.33   18.96
   3   0  -3  967.68   18.82
  -3   0   2    5.07    1.21
   3   0  -2    4.10    1.14
  -3   0   1  849.75   14.50
   3   0  -1  832.02   14.50
   3   0   0   -0.08    0.43
  -3   0   0    0.53    0.03
   3   0   1  956.83   12.30
   3   0   1  893.13   14.46
  -3   0  -2    6.90    1.27
   3   0   2    6.71    1.23
  -3   0  -3 1041.51   16.24
   3   0   3 1016.09   15.67
  -3   0  -4    1.00    0.57
   3   0   4    1.64    0.75
  -3   0  -5    1.25    0.68
   3   0   5    0.63    0.39
   3   0   5    1.14    0.56
  -3   0  -6   25.22    3.25
   3   0   6   26.63    3.47
   3   0   6   26.07    2.72
  -3   0  -7   83.06    6.43
   3   0   7   78.74    5.20
  -3   0  -8  155.11    9.43
   3   0   8  154.70    7.97
  -3   0  -9   34.14    3.90
  -3   0  -9   33.93    4.62
   3   0   9   32.56    3.90
  -3   0 -10    2.34    1.10
  -3   0 -10    3.57    1.63
   3   0  10    3.58    1.47
  -3   0 -11    7.28    2.47
  -3   0 -11    5.17    1.81
   3   0  11    6.65    2.12
  -3   0 -12   39.74    5.85
  -3   0 -12   33.64    4.69
   3   0  12   40.12    5.14
  -3   0 -13   47.80    6.71
  -3   0 -13   43.80    5.71
   3   0  13   46.22    5.91
  -3   0 -14    2.67    1.90
  -3   0 -14    1.23    0.82
   3   0  14    1.56    1.19
  -3   0 -15   18.05    4.55
  -3   0 -15   13.45    3.43
   3   0  15   15.55    3.91
  -3   0 -16   22.84    4.71
   3   0  16   27.66    5.21
  -3   0 -17    5.47    2.53
   3   0  17    8.61    3.16
   3   0  18    8.03    3.08
   3   0  19    5.59    2.85
   3   0  20   17.05    4.67
   3   0  21   19.31    5.33
   3   0  22   12.71    4.26
   3   0  23    2.25    2.20
   3   0  24    0.13    1.43
   3   0  25    8.10    4.41
  -3   1  25    0.34    0.81
  -3   1  24    6.83    4.04
  -3   1  23    5.14    3.04
  -3   1  22    3.01    2.62
  -3   1  21    4.79    3.04
  -3   1  20    4.10    2.69
  -3   1  19   12.77    4.59
  -3   1  18    9.44    3.95
  -3   1  17   73.84   10.28
  -3   1  16   64.18    9.25
  -3   1  15   42.96    7.37
  -3   1  14   67.26    9.30
   3   1 -14  105.97   11.31
   3   1 -13   10.74    3.67
  -3   1  13   17.88    4.66
  -3   1  12   62.04    8.18
   3   1 -12   91.84    9.62
  -3   1  11   46.66    6.54
   3   1 -11   34.81    5.83
  -3   1  10  189.06   12.89
   3   1 -10  233.59   14.02
  -3   1   9  290.23   15.09
   3   1  -9  291.92   15.03
  -3   1   8  208.09   12.25
   3   1  -8  248.20   13.16
  -3   1   7  578.32   18.79
   3   1  -7  535.46   18.73
   3   1  -6   61.74    6.10
  -3   1   6   72.69    6.49
   3   1  -5   12.22    2.78
  -3   1   5    8.86    2.35
   3   1  -4   74.75    5.73
  -3   1   4   82.87    5.87
   3   1  -3  309.22   11.14
  -3   1   3  351.50   11.06
   3   1  -2   69.27    4.79
  -3   1   2   61.57    4.27
   3   1  -1  124.04    5.95
  -3   1   1  149.44    5.80
   3   1   0 1010.90   16.01
  -3   1   0 1074.90   13.20
   3   1   1  196.97    7.95
   3   1   2    8.04    1.58
  -3   1  -2    6.78    1.12
  -3   1  -3   20.15    1.94
   3   1   3   26.89    2.88
  -3   1  -4   35.67    2.94
   3   1   4   41.65    3.84
  -3   1  -5  227.63    8.29
   3   1   5  237.36   10.12
   3   1   6   68.31    4.83
  -3   1  -6   59.48    4.81
   3   1   6   79.64    6.57
  -3   1  -6   55.15    3.57
   3   1   7  510.05   16.63
  -3   1  -7  470.66   14.61
   3   1   7  530.45   14.99
  -3   1  -7  436.79   11.12
  -3   1  -8  182.48    9.86
  -3   1  -8  183.27    8.16
   3   1   8  133.54    7.99
  -3   1  -9  249.34   12.81
   3   1   9  228.74   11.30
  -3   1  -9  224.19    9.74
  -3   1 -10   87.94    8.07
   3   1  10  108.48    8.40
  -3   1 -10   87.63    6.52
  -3   1 -11  346.91   16.70
  -3   1 -11  330.67   13.60
   3   1  11  406.56   16.29
  -3   1 -12    6.22    2.02
  -3   1 -12    5.33    2.29
   3   1  12    4.51    1.72
  -3   1 -13  240.47   15.35
   3   1  13  271.48   14.83
  -3   1 -13  208.07   12.24
  -3   1 -14   27.96    5.55
   3   1  14   19.42    4.01
  -3   1 -14   23.28    4.25
  -3   1 -15  190.91   15.22
   3   1  15  155.21   12.22
  -3   1 -15  162.68   11.97
  -3   1 -16   31.29    5.60
   3   1  16   13.88    3.89
  -3   1 -17  114.43   10.93
   3   1  17  148.42   12.63
  -3   1 -18    3.14    1.85
   3   1  18    6.89    2.89
   3   1  19   20.08    5.27
   3   1  20   15.80    4.53
   3   1  21    1.88    1.49
   3   1  22    2.74    2.35
   3   1  23    2.27    1.64
   3   1  24   30.07    6.96
   3   1  25    2.48    2.68
   3   1  26    5.73    3.50
  -3   2  24   -0.60    1.43
  -3   2  23    3.84    2.77
  -3   2  22    2.62    2.78
  -3   2  21   49.82    9.63
  -3   2  20    8.60    4.29
  -3   2  19   23.76    6.15
  -3   2  18   17.94    5.35
  -3   2  17   57.51    9.00
  -3   2  16   31.86    6.31
  -3   2  15  187.26   15.47
  -3   2  14   23.01    5.17
   3   2 -14   36.64    6.57
  -3   2  13  344.38   19.12
   3   2 -13  289.58   17.44
   3   2 -12   22.70    4.79
  -3   2  12   20.74    4.53
  -3   2  11  219.50   14.82
   3   2 -11  206.37   14.35
  -3   2  10  102.96    9.52
   3   2 -10   69.71    7.74
   3   2  -9  201.26   12.65
  -3   2   9  164.19   11.40
  -3   2   8    5.75    2.18
   3   2  -8    9.93    2.65
   3   2  -7  261.55   13.27
  -3   2   7  260.03   12.76
   3   2  -6   11.04    2.64
  -3   2   6   12.01    2.64
   3   2  -5  131.07    8.43
  -3   2   5  138.57    8.43
   3   2  -4   32.91    4.01
  -3   2   4   25.65    3.49
   3   2  -3    2.90    1.14
  -3   2   3    3.55    1.23
   3   2  -2  277.47   10.65
  -3   2   2  295.87    9.62
  -3   2   1   34.97    2.96
   3   2   0  667.76   16.36
  -3   2   0  698.63   11.45
   3   2   1  184.22    8.50
  -3   2  -1  152.72    4.42
   3   2   2   97.54    6.30
   3   2   3   63.88    4.86
  -3   2  -3   52.66    2.70
  -3   2  -4  192.63    6.27
   3   2   4  170.92    8.24
   3   2   5   18.67    2.96
  -3   2  -5   13.14    1.88
  -3   2  -5    7.84    1.06
  -3   2  -6  101.90    6.32
   3   2   6   73.82    6.35
  -3   2  -6   96.48    4.59
  -3   2  -7   57.22    4.98
   3   2   7   85.86    7.52
   3   2   7   83.52    6.20
  -3   2  -7   59.84    4.09
   3   2   8   19.74    3.61
  -3   2  -8   18.85    3.09
   3   2   8   18.32    3.13
  -3   2  -8   12.45    2.12
   3   2   9   22.42    4.10
  -3   2  -9   20.01    3.39
   3   2   9   23.32    3.73
  -3   2  -9   15.05    2.56
  -3   2 -10   93.54    7.85
  -3   2 -10   92.91    6.70
   3   2  10   70.43    6.75
  -3   2 -11    5.04    2.00
  -3   2 -11    4.05    1.40
   3   2  11    7.12    2.38
  -3   2 -12   46.56    6.22
  -3   2 -12   39.61    4.96
   3   2  12   34.17    5.19
  -3   2 -13   91.67    9.07
  -3   2 -13   88.25    7.76
   3   2  13  113.40    9.86
  -3   2 -14   14.86    3.92
  -3   2 -14   11.42    3.05
   3   2  14    7.72    2.90
  -3   2 -15   67.08    8.73
   3   2  15   48.65    7.21
  -3   2 -15   63.49    7.32
  -3   2 -16   41.61    7.37
  -3   2 -16   46.24    6.38
   3   2  16   25.18    5.51
  -3   2 -17   84.62    9.23
   3   2  17  100.14   10.88
  -3   2 -18   28.06    5.43
   3   2  18   26.18    5.78
  -3   2 -19   44.87    7.27
   3   2  19   27.54    6.38
   3   2  20   14.13    4.42
   3   2  21   51.91    8.78
   3   2  22    7.52    3.69
   3   2  23   16.54    5.40
   3   2  24   -0.38    1.30
   3   2  25   13.85    5.37
   3   2  26    3.50    2.94
  -3   3  24   23.00    7.07
  -3   3  23   14.11    5.72
  -3   3  22    7.62    4.15
  -3   3  21    4.00    2.71
  -3   3  20    2.46    2.14
  -3   3  19    2.74    2.43
  -3   3  18    5.33    3.12
  -3   3  17   26.23    6.12
  -3   3  16   11.24    3.84
  -3   3  15   98.48   11.33
   3   3 -14   93.01   10.47
  -3   3  14   83.65   10.41
   3   3 -13   41.91    7.22
  -3   3  13   54.73    8.13
   3   3 -12  204.54   14.31
  -3   3  12  168.13   13.32
   3   3 -11   60.51    7.63
  -3   3  11   65.65    7.84
   3   3 -10  180.79   12.57
  -3   3  10  137.45   11.31
   3   3  -9   54.81    6.89
  -3   3   9   55.69    7.09
   3   3  -8   51.88    6.15
  -3   3   8   52.27    6.50
   3   3  -7  157.40   10.51
  -3   3   7  180.71   11.09
   3   3  -6  279.58   13.24
  -3   3   6  227.57   11.91
   3   3  -5   31.24    4.33
  -3   3   5   23.85    3.67
   3   3  -4  129.60    8.34
  -3   3   4   87.67    6.72
   3   3  -3   45.64    4.80
  -3   3   3   51.62    4.79
   3   3  -2  775.76   18.74
  -3   3   2  731.42   16.75
  -3   3   1 1954.70   24.99
   3   3   0 9827.13   68.01
  -3   3   0 9999.00   49.17
   3   3   1  282.43   11.10
   3   3   2  363.69   12.51
  -3   3  -3  117.45    3.26
   3   3   3  146.97    7.87
  -3   3  -4   72.87    3.67
  -3   3  -4   48.25    2.33
  -3   3  -5   26.45    2.57
   3   3   5   24.36    3.55
  -3   3  -5   25.63    2.07
  -3   3  -6   29.48    3.12
   3   3   6   36.07    4.74
  -3   3  -6   19.48    2.05
  -3   3  -7   40.87    4.21
   3   3   7   40.09    5.11
  -3   3  -7   42.67    3.41
   3   3   8   98.02    8.51
   3   3   8   93.38    7.37
  -3   3  -8   94.60    5.69
   3   3   9  230.82   13.42
  -3   3  -9  155.30    8.24
   3   3   9  245.22   12.64
  -3   3 -10   78.66    7.17
  -3   3 -10   80.31    6.19
   3   3  10   88.06    8.16
  -3   3 -11   90.71    8.14
   3   3  11  110.98    9.53
  -3   3 -11   77.32    6.55
  -3   3 -12  136.29   10.51
  -3   3 -12  142.34    9.48
   3   3  12  183.76   12.84
  -3   3 -13  193.34   13.13
  -3   3 -13  198.02   12.15
   3   3  13  225.83   14.61
  -3   3 -14  146.31   12.03
  -3   3 -14  150.29   10.82
   3   3  14  121.68   11.07
  -3   3 -15  126.82   11.59
   3   3  15  167.26   13.31
  -3   3 -15  114.40   10.13
  -3   3 -16   30.30    5.89
   3   3  16   27.98    5.75
  -3   3 -16   22.46    4.59
   3   3  17   62.88    8.80
  -3   3 -17   40.78    6.92
  -3   3 -18   12.37    4.08
   3   3  18   23.63    5.33
  -3   3 -19    0.99    1.33
   3   3  19    1.54    1.38
   3   3  20   38.67    7.55
   3   3  21    7.30    3.36
   3   3  22    6.27    3.16
   3   3  23    9.28    4.10
   3   3  24    8.69    4.19
   3   3  25    1.39    1.78
   3   3  26    2.62    2.60
  -3   4  24    3.20    2.89
  -3   4  23   29.15    7.78
  -3   4  22   10.26    5.26
  -3   4  21  127.40   15.29
  -3   4  20    5.37    3.37
  -3   4  19   95.06   12.52
  -3   4  18   10.67    4.41
  -3   4  17  156.79   15.80
  -3   4  16   62.06    9.52
  -3   4  15   84.77   10.84
  -3   4  14   70.18    9.18
   3   4 -14   50.27    7.62
  -3   4  13  129.61   12.33
   3   4 -13  110.06   11.19
   3   4 -12  149.42   12.63
  -3   4  12   99.46   10.56
   3   4 -11   68.72    8.34
  -3   4  11   89.52    9.82
   3   4 -10   74.15    8.27
  -3   4  10   52.24    7.07
   3   4  -9  126.88   10.33
  -3   4   9  160.48   11.79
   3   4  -8  135.83   10.53
  -3   4   8  101.90    9.27
   3   4  -7   61.69    6.78
  -3   4   7   46.00    6.05
   3   4  -6   13.92    3.19
  -3   4   6   11.50    2.98
   3   4  -5   40.42    5.09
  -3   4   5   54.25    5.85
   3   4  -4  232.04   12.01
  -3   4   4  187.46   10.18
   3   4  -3   43.71    4.87
  -3   4   3   57.15    5.39
  -3   4   2   97.70    6.42
  -3   4   1  149.68    7.38
   3   4  -1  131.41    8.44
   3   4   0    4.11    1.46
   3   4   1  266.92   11.64
   3   4   2   83.40    6.45
   3   4   3  123.00    7.66
   3   4   4  121.98    8.09
   3   4   5  167.17    9.76
  -3   4  -5  187.09    6.76
   3   4   6   56.97    6.06
  -3   4  -6   35.29    3.20
   3   4   7    5.90    2.19
  -3   4  -7    4.20    1.06
   3   4   8  102.32    8.97
  -3   4  -8  149.95    7.53
   3   4   9  275.47   15.36
   3   4   9  271.45   14.12
  -3   4  -9  327.91   11.79
   3   4  10   49.65    6.81
  -3   4 -10   46.11    4.78
   3   4  10   44.45    6.00
  -3   4 -11  188.83   10.39
   3   4  11  143.49   11.39
  -3   4 -12  160.40   10.28
   3   4  12  121.45   10.71
   3   4  13  123.42   11.10
  -3   4 -13  103.09    8.43
   3   4  14   58.78    8.30
  -3   4 -14   35.19    5.11
  -3   4 -15   34.15    6.03
   3   4  15   36.03    6.46
  -3   4 -15   28.07    4.87
  -3   4 -16    2.53    1.78
   3   4  16    5.21    2.48
  -3   4 -16    1.64    1.36
   3   4  17   20.30    5.10
  -3   4 -17   16.78    4.09
   3   4  18   35.41    6.85
  -3   4 -18   50.65    7.43
  -3   4 -19    4.37    2.45
   3   4  19    7.31    3.62
   3   4  20    9.87    3.85
   3   4  21   39.26    7.93
   3   4  22    0.93    1.09
   3   4  23    5.85    3.29
   3   4  24    2.28    1.97
   3   4  25    2.68    2.44
   3   4  26    0.11    2.29
  -3   5  23    1.21    0.83
  -3   5  22    8.09    4.42
  -3   5  21    3.03    2.99
  -3   5  20   15.48    5.55
  -3   5  19   15.07    5.10
  -3   5  18   63.99   10.43
  -3   5  17   20.10    5.97
  -3   5  16   61.57    9.23
  -3   5  15   34.44    7.20
  -3   5  14  115.72   12.41
   3   5 -13   54.18    7.81
  -3   5  13   48.63    8.08
   3   5 -12   56.80    7.87
  -3   5  12   39.34    6.81
   3   5 -11  141.53   12.23
  -3   5  11  216.21   15.27
   3   5 -10  195.71   13.76
  -3   5  10  145.68   12.16
   3   5  -9   79.59    8.54
  -3   5   9   97.19    9.78
   3   5  -8  548.25   21.33
  -3   5   8  479.55   21.01
   3   5  -7  253.26   14.37
  -3   5   7  344.89   16.69
   3   5  -6   14.13    3.44
  -3   5   6   17.63    3.85
   3   5  -5   73.04    7.33
  -3   5   5  109.33    8.69
   3   5  -4   14.59    3.19
  -3   5   4   22.17    3.68
  -3   5   3    5.70    1.65
  -3   5   2   35.77    4.22
   3   5  -1   56.72    5.95
   3   5   0   27.55    4.10
   3   5   1   20.85    3.51
   3   5   2   76.04    6.47
   3   5   3   35.43    4.40
   3   5   4   59.97    5.98
   3   5   5   18.21    3.43
  -3   5  -5   15.33    2.26
   3   5   6  173.53   10.91
  -3   5  -6  171.30    7.81
   3   5   7  336.06   16.31
  -3   5  -7  307.69   10.98
   3   5   8   49.83    6.52
  -3   5  -8   50.49    4.78
   3   5   9  402.72   19.72
   3   5   9  376.69   17.20
  -3   5  -9  339.39   12.85
   3   5  10   32.80    5.61
   3   5  10   32.02    5.26
  -3   5 -10   16.80    3.06
   3   5  11  338.12   18.85
   3   5  11  342.83   17.82
  -3   5 -11  267.49   12.63
   3   5  12  187.72   13.86
  -3   5 -12  134.51    9.49
   3   5  13  126.96   11.53
  -3   5 -13   90.50    8.38
  -3   5 -14  212.36   13.13
   3   5  14  174.55   14.19
   3   5  15  147.76   13.83
  -3   5 -15  105.81    9.43
   3   5  16   16.44    4.73
  -3   5 -16   23.18    4.70
   3   5  17   32.48    6.61
  -3   5 -17   20.96    4.70
   3   5  18   23.16    5.87
  -3   5 -18   14.14    3.90
  -3   5 -19    9.98    3.47
   3   5  19   13.25    4.69
   3   5  20   50.47    9.08
   3   5  21    4.98    3.12
   3   5  22    9.55    4.23
   3   5  23   13.51    4.94
   3   5  24   18.94    5.87
   3   5  25    6.56    3.48
  -3   6  23    7.45    4.11
  -3   6  22    6.93    3.91
  -3   6  21   44.28    9.49
  -3   6  20    9.02    4.45
  -3   6  19   38.66    8.50
  -3   6  18   10.42    4.48
  -3   6  17   78.53   11.22
  -3   6  16   14.61    4.70
  -3   6  15   18.38    5.16
  -3   6  14   11.49    4.13
   3   6 -13  177.28   14.66
  -3   6  13  190.26   15.57
   3   6 -12   31.76    5.91
  -3   6  12   29.57    5.92
   3   6 -11  179.01   14.00
  -3   6  11  162.59   13.70
   3   6 -10   91.10    9.53
  -3   6  10   93.53   10.24
   3   6  -9  271.71   16.04
  -3   6   9  236.80   15.59
   3   6  -8   54.46    7.30
  -3   6   8   55.29    7.43
   3   6  -7  165.08   12.03
  -3   6   7  139.88   11.02
   3   6  -6  102.24    9.16
  -3   6   6  124.63   10.19
   3   6  -5   77.09    7.92
  -3   6   5   73.63    7.45
  -3   6   4  185.23   11.37
  -3   6   3   48.99    5.58
   3   6  -2   88.70    8.02
   3   6  -1   97.84    8.17
  -3   6   0   79.84    4.00
   3   6   0   90.03    7.81
  -3   6  -1  206.72    5.70
   3   6   1  209.62   11.47
  -3   6  -2   34.64    2.03
   3   6   2   53.65    5.85
  -3   6  -3  105.29    3.96
   3   6   3   80.97    7.04
   3   6   4  117.85    8.82
   3   6   5   17.30    3.45
   3   6   6   11.59    3.09
  -3   6  -6   13.55    2.38
   3   6   7   29.11    4.96
  -3   6  -7   24.00    3.37
   3   6   8  172.32   12.45
  -3   6  -8  250.22   11.05
   3   6   9   67.05    8.15
  -3   6  -9   73.68    6.20
   3   6  10   71.78    8.85
   3   6  10   71.80    8.19
  -3   6 -10   56.47    5.75
   3   6  11   49.08    7.04
   3   6  11   47.81    7.25
  -3   6 -11   41.58    5.16
   3   6  12   57.37    8.33
  -3   6 -12   52.73    5.92
   3   6  12   58.00    8.02
   3   6  13  161.23   13.88
  -3   6 -13  117.20    9.45
  -3   6 -14   45.58    6.00
   3   6  14   70.95    9.35
   3   6  15    6.83    2.80
  -3   6 -15    6.96    2.44
  -3   6 -16    6.60    2.53
   3   6  16   16.55    4.75
   3   6  17  131.06   14.07
  -3   6 -17   52.55    8.30
   3   6  18   68.88   10.32
  -3   6 -18   25.71    6.02
   3   6  19   22.24    5.84
   3   6  20   38.97    8.23
   3   6  21   43.77    8.84
   3   6  22   11.43    4.51
   3   6  23    0.57    1.82
   3   6  24    6.83    4.15
  -3   7  22    9.03    4.60
  -3   7  21    1.19    1.55
  -3   7  20    9.93    4.64
  -3   7  19    7.75    3.75
  -3   7  18    3.95    3.08
  -3   7  17   27.76    7.20
  -3   7  16   28.24    6.80
  -3   7  15   13.73    4.34
  -3   7  14   25.80    6.49
  -3   7  13   49.29    8.35
   3   7 -12   29.28    6.00
  -3   7  12   19.03    5.30
   3   7 -11  115.73   11.71
  -3   7  11  177.92   15.35
   3   7 -10   62.81    8.18
  -3   7  10   54.19    8.26
   3   7  -9   65.43    8.13
  -3   7   9   80.48    9.49
   3   7  -8   32.49    5.76
  -3   7   8   43.45    6.76
   3   7  -7   43.85    6.30
  -3   7   7   71.60    8.40
   3   7  -6   38.23    5.92
  -3   7   6   47.46    6.49
  -3   7   5   23.73    4.43
   3   7  -5   30.10    5.00
  -3   7   4   63.33    6.84
   3   7  -2   18.81    3.93
  -3   7   1   35.18    3.34
   3   7  -1   39.94    5.55
  -3   7   0   39.13    3.44
   3   7   0   26.97    4.35
  -3   7  -1   76.51    4.05
   3   7   1  100.92    8.42
  -3   7  -2  100.20    4.35
   3   7   2  148.09   10.20
   3   7   3   26.24    4.32
  -3   7  -3   16.20    1.81
   3   7   4   31.20    4.78
  -3   7  -4   28.50    2.64
   3   7   5   10.05    2.68
   3   7   6   98.31    8.99
  -3   7  -6   83.29    6.57
   3   7   7   54.33    6.94
  -3   7  -7   45.58    5.13
   3   7   8  123.62   10.83
  -3   7  -8  137.06    8.88
   3   7   9   48.76    6.97
  -3   7  -9   56.35    5.74
   3   7  10  165.14   13.86
  -3   7 -10  134.56    9.35
   3   7  11   14.96    4.18
   3   7  11   15.44    4.15
  -3   7 -11   10.55    2.58
   3   7  12  141.38   13.44
   3   7  12  141.44   12.97
  -3   7 -12  126.25    9.60
   3   7  13    5.27    2.63
  -3   7 -13    3.75    1.72
   3   7  14  104.58   12.09
  -3   7 -14  124.33   10.42
   3   7  15   54.96    8.74
  -3   7 -15   32.82    5.70
  -3   7 -16   13.38    3.46
   3   7  16   12.40    4.19
   3   7  17    9.96    3.97
  -3   7 -17    8.21    2.87
   3   7  18   12.58    4.77
  -3   7 -18    6.83    2.57
   3   7  19   12.74    4.83
   3   7  20   24.30    6.68
   3   7  21   16.12    5.86
   3   7  22   12.79    5.16
   3   7  23    1.18    2.37
   3   7  24    0.90    0.65
  -3   8  21   48.05   10.24
  -3   8  20   18.82    5.83
  -3   8  19   46.92    9.72
  -3   8  18   50.13    9.64
  -3   8  17   63.34   10.92
  -3   8  16   21.03    5.82
  -3   8  15   36.08    7.73
  -3   8  14   74.35   10.52
  -3   8  13   86.56   11.49
  -3   8  12   40.51    7.71
   3   8 -11   71.88    9.09
  -3   8  11   71.27    9.76
   3   8 -10   35.38    6.46
  -3   8  10   41.72    7.47
   3   8  -9   57.17    8.00
  -3   8   9   71.26    9.29
   3   8  -8  124.50   11.53
  -3   8   8  104.62   10.90
   3   8  -7  102.72   10.57
  -3   8   7   80.30    9.14
  -3   8   6    7.92    2.81
   3   8  -6    5.59    2.48
  -3   8   5   82.57    8.55
  -3   8   4   57.17    6.87
   3   8  -3  279.85   15.83
  -3   8   2   18.06    2.86
   3   8  -2   15.17    3.37
  -3   8   1  177.99    8.57
   3   8  -1  185.66   12.49
  -3   8   0  157.41    7.37
   3   8   0  144.10   10.59
  -3   8  -1   23.99    2.55
   3   8   1   23.65    4.36
  -3   8  -2   43.46    3.28
   3   8   2   38.90    5.51
  -3   8  -3   13.99    1.94
   3   8   3   15.00    3.51
   3   8   4   70.18    7.48
  -3   8  -4  100.42    5.42
   3   8   5   20.35    4.02
  -3   8  -5   27.65    2.98
   3   8   6   19.73    4.33
   3   8   7   33.44    5.52
  -3   8  -7   48.04    5.50
   3   8   8   65.79    8.40
  -3   8  -8   87.01    7.46
   3   8   9  181.71   14.01
  -3   8  -9  243.84   12.86
   3   8  10  131.26   13.09
  -3   8 -10   74.15    7.31
   3   8  11   93.26   10.90
   3   8  11   91.32   10.32
  -3   8 -11  121.88    9.55
   3   8  12   29.79    6.32
   3   8  12   32.78    6.43
  -3   8 -12   40.92    5.59
  -3   8 -13   28.91    4.79
   3   8  13   39.78    7.22
   3   8  14    7.36    3.09
  -3   8 -14    7.27    2.58
   3   8  15   12.13    4.29
  -3   8 -15    4.94    2.05
  -3   8 -16   12.86    4.02
   3   8  16   18.62    5.46
   3   8  17    5.55    3.13
  -3   8 -17   -0.21    0.67
   3   8  18   40.09    8.69
   3   8  19    4.75    2.97
   3   8  20   13.51    4.91
   3   8  21   20.92    6.44
   3   8  22   11.58    5.15
   3   8  23    0.45    1.86
  -3   9  20   12.05    5.12
  -3   9  19    8.74    4.80
  -3   9  18    8.76    4.19
  -3   9  17   21.91    6.86
  -3   9  16    4.97    3.88
  -3   9  15   23.46    5.29
  -3   9  14    8.69    3.96
  -3   9  13   39.89    8.37
  -3   9  12  100.61   12.35
  -3   9  11   47.37    8.51
  -3   9  10  101.76   11.74
   3   9  -9   35.00    6.30
  -3   9   9   55.01    8.54
   3   9  -8   48.99    7.39
  -3   9   8   43.08    7.09
  -3   9   7   12.45    3.82
   3   9  -7   12.63    3.87
  -3   9   6   50.18    7.35
   3   9  -6   31.32    5.71
  -3   9   5   10.33    3.08
   3   9  -4   60.42    7.72
   3   9  -3   24.44    4.79
  -3   9   2   25.04    3.45
   3   9  -2   18.53    4.08
  -3   9   1   12.61    2.38
   3   9  -1   14.93    3.64
  -3   9   0  108.56    6.58
   3   9   0  132.51   10.62
  -3   9  -1   54.84    4.30
   3   9   1   40.22    5.72
  -3   9  -2   21.12    2.48
   3   9   2   32.87    5.19
   3   9   3   26.12    4.69
  -3   9  -3   19.31    2.46
   3   9   4   23.41    4.76
  -3   9  -4   14.90    2.33
   3   9   5   32.88    5.50
  -3   9  -5   22.63    2.94
   3   9   6  175.01   13.13
  -3   9  -6  142.51    8.04
   3   9   7   35.28    5.93
  -3   9  -7   23.10    4.06
   3   9   8  161.42   13.75
  -3   9  -8  105.35    9.02
   3   9   9   43.83    7.24
  -3   9  -9   32.29    5.19
   3   9  10  235.10   18.09
  -3   9 -10  175.68   11.86
   3   9  11  132.77   13.48
   3   9  11  137.30   13.37
  -3   9 -11   98.92    9.07
   3   9  12   23.05    5.75
   3   9  12   22.77    5.64
  -3   9 -12   12.53    3.32
   3   9  13   49.49    8.58
   3   9  13   51.52    9.07
  -3   9 -13   23.79    4.91
  -3   9 -14   17.22    4.06
   3   9  14   34.77    7.40
   3   9  15    8.16    3.99
  -3   9 -15    8.48    2.81
   3   9  16   22.08    6.16
  -3   9 -16   10.77    3.40
   3   9  17   13.14    4.93
   3   9  18   19.44    6.11
   3   9  19    6.03    3.22
   3   9  20    3.69    2.66
   3   9  21    0.29    1.58
   3   9  22    6.71    4.14
  -3  10  19    6.57    3.77
  -3  10  18   30.50    7.83
  -3  10  17   47.45    9.77
  -3  10  16   20.34    6.06
  -3  10  15   17.70    5.52
  -3  10  14   56.61   10.21
  -3  10  13   57.88    9.89
  -3  10  12   41.47    8.11
  -3  10  11   57.53    9.25
  -3  10  10  165.64   15.61
  -3  10   9  184.17   15.77
  -3  10   8   17.92    5.16
  -3  10   7  111.00   11.78
  -3  10   6  136.40   12.64
   3  10  -6   81.15    9.56
  -3  10   5  160.93   13.23
   3  10  -5  155.56   13.19
   3  10  -4   31.65    5.86
  -3  10   3   77.32    7.11
   3  10  -3   86.70    9.52
  -3  10   2   38.21    4.72
   3  10  -2   24.64    4.61
  -3  10   1  128.67    8.52
   3  10  -1  112.43   10.22
  -3  10   0   91.26    6.55
   3  10   0   94.95    9.39
  -3  10  -1    9.60    1.84
   3  10   1    9.93    3.01
  -3  10  -2   13.36    2.32
   3  10   2   12.42    3.29
   3  10   3   57.16    7.42
  -3  10  -3   62.91    4.73
   3  10   4  107.84   10.28
  -3  10  -4  118.12    6.80
   3  10   5   20.77    4.65
  -3  10  -5   20.75    2.77
   3  10   6   43.83    6.80
  -3  10  -6   55.90    5.12
   3  10   7   51.37    7.50
  -3  10  -7   80.46    8.01
  -3  10  -7   90.09    7.00
   3  10   8   75.23    9.58
  -3  10  -8  109.03    9.69
   3  10   9   81.06   10.13
  -3  10  -9   66.61    7.55
   3  10  10   75.91   10.56
  -3  10 -10  102.26    9.55
   3  10  11   22.88    5.77
  -3  10 -11   26.83    4.87
   3  10  12   33.67    7.05
   3  10  12   32.38    6.96
  -3  10 -12   50.85    6.93
   3  10  13   39.97    8.10
   3  10  13   34.14    7.30
  -3  10 -13   30.25    5.40
  -3  10 -14   23.88    5.19
   3  10  14   47.01    8.58
   3  10  15   14.84    4.87
  -3  10 -15   12.38    3.46
   3  10  16   26.09    6.99
   3  10  17    3.60    2.86
   3  10  18   41.85    9.00
   3  10  19    3.66    3.49
   3  10  20   42.50    9.56
  -3  11  18    9.84    4.72
  -3  11  17    4.10    3.76
  -3  11  16    5.27    3.29
  -3  11  15   41.46    9.09
  -3  11  14   14.16    5.14
  -3  11  13   23.10    6.47
  -3  11  12   37.08    8.02
  -3  11  11   39.87    8.22
  -3  11  10    6.43    3.33
  -3  11   9   32.15    6.95
  -3  11   8   48.95    8.45
  -3  11   7   19.67    4.96
  -3  11   6   40.79    7.17
   3  11  -6   38.39    6.84
   3  11  -5   66.10    8.80
   3  11  -4   37.71    6.28
  -3  11   3   30.75    4.61
   3  11  -3   44.84    6.94
  -3  11   2   27.79    4.27
   3  11  -2   25.78    5.05
  -3  11   1   27.67    4.06
   3  11  -1   32.95    5.82
  -3  11   0   23.29    3.38
   3  11   0   21.25    4.59
  -3  11  -1   15.53    2.65
   3  11   1   13.97    3.55
  -3  11  -2   53.93    4.80
   3  11   2   79.90    9.04
   3  11   3    4.38    2.01
  -3  11  -3    3.67    1.17
  -3  11  -4   20.25    2.96
   3  11   4   16.62    4.22
   3  11   5   21.72    4.74
  -3  11  -5   19.02    2.73
   3  11   6  107.84   11.13
  -3  11  -6   71.97    5.92
   3  11   7   13.10    3.82
  -3  11  -7   18.52    3.16
   3  11   8  227.73   17.26
  -3  11  -8  182.65   13.23
  -3  11  -8  192.23   10.75
   3  11   9   10.84    3.79
  -3  11  -9    8.73    2.89
   3  11  10   53.82    9.28
  -3  11 -10   28.91    5.42
   3  11  11    6.74    3.18
  -3  11 -11    5.95    2.18
   3  11  12    3.88    2.56
   3  11  12    4.28    2.70
  -3  11 -12    1.15    1.40
   3  11  13   13.07    4.93
   3  11  13   11.65    4.66
  -3  11 -13   10.96    3.27
   3  11  14   47.67    9.13
   3  11  15    5.70    3.46
   3  11  16   28.03    7.54
   3  11  17   10.07    4.26
   3  11  18   35.11    8.47
   3  11  19    4.06    2.74
  -3  12  17   20.99    6.59
  -3  12  16   17.31    6.45
  -3  12  15   22.06    6.53
  -3  12  14   99.68   14.06
  -3  12  13   39.70    8.89
  -3  12  12   24.54    6.48
  -3  12  11   15.34    5.21
  -3  12  10   44.29    8.68
  -3  12   9   28.49    6.66
  -3  12   8   57.49    9.44
   3  12  -8   63.50    9.43
  -3  12   7  215.48   17.71
   3  12  -7  250.48   18.37
  -3  12   6   26.98    6.07
   3  12  -6   31.41    6.21
   3  12  -5   22.21    4.97
   3  12  -4   37.29    6.59
  -3  12   3   14.23    3.32
   3  12  -3   14.15    3.96
  -3  12   2   18.52    3.70
   3  12  -2   21.12    4.85
  -3  12   1   32.09    4.70
   3  12  -1   29.56    5.50
  -3  12   0   51.90    5.64
   3  12   0   39.86    6.43
  -3  12  -1    4.58    1.59
   3  12   1    4.13    2.02
  -3  12  -2   11.07    2.35
   3  12   2   12.64    3.48
   3  12   3   30.75    5.80
  -3  12  -3   38.98    4.35
  -3  12  -4   16.47    2.63
   3  12   4   13.63    4.05
   3  12   5   52.32    7.76
  -3  12  -5   53.94    4.97
   3  12   6   50.70    7.89
  -3  12  -6   35.52    4.12
   3  12   7   32.78    6.58
  -3  12  -7   41.32    4.87
   3  12   8   36.46    7.01
  -3  12  -8   48.74    7.06
  -3  12  -8   48.78    5.67
   3  12   9   28.20    6.19
  -3  12  -9   38.18    6.47
  -3  12  -9   38.81    5.00
   3  12  10    3.90    2.24
  -3  12 -10    2.92    1.76
  -3  12 -10    2.16    1.12
   3  12  11   44.53    8.57
  -3  12 -11   58.46    7.89
   3  12  12   40.79    8.27
   3  12  12   43.31    8.73
  -3  12 -12   26.30    5.56
   3  12  13   12.98    4.89
   3  12  13   15.20    5.19
   3  12  14   16.92    5.72
   3  12  15    5.23    3.70
   3  12  16    9.65    4.59
   3  12  17    9.20    4.30
   3  12  18    9.25    4.89
  -3  13  16   10.94    5.10
  -3  13  15   30.65    8.31
  -3  13  14    8.59    4.07
  -3  13  13   13.37    5.40
  -3  13  12   14.53    5.62
  -3  13  11   35.59    8.11
  -3  13  10    8.68    3.89
   3  13  -9   46.38    8.48
  -3  13   9   48.75    9.06
  -3  13   8   22.93    5.85
   3  13  -8   16.76    5.04
  -3  13   7   18.07    5.64
   3  13  -7   11.59    3.82
  -3  13   6   35.92    7.36
   3  13  -6   24.83    5.70
   3  13  -5    0.58    0.36
   3  13  -4   10.42    3.58
  -3  13   3    2.04    1.67
   3  13  -3   -0.49    1.58
  -3  13   2   20.60    4.04
   3  13  -2   17.87    4.65
  -3  13   1    8.01    2.36
   3  13  -1    6.40    2.28
  -3  13   0    9.12    2.58
   3  13   0    6.63    2.56
  -3  13  -1    2.61    1.17
   3  13   1    4.79    2.22
  -3  13  -2    7.70    2.02
   3  13   2   10.29    3.33
  -3  13  -3   12.29    2.37
   3  13   3    9.81    3.36
   3  13   4   21.52    5.41
  -3  13  -4   11.90    2.35
   3  13   5    3.01    1.93
  -3  13  -5    3.60    1.24
   3  13   6   73.18    9.84
  -3  13  -6   46.59    5.00
   3  13   7   10.31    3.73
  -3  13  -7    6.06    1.75
   3  13   8   27.80    6.24
  -3  13  -8   25.42    5.35
  -3  13  -8   27.37    4.03
  -3  13  -9    5.60    1.63
   3  13   9    6.47    3.26
  -3  13 -10   56.63    6.30
   3  13  10   92.78   12.91
  -3  13 -11    4.05    1.76
   3  13  11    3.84    2.49
  -3  13 -12   14.50    3.48
   3  13  12   27.92    7.32
   3  13  12   25.70    6.73
   3  13  13   25.88    7.46
   3  13  13   21.12    6.19
   3  13  14   25.08    7.05
   3  13  15    7.79    4.72
   3  13  16    5.98    3.60
  -3  14  14   23.60    7.05
  -3  14  13   13.65    5.95
  -3  14  12   14.38    5.76
   3  14 -11   26.83    6.79
  -3  14  11   24.19    6.60
   3  14 -10   70.06   10.68
  -3  14  10   77.11   12.08
   3  14  -9   61.62    9.83
  -3  14   9   59.14   10.40
   3  14  -8    0.81    0.29
  -3  14   8    2.28    1.66
   3  14  -7   18.90    5.15
  -3  14   7    9.26    3.71
   3  14  -6   28.86    6.15
  -3  14   6   37.60    7.66
   3  14  -5   35.27    6.84
   3  14  -4    5.55    2.58
   3  14  -3   46.06    7.60
  -3  14   3   48.12    6.68
   3  14  -2   12.83    3.82
  -3  14   2    9.98    2.84
   3  14  -1   97.67   11.19
  -3  14   1  104.71    9.42
   3  14   0   21.99    5.05
  -3  14   0   30.41    5.03
  -3  14  -1  136.77    9.77
   3  14   1  123.87   12.59
   3  14   2    9.06    3.49
  -3  14  -2   11.86    2.74
  -3  14  -3   55.87    6.00
   3  14   3   33.41    6.44
  -3  14  -4    6.32    1.78
   3  14   4    4.25    2.43
  -3  14  -5   14.12    2.83
   3  14   5   11.60    3.96
  -3  14  -6   29.74    4.14
   3  14   6   40.88    7.57
  -3  14  -7   66.46    6.45
   3  14   7   50.23    8.84
  -3  14  -8   15.16    2.79
   3  14   8   15.86    5.19
   3  14   9   22.09    5.96
   3  14  10    7.74    3.90
   3  14  11   18.59    5.80
   3  14  12   14.85    5.50
   3  14  12   17.66    5.93
   3  14  13   10.46    4.60
   3  14  13    6.88    3.51
   3  14  14   45.88   10.05
   3  15 -14    3.51    2.77
   3  15 -13    2.94    2.35
  -3  15  13    6.25    3.80
  -3  15  12    4.30    2.72
   3  15 -12    5.71    2.95
  -3  15  11   13.71    5.55
   3  15 -11   10.75    4.38
  -3  15  10   10.95    4.58
   3  15 -10   10.72    4.14
  -3  15   9    5.43    3.39
   3  15  -9    6.20    3.14
  -3  15   8   24.07    6.75
   3  15  -8   17.90    5.28
  -3  15   7   13.82    5.34
   3  15  -7   11.38    4.30
  -3  15   6   34.30    7.98
   3  15  -6   19.32    5.15
   3  15  -5    2.57    2.08
   3  15  -4   12.92    4.03
   3  15  -3    6.01    2.82
  -3  15   2   12.71    3.32
   3  15  -2   13.06    3.93
  -3  15   1   31.06    5.26
   3  15  -1   24.58    5.41
  -3  15   0   14.12    3.31
   3  15   0   10.80    3.88
  -3  15  -1    4.43    1.74
   3  15   1    2.22    1.52
  -3  15  -2   19.54    3.54
   3  15   2   21.06    5.44
  -3  15  -3    1.22    0.73
   3  15   3    0.42    0.27
   3  15   4   11.77    3.81
  -3  15  -4    9.85    2.51
   3  15   5    4.49    2.80
   3  15   6   39.82    8.16
   3  15   7   19.13    5.74
   3  15   8   14.26    5.03
   3  15   9    9.14    4.19
   3  15  10   19.76    6.00
   3  15  11   19.75    6.05
   3  15  12    5.62    3.79
   3  15  12    3.19    2.51
   3  15  13   24.40    7.33
   3  16 -14   25.20    7.48
   3  16 -13    5.02    3.19
   3  16 -12    1.51    1.67
  -3  16  11   23.90    7.34
   3  16 -11   22.39    6.50
  -3  16  10   14.47    5.89
   3  16 -10    6.32    3.11
  -3  16   9   13.94    5.58
   3  16  -9   15.94    5.29
  -3  16   8    3.98    2.35
   3  16  -8    8.73    3.57
  -3  16   7   23.88    7.06
   3  16  -7   28.66    6.66
  -3  16   6   13.10    4.63
   3  16  -6   10.71    3.87
  -3  16   5   22.61    6.20
   3  16  -5   24.94    6.23
   3  16  -4    6.64    2.93
   3  16  -3   36.47    7.26
  -3  16   2    4.37    2.20
   3  16  -2    5.23    2.33
  -3  16   1   10.68    3.12
   3  16  -1   13.71    4.29
   3  16   0    2.06    2.00
   3  16   1   43.91    7.85
   3  16   2   18.72    5.06
   3  16   3    9.77    3.77
   3  16   4    1.89    1.82
   3  16   5   19.73    5.44
   3  16   6   12.10    4.65
   3  16   7   11.33    4.46
   3  16   8    2.29    2.33
   3  16   9   14.38    5.17
   3  16  10   25.93    7.43
   3  16  11    7.63    3.73
   3  16  12    6.48    3.63
   3  17 -11    2.51    1.86
   3  17 -10    5.36    3.28
   3  17  -9   -1.03    0.67
  -3  17   8   15.77    5.64
   3  17  -8    8.72    3.78
  -3  17   7    7.96    4.84
   3  17  -7    6.81    2.90
  -3  17   6    5.18    3.36
   3  17  -6    3.43    2.21
  -3  17   5    1.07    2.46
   3  17  -5   -0.94    2.11
   3  17  -4   -0.64    0.87
   3  17  -3    9.99    3.53
   3  17  -2    2.05    0.96
   3  17  -1    2.33    1.85
   3  17   0    2.52    1.56
   3  17   1    0.96    2.11
   3  17   2    5.27    2.80
   3  17   3    1.26    1.77
   3  17   4    6.39    3.38
   3  17   5    6.32    3.60
   3  17   6   20.53    6.07
   3  17   7   -0.28    1.73
   3  17   8   15.58    5.67
   3  17   9    3.12    2.26
   3  17  10   16.93    6.22
   3  17  11    7.99    4.36
   3  18  -7    3.51    2.58
   3  18  -6   22.30    6.00
  -3  18   5   11.74    4.97
   3  18  -5   13.59    5.08
   3  18  -4    5.27    2.56
   3  18  -3   13.01    4.76
   3  18  -2    8.12    3.17
   3  18  -1   19.42    5.66
   3  18   0    5.50    2.18
   3  18   1   10.67    4.39
   3  18   2    3.42    2.73
   3  18   3   26.69    6.82
   3  18   4   -1.91    2.85
   3  18   5    7.75    4.03
   3  18   6    7.73    3.45
   3  18   7   31.78    7.99
   3  18   8    0.98    1.48
   3  18   9    5.40    2.51
   3  19  -2    5.62    3.14
   3  19  -1   -1.05    1.87
   3  19   0    0.11    1.56
   3  19   1    5.42    2.86
   3  19   2    8.05    4.41
   3  19   3    2.71    2.19
   3  19   4    0.14    0.98
   3  19   5    6.36    2.94
   3  19   6    8.98    4.48
   3  19   7   -0.67    1.21
   4 -14  -6    4.94    2.23
   4 -14  -5   13.08    3.63
   4 -14  -4   47.77    6.90
   4 -13  -8    8.40    3.04
   4 -13  -7   90.96    9.51
   4 -13  -6   21.79    4.54
   4 -13  -5    4.97    1.91
   4 -13  -4   13.46    3.15
   4 -13  -3    2.15    1.43
   4 -12  -9    7.91    3.04
   4 -12  -8   18.11    4.20
   4 -12  -7    5.96    2.34
   4 -12  -6    7.83    2.67
   4 -12  -5   46.84    6.19
   4 -12  -4   15.90    3.62
   4 -12  -3   96.17    8.38
   4 -11 -10    3.31    1.98
   4 -11  -9    3.01    1.81
   4 -11  -8    2.25    1.26
   4 -11  -7   40.18    5.80
   4 -11  -6   52.55    6.34
   4 -11  -5    8.92    2.46
   4 -11  -4   13.45    2.89
   4 -11  -3   48.23    5.71
   4 -11  -2   22.98    3.81
   4 -10 -10   15.08    4.03
   4 -10  -9   91.87    9.22
   4 -10  -8   17.73    3.93
   4 -10  -7    6.04    2.42
   4 -10  -6   66.82    7.01
   4 -10  -5   12.58    3.05
   4 -10  -4   45.46    5.31
   4 -10  -3   65.62    6.03
   4 -10  -2   23.68    3.59
   4 -10  -1  164.32    8.96
  -4 -10  -3  115.73   11.81
  -4 -10  -4    3.91    2.03
  -4 -10  -5   62.76    8.77
   4  -9 -11   72.41    8.92
   4  -9 -10   26.34    5.12
   4  -9  -9   10.63    3.09
   4  -9  -8   13.43    3.52
   4  -9  -7   84.46    7.87
   4  -9  -6    8.74    2.55
   4  -9  -5   36.12    4.69
   4  -9  -4    8.82    2.14
   4  -9  -3   95.57    6.79
   4  -9  -2   10.00    2.15
   4  -9  -1   89.94    6.02
  -4  -9  -3   13.35    3.84
  -4  -9  -4   50.94    7.28
  -4  -9  -5   11.86    3.52
  -4  -9  -6   26.65    5.60
  -4  -9  -7   76.31    9.40
   4  -8 -11    0.39    0.51
   4  -8 -10    9.60    3.21
   4  -8  -9   20.98    4.52
   4  -8  -8  126.83   10.04
   4  -8  -7  111.44    8.97
   4  -8  -6   68.99    6.73
   4  -8  -5   39.16    4.64
   4  -8  -4   95.67    6.88
   4  -8  -3   55.59    4.78
   4  -8  -2  118.59    6.88
   4  -8  -1  259.45    9.61
  -4  -8  -3  170.67   12.92
  -4  -8  -4   66.94    7.96
  -4  -8  -5   46.46    7.05
  -4  -8  -6   39.76    6.25
  -4  -8  -7   76.78    8.95
  -4  -8  -8   21.69    5.12
  -4  -7  22   11.02    4.61
  -4  -7  21    3.60    2.65
  -4  -7  20    5.35    2.33
  -4  -7  19    9.43    4.23
   4  -7 -12   34.10    6.37
   4  -7 -11   31.67    5.97
   4  -7 -10   97.45    9.63
   4  -7  -9   30.32    5.20
   4  -7  -8    8.33    2.76
   4  -7  -7   22.44    3.92
   4  -7  -6   25.56    4.00
   4  -7  -5    9.50    2.22
   4  -7  -4  140.64    8.05
   4  -7  -3  164.90    7.86
   4  -7  -2    3.04    0.96
   4  -7  -1    2.90    0.84
   4  -7   0   24.34    2.25
  -4  -7  -2    1.86    1.11
  -4  -7  -3   64.57    7.51
  -4  -7  -4  124.16   10.37
  -4  -7  -5   14.27    3.51
  -4  -7  -6    2.84    1.72
  -4  -7  -7   35.47    5.67
  -4  -7  -8   66.62    8.10
  -4  -7  -9   30.23    5.65
  -4  -7 -10    4.02    2.06
  -4  -6  24    8.55    5.09
  -4  -6  23    8.00    4.51
  -4  -6  22   29.29    7.94
  -4  -6  21   47.52    9.71
  -4  -6  20   40.14    8.46
  -4  -6  19   44.54    8.84
  -4  -6  18   38.20    8.11
  -4  -6  17    4.67    3.23
  -4  -6  16  247.18   19.35
  -4  -6  15   13.79    4.30
  -4  -6  14   17.94    4.84
  -4  -6  13   50.68    8.09
   4  -6 -12  127.77   12.06
  -4  -6  12  118.94   12.01
   4  -6 -11   83.22    9.26
   4  -6 -10  102.78   10.09
   4  -6  -9  219.73   13.81
   4  -6  -8  579.05   21.62
   4  -6  -7  111.02    8.97
   4  -6  -6   64.32    6.48
   4  -6  -5   24.26    3.72
   4  -6  -4  114.20    7.34
   4  -6  -3   64.87    4.97
   4  -6  -2  288.61    9.18
   4  -6  -1  193.87    6.47
   4  -6   0  471.56    8.45
  -4  -6  -2  676.96   23.38
  -4  -6  -3  204.15   12.57
  -4  -6  -4  351.64   17.35
  -4  -6  -5  148.09   10.89
  -4  -6  -6   24.33    4.42
  -4  -6  -7  121.55   10.31
  -4  -6  -8  189.41   13.06
  -4  -6  -9   75.70    8.45
  -4  -6 -10  169.73   13.19
  -4  -6 -11   47.31    6.90
  -4  -5  24    3.40    3.07
  -4  -5  23   -0.97    1.70
  -4  -5  22    2.94    2.34
  -4  -5  21    5.92    3.45
  -4  -5  20    7.71    3.77
  -4  -5  19   26.91    7.03
  -4  -5  18    8.15    3.26
  -4  -5  17   11.14    4.47
  -4  -5  16   21.46    5.38
  -4  -5  15  111.57   12.54
  -4  -5  14   17.74    5.09
   4  -5 -13   25.07    5.71
  -4  -5  13   39.52    7.20
   4  -5 -12   47.18    7.33
   4  -5 -12   48.63    7.54
  -4  -5  12   30.51    6.31
   4  -5 -11  113.99   10.99
   4  -5 -11  112.95   11.49
  -4  -5  11  151.67   12.95
   4  -5 -10   93.53    9.81
  -4  -5  10   70.62    8.51
   4  -5  -9   56.83    7.49
  -4  -5   9   74.74    8.53
   4  -5  -8  103.48    9.75
   4  -5  -7  128.65   10.05
   4  -5  -6   31.09    4.42
   4  -5  -5  139.70    8.59
   4  -5  -4  576.42   16.14
   4  -5  -3  214.21    8.80
   4  -5  -2    4.02    1.20
   4  -5  -1   17.76    1.76
   4  -5   0    8.37    0.86
  -4  -5  -2    7.36    2.39
  -4  -5  -3   12.05    2.94
  -4  -5  -4  265.55   13.54
  -4  -5  -5   20.10    3.89
  -4  -5  -6   14.32    3.43
  -4  -5  -7  102.44    9.09
  -4  -5  -8   55.15    6.77
  -4  -5  -9  108.74    9.73
  -4  -5 -10   49.11    6.76
  -4  -5 -11   85.91    9.48
  -4  -5 -12   34.89    6.13
   4  -5  14   65.65    7.02
   4  -5  15   74.99    7.42
   4  -5  16   21.87    4.00
   4  -5  17   80.54    8.44
   4  -5  18    6.67    2.58
   4  -5  19   18.91    4.50
   4  -5  20    3.92    2.23
   4  -5  21   10.77    3.86
  -4  -4  24   16.25    5.98
  -4  -4  23    6.19    3.40
  -4  -4  22   12.79    4.74
  -4  -4  21   99.81   13.55
  -4  -4  20   13.91    4.92
  -4  -4  19   62.39   10.21
  -4  -4  18   28.76    6.67
  -4  -4  17  187.80   16.95
  -4  -4  16   75.43   10.28
  -4  -4  15   31.77    6.36
  -4  -4  14   97.84   11.04
  -4  -4  13   69.44    8.96
  -4  -4  12  151.11   12.84
   4  -4 -12  163.25   13.78
  -4  -4  11   23.61    4.91
   4  -4 -11   24.57    5.15
  -4  -4  10  191.68   14.00
   4  -4 -10  148.05   12.29
   4  -4  -9    9.62    3.10
  -4  -4   9    7.02    2.89
  -4  -4   8  784.39   26.64
   4  -4  -8  674.22   23.92
  -4  -4   7  274.12   14.82
   4  -4  -7  230.22   13.52
   4  -4  -6   61.76    6.94
   4  -4  -5  252.03   12.66
   4  -4  -4  662.43   19.44
   4  -4   0 2836.71   17.75
  -4  -4  -2  928.47   24.46
  -4  -4  -3  497.86   18.24
  -4  -4  -4  765.97   21.99
  -4  -4  -5   80.45    7.26
  -4  -4  -6  163.67   10.44
  -4  -4  -7   16.08    3.62
  -4  -4  -8  155.65   10.73
  -4  -4  -9  101.25    9.04
  -4  -4 -10   41.89    6.09
   4  -4  10   43.14    4.10
  -4  -4 -11  105.63    9.92
   4  -4  11   47.68    5.24
  -4  -4 -12   68.29    8.39
   4  -4  12   88.65    7.25
   4  -4  13   33.89    4.43
   4  -4  14   16.34    3.42
   4  -4  15    0.72    0.87
   4  -4  16    4.62    2.18
   4  -4  17  121.06   10.62
   4  -4  18   13.59    4.50
   4  -4  19   18.31    4.40
   4  -4  20    8.71    3.45
   4  -4  21   63.61    8.65
   4  -4  22    4.80    2.49
  -4  -3  24    3.42    2.73
  -4  -3  23   21.13    6.56
  -4  -3  22    6.13    3.48
  -4  -3  21    6.41    3.35
  -4  -3  20    4.95    3.56
  -4  -3  19   44.89    8.56
  -4  -3  18   38.96    7.94
  -4  -3  17    6.91    3.44
  -4  -3  16   25.82    6.06
  -4  -3  15   52.65    8.32
  -4  -3  14   54.31    8.23
   4  -3 -13    7.61    3.37
  -4  -3  13   10.96    3.92
  -4  -3  12  340.21   19.43
   4  -3 -12  372.96   20.94
  -4  -3  11   90.93   10.05
   4  -3 -11  137.00   12.45
  -4  -3  10  227.91   14.98
   4  -3 -10  249.78   15.84
  -4  -3   9  127.62   10.86
   4  -3  -9  197.96   13.62
  -4  -3   8  269.84   14.79
   4  -3  -8  330.56   16.55
  -4  -3   7   72.20    7.42
   4  -3  -7   54.78    6.46
  -4  -3   6   56.71    6.38
   4  -3  -6   61.08    6.49
  -4  -3   5   50.37    5.85
   4  -3  -5   71.70    6.80
   4  -3  -4  368.24   14.42
   4  -3  -3   77.63    6.01
   4  -3  -2   91.59    5.99
   4  -3  -1   91.37    5.47
  -4  -3  -2  109.08    7.70
  -4  -3  -3  116.07    8.20
  -4  -3  -4   30.98    4.27
  -4  -3  -5  103.17    7.70
  -4  -3  -6  108.90    8.10
  -4  -3  -7   33.28    4.52
   4  -3   8   27.86    2.81
  -4  -3  -8   22.56    4.12
  -4  -3  -9   65.25    7.05
   4  -3   9   83.52    5.55
  -4  -3 -10   29.80    4.96
   4  -3  10   14.57    2.49
  -4  -3 -11   60.83    7.43
   4  -3  11   96.59    6.74
   4  -3  12    9.96    2.32
  -4  -3 -12   15.03    3.92
  -4  -3 -13   55.89    7.73
   4  -3  13   68.27    6.33
   4  -3  14   55.95    6.23
   4  -3  15  102.50    8.71
   4  -3  16   15.00    3.39
   4  -3  17   91.85    9.19
   4  -3  18   22.10    4.43
   4  -3  19   42.08    6.56
   4  -3  20   32.72    6.30
   4  -3  21   61.12    8.74
   4  -3  22    1.73    1.54
   4  -3  23    8.56    3.60
  -4  -2  24    8.79    4.07
  -4  -2  23   45.27    9.78
  -4  -2  22   10.43    4.34
  -4  -2  21  126.36   15.35
  -4  -2  20   36.07    8.03
  -4  -2  19   57.18    9.88
  -4  -2  18   38.54    7.81
  -4  -2  17   90.73   11.40
  -4  -2  16  179.67   15.67
  -4  -2  15   51.31    8.57
  -4  -2  14   46.67    7.63
  -4  -2  13   30.48    6.07
   4  -2 -13   36.51    6.65
  -4  -2  12  475.23   22.39
   4  -2 -12  523.25   24.18
  -4  -2  11   18.89    4.40
   4  -2 -11   29.84    5.51
  -4  -2  10  367.25   18.27
   4  -2 -10  363.04   18.96
  -4  -2   9   15.13    4.07
   4  -2  -9   22.84    5.05
  -4  -2   8  248.42   14.19
   4  -2  -8  281.87   15.54
  -4  -2   7   19.06    3.94
   4  -2  -7   24.70    4.33
  -4  -2   6   22.51    4.12
   4  -2  -6   22.78    4.07
  -4  -2   5   81.07    6.90
   4  -2  -5   62.69    6.11
  -4  -2   4  736.25   20.71
   4  -2  -4  778.50   19.94
  -4  -2   3  105.50    7.33
   4  -2  -3   90.17    6.22
   4  -2  -2   66.92    4.95
   4  -2  -1 1100.02   18.44
   4  -2   0 3041.12   26.63
   4  -2   1  563.41    9.72
   4  -2   1  420.71    7.63
   4  -2   2    4.75    0.80
  -4  -2  -2    5.43    1.64
   4  -2   3    8.44    1.15
  -4  -2  -3   13.62    2.57
   4  -2   4 1000.51   15.52
  -4  -2  -4  997.41   21.84
  -4  -2  -5  153.58    8.72
   4  -2   6  220.39    5.32
  -4  -2  -6  286.80   12.27
   4  -2   7    7.44    1.16
  -4  -2  -7   39.08    4.84
  -4  -2  -8  424.75   16.57
   4  -2   8  178.21    6.39
  -4  -2  -9  263.33   13.50
   4  -2   9   76.56    5.67
  -4  -2 -10  177.36   11.69
   4  -2  10  243.18   10.15
  -4  -2 -11   49.65    6.43
   4  -2  11   22.33    3.28
  -4  -2 -12   94.42    9.29
   4  -2  12   86.40    7.03
  -4  -2 -13   40.02    6.33
   4  -2  13   34.92    4.59
  -4  -2 -14   18.52    4.43
   4  -2  14   19.77    3.67
   4  -2  15   16.28    3.88
   4  -2  16   22.33    4.24
   4  -2  17   81.68    8.89
   4  -2  18   11.63    3.68
   4  -2  19   17.26    4.27
   4  -2  20    6.24    2.98
   4  -2  21   42.42    7.02
   4  -2  22    4.45    2.92
   4  -2  23    5.42    2.30
  -4  -1  24    1.67    1.69
  -4  -1  23   11.38    5.05
  -4  -1  22    3.36    2.86
  -4  -1  21    7.14    3.86
  -4  -1  20    5.87    3.25
  -4  -1  19   14.27    4.84
  -4  -1  18    2.16    2.10
  -4  -1  17   23.04    5.78
  -4  -1  16   67.14    9.64
  -4  -1  15   79.86   10.32
  -4  -1  14   21.91    5.10
   4  -1 -14   28.81    6.18
  -4  -1  13   13.31    4.03
   4  -1 -13   19.85    4.93
  -4  -1  12   49.61    7.40
   4  -1 -12   70.45    8.74
  -4  -1  11   68.36    8.12
   4  -1 -11   51.74    7.33
  -4  -1  10   39.58    6.03
   4  -1 -10   42.19    6.18
  -4  -1   9   87.33    8.82
   4  -1  -9  115.59    9.92
  -4  -1   8 1130.97   29.49
   4  -1  -8 1179.41   30.06
  -4  -1   7  614.08   20.55
   4  -1  -7  455.04   18.39
  -4  -1   6  149.31    9.62
   4  -1  -6  214.58   11.76
  -4  -1   5   51.70    5.51
   4  -1  -5   67.60    6.25
  -4  -1   4  253.63   11.45
   4  -1  -4  254.90   11.17
  -4  -1   3   78.32    6.00
   4  -1  -3   86.10    5.90
  -4  -1   2  204.37    9.29
   4  -1  -2  166.73    7.64
  -4  -1   1   53.82    4.35
   4  -1  -1   36.70    3.31
   4  -1   0 1528.24   18.17
   4  -1   1   11.12    1.34
   4  -1   1   13.52    1.73
   4  -1   2  101.54    4.65
  -4  -1  -2   91.47    5.99
  -4  -1  -3   27.67    3.27
   4  -1   3   21.91    2.27
  -4  -1  -4   13.51    2.42
   4  -1   4   12.69    1.92
  -4  -1  -5  115.85    7.13
   4  -1   5   99.48    6.21
   4  -1   5   37.65    2.31
  -4  -1  -6   33.47    4.09
   4  -1   6   35.60    3.90
   4  -1   6   27.11    2.21
  -4  -1  -7   88.30    7.00
   4  -1   7  107.38    5.28
  -4  -1  -8  452.69   16.14
   4  -1   8  275.42    8.58
  -4  -1  -9   57.46    6.24
   4  -1   9   74.47    5.33
  -4  -1 -10  211.21   12.43
   4  -1  10  218.46    9.81
  -4  -1 -11   89.82    8.51
   4  -1  11   85.67    6.66
  -4  -1 -12  141.29   11.12
   4  -1  12  145.66    9.51
  -4  -1 -13   67.96    7.99
   4  -1  13   76.71    7.12
  -4  -1 -14  115.17   10.81
   4  -1  14   82.90    7.95
   4  -1  15   30.88    5.19
   4  -1  16    8.65    2.73
   4  -1  17   21.05    4.46
   4  -1  18    4.35    2.01
   4  -1  19   33.16    6.52
   4  -1  20    1.27    1.52
   4  -1  21   24.29    5.62
   4  -1  22    1.53    1.18
   4  -1  23    3.40    2.36
   4  -1  24    1.11    1.71
  -4   0  24    7.03    3.89
  -4   0  23   28.24    7.56
  -4   0  22    4.68    3.53
  -4   0  21  105.92   14.19
  -4   0  20   99.25   13.20
  -4   0  19  100.34   13.07
  -4   0  18    3.90    2.63
  -4   0  17  252.66   19.22
  -4   0  16    6.34    3.23
  -4   0  15   25.40    5.65
  -4   0  14    2.17    1.97
   4   0 -14    5.73    2.60
  -4   0  13   12.92    3.81
   4   0 -13   15.23    4.25
  -4   0  12  204.83   14.42
   4   0 -12  212.71   15.03
  -4   0  11   76.23    8.44
   4   0 -11   88.44    9.63
  -4   0  10   79.54    8.30
   4   0 -10   84.30    8.85
  -4   0   9   36.67    5.36
   4   0  -9   39.14    5.80
  -4   0   8   54.88    6.53
   4   0  -8   56.45    6.75
  -4   0   7    6.63    2.51
   4   0  -7    7.77    2.66
  -4   0   6  133.59    9.15
   4   0  -6  134.10    9.56
  -4   0   5    3.05    1.27
   4   0  -5    3.60    1.41
   4   0  -4 2100.95   32.31
  -4   0   4 2145.17   32.85
  -4   0   3    6.40    1.64
   4   0  -3    7.95    1.78
   4   0  -2 1458.37   23.37
  -4   0   2 1441.24   22.76
   4   0  -1  119.44    6.27
  -4   0   1  123.23    6.32
   4   0   0 2631.97   26.15
  -4   0   0 2693.34   26.56
   4   0   1  125.25    5.15
   4   0   1  114.68    5.85
  -4   0  -2  728.92   15.48
   4   0   2  666.36   13.95
   4   0   3   10.95    1.82
  -4   0  -3   11.98    1.92
  -4   0  -4 1629.30   23.55
   4   0   4 1635.38   23.39
  -4   0  -5   14.33    2.30
   4   0   5    3.85    0.84
   4   0   5   14.33    2.38
   4   0   6  514.34   15.69
  -4   0  -6  474.08   14.29
   4   0   6  442.05   10.92
   4   0   7   49.04    5.11
  -4   0  -7   45.18    4.75
   4   0   7   45.98    3.91
  -4   0  -8  746.45   20.30
   4   0   8  797.62   17.51
  -4   0  -9   15.92    3.11
   4   0   9   16.23    2.66
  -4   0 -10   94.54    8.00
   4   0  10   90.15    6.71
  -4   0 -11    7.72    2.40
   4   0  11    4.94    1.60
  -4   0 -12   12.54    3.33
   4   0  12   12.81    3.04
  -4   0 -13   28.92    5.34
   4   0  13   25.21    4.25
  -4   0 -14   13.34    3.70
   4   0  14   11.28    2.91
  -4   0 -15   77.77    9.52
   4   0  15   67.79    7.48
   4   0  16    0.14    0.17
   4   0  17    8.26    2.87
   4   0  18    1.77    1.51
   4   0  19    3.95    2.25
   4   0  20    1.00    1.46
   4   0  21   51.06    8.12
   4   0  22    3.72    2.54
   4   0  23   32.42    6.93
   4   0  24    1.97    2.20
  -4   1  24    7.59    4.17
  -4   1  23   22.63    6.74
  -4   1  22    3.21    2.39
  -4   1  21    5.44    3.43
  -4   1  20    5.28    2.82
  -4   1  19   14.74    4.83
  -4   1  18    8.53    4.01
  -4   1  17   14.85    4.93
  -4   1  16   44.17    8.21
  -4   1  15   80.68   10.49
   4   1 -14   23.01    5.40
  -4   1  14   23.87    5.33
  -4   1  13   20.32    4.88
   4   1 -13   16.75    4.46
  -4   1  12   67.31    8.43
   4   1 -12   51.38    7.56
  -4   1  11   49.71    7.08
   4   1 -11   67.22    8.06
  -4   1  10   42.44    6.13
   4   1 -10   42.35    6.27
  -4   1   9  115.82    9.87
   4   1  -9   88.81    9.00
  -4   1   8 1178.93   29.62
   4   1  -8 1093.35   28.75
   4   1  -7  622.44   20.91
  -4   1   7  450.84   17.57
  -4   1   6  199.61   10.93
   4   1  -6  161.36   10.20
   4   1  -5   51.18    5.61
  -4   1   5   70.37    6.20
  -4   1   4  251.73   11.02
   4   1  -4  244.65   11.08
  -4   1   3   92.00    6.20
   4   1  -3   78.26    6.03
   4   1  -2  191.91    8.66
  -4   1   2  172.00    7.85
   4   1  -1   56.86    4.53
  -4   1   1   41.45    3.47
   4   1   0 1555.11   22.57
  -4   1   0 1550.63   18.35
  -4   1  -1   13.15    1.39
   4   1   1   16.90    2.55
   4   1   2   89.32    5.61
  -4   1  -2  110.76    5.29
  -4   1  -3   20.45    2.31
   4   1   3   25.68    3.08
  -4   1  -4   12.32    1.85
   4   1   4   14.92    2.50
  -4   1  -5   82.82    5.22
   4   1   5  116.42    7.16
  -4   1  -6   33.97    3.56
   4   1   6   36.49    4.38
  -4   1  -7   98.85    6.73
   4   1   7  106.19    8.17
   4   1   7   86.20    5.93
  -4   1  -8  468.33   15.36
   4   1   8  515.62   18.13
   4   1   8  540.78   15.89
  -4   1  -9   75.84    6.82
   4   1   9   60.51    6.70
   4   1   9   54.79    5.28
  -4   1 -10  236.08   12.84
   4   1  10  222.31   11.31
  -4   1 -11   91.54    7.06
  -4   1 -11  102.60    8.88
   4   1  11   83.09    7.26
  -4   1 -12  140.99    9.00
  -4   1 -12  153.88   11.24
   4   1  12  147.05   10.15
  -4   1 -13   60.04    6.26
  -4   1 -13   75.16    8.22
   4   1  13   60.21    6.78
  -4   1 -14   96.74    9.85
  -4   1 -14   91.48    7.97
   4   1  14  119.55    9.97
  -4   1 -15   37.05    6.37
  -4   1 -15   32.38    4.95
   4   1  15   53.16    6.98
   4   1  16   12.54    3.42
   4   1  17   45.70    6.80
   4   1  18    3.58    2.20
   4   1  19   62.35    8.59
   4   1  20    3.65    2.25
   4   1  21   34.28    6.80
   4   1  22    1.61    1.39
   4   1  23    6.55    3.22
   4   1  24    0.13    1.27
   4   1  25    3.36    2.57
  -4   2  24    5.98    3.74
  -4   2  23   50.07   10.15
  -4   2  22    7.09    4.00
  -4   2  21  138.59   16.05
  -4   2  20   47.76    9.27
  -4   2  19   76.25   11.49
  -4   2  18   42.81    8.30
  -4   2  17   53.11    9.46
  -4   2  16  145.03   14.26
  -4   2  15   87.69   10.62
  -4   2  14   32.72    6.73
   4   2 -14   48.63    7.76
  -4   2  13   33.82    6.27
   4   2 -13   27.80    5.69
   4   2 -12  508.34   23.46
  -4   2  12  506.46   23.50
  -4   2  11   26.49    4.91
   4   2 -11   16.35    3.97
   4   2 -10  373.48   18.56
  -4   2  10  334.86   17.30
   4   2  -9   15.61    4.04
  -4   2   9   21.41    4.51
   4   2  -8  248.14   14.19
  -4   2   8  269.79   14.69
  -4   2   7   25.23    4.37
   4   2  -7   15.08    3.39
   4   2  -6   21.62    3.98
  -4   2   6   23.27    4.07
   4   2  -5   87.98    7.30
  -4   2   5   65.96    6.21
   4   2  -4  696.20   19.67
  -4   2   4  764.37   19.44
   4   2  -3  105.94    7.19
  -4   2   3   83.43    5.92
   4   2  -2   71.60    5.62
  -4   2   2   70.37    5.01
   4   2  -1 1192.36   22.59
  -4   2   1 1171.94   19.13
   4   2   0 2938.15   37.85
  -4   2   0 3084.51   25.85
  -4   2  -1  764.85   10.73
   4   2   1  598.78   16.86
   4   2   2    8.16    1.90
   4   2   3   14.29    2.59
  -4   2  -3   10.91    1.51
  -4   2  -4  952.63   14.46
   4   2   4  976.30   20.98
  -4   2  -5  112.87    5.59
   4   2   5  158.59    8.86
   4   2   6  301.95   12.74
  -4   2  -6  309.58   10.28
  -4   2  -7   33.90    3.71
   4   2   7   42.62    5.20
  -4   2  -7   25.67    2.21
   4   2   8  461.84   15.47
   4   2   8  493.37   19.35
  -4   2  -8  421.43   14.54
   4   2   9  289.52   14.76
  -4   2  -9  200.83   10.69
  -4   2  -9  191.79    8.10
   4   2   9  284.10   12.85
   4   2  10  188.00   12.61
  -4   2 -10  216.18   11.88
  -4   2 -10  206.02    9.51
   4   2  10  190.44   11.03
  -4   2 -11   29.69    4.56
   4   2  11   49.43    5.92
  -4   2 -11   29.30    3.79
  -4   2 -12   87.81    8.33
   4   2  12   99.26    8.74
  -4   2 -12   85.36    6.88
  -4   2 -13   40.56    5.92
   4   2  13   35.32    5.38
  -4   2 -13   26.56    4.00
  -4   2 -14   19.50    4.31
  -4   2 -14   15.84    3.30
   4   2  14   15.71    3.84
  -4   2 -15   22.86    4.41
  -4   2 -15   28.28    5.38
   4   2  15   41.56    6.36
  -4   2 -16   21.58    4.36
  -4   2 -16   25.16    5.45
   4   2  16   14.05    4.06
  -4   2 -17   77.36    8.45
   4   2  17   65.42    8.47
  -4   2 -18   14.67    3.98
   4   2  18   32.94    6.13
  -4   2 -19   18.21    4.50
   4   2  19   25.57    5.75
   4   2  20   25.68    5.86
   4   2  21   22.75    6.20
   4   2  22    4.99    2.83
   4   2  23    3.66    2.14
   4   2  24    0.37    1.38
   4   2  25   28.44    7.77
  -4   3  24    3.61    2.99
  -4   3  23    8.66    4.63
  -4   3  22    3.73    3.11
  -4   3  21    5.26    3.28
  -4   3  20   13.10    4.63
  -4   3  19   26.40    6.90
  -4   3  18   66.13   10.19
  -4   3  17    6.45    2.99
  -4   3  16   15.28    4.89
  -4   3  15   52.79    8.40
  -4   3  14   62.58    8.74
  -4   3  13   10.02    3.94
   4   3 -13    8.57    3.39
   4   3 -12  327.92   18.77
  -4   3  12  376.94   21.01
   4   3 -11   88.25    9.38
  -4   3  11  131.18   11.64
   4   3 -10  236.93   15.03
  -4   3  10  232.96   14.78
   4   3  -9  139.31   11.41
  -4   3   9  193.07   12.94
   4   3  -8  281.24   15.13
  -4   3   8  319.84   16.01
   4   3  -7   71.05    7.44
  -4   3   7   56.79    6.47
   4   3  -6   56.51    6.19
  -4   3   6   63.42    6.54
   4   3  -5   48.40    5.62
  -4   3   5   70.58    6.70
   4   3  -4  356.27   14.85
  -4   3   4  382.46   14.50
   4   3  -3   57.71    5.69
  -4   3   3   84.66    6.23
   4   3  -2  103.12    7.35
  -4   3   2   95.61    6.15
  -4   3   1  102.32    5.86
   4   3   0   14.01    2.82
  -4   3   0   18.28    2.22
   4   3   1  249.33   11.78
  -4   3  -1  281.18    7.77
   4   3   2   99.37    7.06
  -4   3  -2   57.22    2.88
   4   3   3   98.44    7.01
  -4   3  -3   42.61    2.02
   4   3   4   30.74    4.16
  -4   3  -4   29.72    2.20
   4   3   5   96.87    7.18
  -4   3  -5   87.73    4.54
  -4   3  -6   72.96    4.70
   4   3   6  106.66    8.02
  -4   3  -6   53.07    2.75
   4   3   7   34.49    4.87
  -4   3  -7   39.24    3.84
  -4   3  -7   12.73    1.50
  -4   3  -8   22.69    3.23
   4   3   8   24.25    4.32
  -4   3  -8   10.45    1.76
   4   3   9   77.01    8.14
  -4   3  -9   83.91    6.94
   4   3   9   74.89    7.07
  -4   3  -9   75.43    5.06
  -4   3 -10   27.30    4.26
   4   3  10   33.58    5.39
  -4   3 -10   23.00    3.09
   4   3  10   35.01    4.94
   4   3  11   68.60    8.28
  -4   3 -11   92.40    8.48
   4   3  11   67.19    7.54
  -4   3 -11   70.85    6.10
  -4   3 -12   12.60    3.23
   4   3  12   14.96    3.60
  -4   3 -12    7.47    1.97
  -4   3 -13   73.43    8.42
  -4   3 -13   71.72    6.83
   4   3  13   56.29    7.39
  -4   3 -14   86.16    9.37
  -4   3 -14   77.84    7.40
   4   3  14  116.08   10.57
  -4   3 -15  118.93   11.83
  -4   3 -15   97.99    8.63
   4   3  15   74.73    9.07
  -4   3 -16   16.17    4.57
  -4   3 -16   13.98    3.46
   4   3  16    5.94    2.70
   4   3  17   60.37    8.55
  -4   3 -17   84.42    8.81
  -4   3 -18   19.55    4.22
   4   3  18   13.44    4.07
  -4   3 -19   34.35    6.16
   4   3  19   17.24    5.10
   4   3  20   31.07    6.75
   4   3  21   22.85    6.27
   4   3  22    3.16    2.22
   4   3  23    4.70    2.71
   4   3  24    8.58    4.20
   4   3  25   -1.16    1.56
   4   3  26   -0.13    0.41
  -4   4  23   13.91    5.52
  -4   4  22    8.90    4.75
  -4   4  21   93.67   13.86
  -4   4  20   17.89    6.00
  -4   4  19   74.97   11.63
  -4   4  18   32.84    7.38
  -4   4  17  172.13   16.28
  -4   4  16   54.76    9.16
  -4   4  15   31.37    6.80
  -4   4  14   79.69   10.23
  -4   4  13   57.00    8.38
   4   4 -13   67.44    9.13
   4   4 -12  165.12   13.52
  -4   4  12  156.44   13.13
   4   4 -11   26.57    5.30
  -4   4  11   27.57    5.39
   4   4 -10  189.34   13.56
  -4   4  10  150.35   12.19
   4   4  -9    7.52    2.84
  -4   4   9    8.81    3.00
   4   4  -8  783.72   26.28
  -4   4   8  692.27   24.65
   4   4  -7  264.35   14.41
  -4   4   7  233.52   13.44
   4   4  -6   45.40    5.91
  -4   4   6   58.85    6.58
   4   4  -5  328.44   15.47
  -4   4   5  263.66   13.07
   4   4  -4  566.01   19.52
  -4   4   4  709.23   20.55
   4   4  -3  350.61   15.12
  -4   4   3  276.46   12.26
  -4   4   2 1147.17   22.91
   4   4  -1  152.10   10.04
  -4   4   1  157.14    7.93
   4   4   0 3353.51   45.90
  -4   4   0 3603.43   34.43
   4   4   1 1119.12   25.23
  -4   4  -1  918.22   15.45
   4   4   2  844.54   21.78
   4   4   3  421.40   15.46
  -4   4  -4  576.68    7.99
   4   4   4  716.69   20.28
  -4   4  -5   38.25    2.66
   4   4   5   78.14    6.98
  -4   4  -5   47.75    2.80
  -4   4  -6  143.66    6.31
   4   4   6  161.99   10.37
  -4   4  -6   99.77    3.67
   4   4   7   15.15    3.31
  -4   4  -7   18.90    2.83
  -4   4  -7   11.09    1.49
   4   4   8  171.85   11.74
  -4   4  -8  189.09    9.31
  -4   4  -8  208.79    7.81
  -4   4  -9   76.36    6.27
   4   4   9  113.86   10.09
   4   4   9  108.86    8.72
  -4   4  -9   79.01    5.26
   4   4  10   45.93    6.05
  -4   4 -10   46.37    5.27
   4   4  10   45.04    6.66
  -4   4 -10   47.54    4.50
  -4   4 -11   84.58    7.56
   4   4  11  116.50   10.97
   4   4  11  120.93   10.05
  -4   4 -11   59.50    5.31
  -4   4 -12   80.40    7.88
   4   4  12   70.94    8.18
  -4   4 -12   86.36    6.95
  -4   4 -13   33.91    5.38
  -4   4 -13   30.06    4.36
   4   4  13   23.57    5.03
  -4   4 -14   24.60    4.83
  -4   4 -14   26.29    4.56
   4   4  14   50.09    7.37
  -4   4 -15    2.27    1.79
   4   4  15    3.47    2.16
  -4   4 -15    1.80    1.42
  -4   4 -16    5.24    2.62
  -4   4 -16    3.14    1.58
   4   4  16    4.75    2.42
  -4   4 -17  118.05   10.49
   4   4  17  121.73   12.39
  -4   4 -18   21.82    4.72
   4   4  18   46.67    7.94
  -4   4 -19   15.92    4.12
   4   4  19   10.84    4.09
   4   4  20   21.13    5.55
   4   4  21   75.86   11.23
   4   4  22   12.48    4.54
   4   4  23    9.83    3.94
   4   4  24    8.73    3.71
   4   4  25   16.41    5.86
  -4   5  23    1.54    2.24
  -4   5  22    2.70    2.67
  -4   5  21    6.36    3.84
  -4   5  20    6.73    3.30
  -4   5  19   38.32    8.28
  -4   5  18    2.74    2.00
  -4   5  17   14.72    5.02
  -4   5  16   12.36    4.24
  -4   5  15   82.08   10.80
  -4   5  14   18.57    4.91
  -4   5  13   29.08    6.49
   4   5 -12   40.01    6.96
  -4   5  12   48.48    7.57
   4   5 -11  154.78   12.94
  -4   5  11  128.10   12.33
   4   5 -10   66.79    8.18
  -4   5  10   92.02    9.77
   4   5  -9   82.55    9.12
  -4   5   9   58.50    7.67
   4   5  -8   79.29    8.54
  -4   5   8  106.73   10.02
   4   5  -7  177.86   12.55
  -4   5   7  137.46   10.85
   4   5  -6   24.26    4.50
  -4   5   6   34.63    5.38
   4   5  -5  152.00   10.78
  -4   5   5  151.43   10.39
   4   5  -4  544.69   20.54
  -4   5   4  646.33   20.82
   4   5  -3  197.98   11.77
  -4   5   3  230.20   11.74
  -4   5   2    4.26    1.35
   4   5  -1   35.36    5.06
  -4   5   1   25.35    3.39
  -4   5   0   15.45    2.43
   4   5   0   10.87    2.68
   4   5   1   46.33    5.42
   4   5   2    4.52    1.78
   4   5   3    9.96    2.63
   4   5   4  255.48   12.81
   4   5   5   18.66    3.61
  -4   5  -5   15.49    1.72
  -4   5  -5   18.68    2.16
   4   5   6   12.42    2.99
  -4   5  -6   16.31    2.04
  -4   5  -6   17.29    2.19
  -4   5  -7  145.48    7.10
   4   5   7  111.44    9.37
  -4   5  -7  152.39    6.95
  -4   5  -8   38.26    3.99
   4   5   8   56.07    7.06
  -4   5  -8   45.76    3.97
  -4   5  -9  154.97    8.85
   4   5   9  121.13   10.57
  -4   5  -9  176.34    8.50
  -4   5 -10   44.21    5.02
   4   5  10   56.47    7.77
   4   5  10   52.26    6.63
  -4   5 -10   48.88    4.59
  -4   5 -11  119.04    8.90
   4   5  11   93.12   10.06
   4   5  11   85.35    9.18
  -4   5 -11  126.71    7.88
   4   5  12   39.79    6.79
  -4   5 -12   38.00    5.31
  -4   5 -12   32.85    4.21
   4   5  12   38.33    6.35
  -4   5 -13  204.02   13.28
   4   5  13  153.15   13.33
  -4   5 -13  212.38   11.89
  -4   5 -14   79.21    8.38
  -4   5 -14   78.95    7.41
   4   5  14  141.70   13.02
  -4   5 -15   79.38    8.90
   4   5  15   72.76    9.45
  -4   5 -15   67.44    7.10
  -4   5 -16   20.46    4.77
   4   5  16   12.13    4.05
  -4   5 -16   18.91    3.99
  -4   5 -17   75.28    8.20
   4   5  17   76.50   10.25
  -4   5 -18    4.33    2.03
   4   5  18    6.23    3.08
   4   5  19   35.26    7.40
   4   5  20    5.56    2.73
   4   5  21   26.38    6.62
   4   5  22    3.33    2.44
   4   5  23    7.03    3.27
   4   5  24    4.44    2.69
   4   5  25    2.16    1.57
  -4   6  22   24.09    7.95
  -4   6  21   74.04   12.38
  -4   6  20   28.38    7.80
  -4   6  19   53.10   10.34
  -4   6  18   38.77    8.21
  -4   6  17    5.51    3.02
  -4   6  16  203.03   17.62
  -4   6  15   14.00    4.58
  -4   6  14   14.03    4.47
  -4   6  13   57.74    9.06
   4   6 -12  117.54   11.79
  -4   6  12  133.44   12.89
   4   6 -11   68.80    8.90
  -4   6  11   82.18    9.80
   4   6 -10  158.60   13.24
  -4   6  10  112.65   11.34
   4   6  -9  187.98   13.86
  -4   6   9  223.18   15.20
   4   6  -8  574.90   23.94
  -4   6   8  629.50   25.64
   4   6  -7  143.19   11.80
  -4   6   7  118.80   10.47
   4   6  -6   60.38    7.22
  -4   6   6   73.37    7.89
   4   6  -5   29.41    5.17
  -4   6   5   24.43    4.46
   4   6  -4  104.21    9.12
  -4   6   4  133.80    9.97
  -4   6   3   72.79    6.93
  -4   6   2  345.98   14.54
   4   6  -2  278.98   14.90
  -4   6   1  225.72   10.99
   4   6  -1  283.15   14.72
   4   6   0  526.07   20.29
   4   6   1  195.95   11.85
   4   6   2  612.92   20.90
   4   6   3  193.15   11.76
   4   6   4  298.02   14.53
   4   6   5  139.54   10.28
   4   6   6   21.66    4.10
  -4   6  -6   28.79    3.32
   4   6   7  122.08   10.17
  -4   6  -7  108.14    6.53
   4   6   8  208.83   14.23
  -4   6  -8  212.45    9.70
   4   6   9   76.53    8.76
  -4   6  -9   50.69    4.61
   4   6  10  188.17   14.52
  -4   6 -10  221.91   10.41
   4   6  11   59.04    8.33
   4   6  11   60.10    7.78
  -4   6 -11   37.89    4.49
   4   6  12   76.85    9.28
   4   6  12   73.31    9.42
  -4   6 -12  100.07    7.66
  -4   6 -13   44.24    6.00
   4   6  13   47.57    8.03
  -4   6 -13   45.34    5.39
   4   6  13   49.42    7.62
  -4   6 -14   56.28    7.05
   4   6  14   45.97    7.59
  -4   6 -14   58.72    6.62
  -4   6 -15    6.82    2.58
  -4   6 -15    8.43    2.40
   4   6  15   16.05    4.61
  -4   6 -16   10.87    3.36
  -4   6 -16   13.22    3.34
   4   6  16   13.43    4.36
  -4   6 -17   69.59    9.14
   4   6  17   43.42    8.15
  -4   6 -17   68.86    7.80
  -4   6 -18   10.20    3.50
   4   6  18   17.39    4.98
   4   6  19    8.32    3.68
   4   6  20   22.56    6.13
   4   6  21   21.46    6.51
   4   6  22   14.27    5.25
   4   6  23    2.15    2.55
   4   6  24   21.75    6.55
   4   6  25   10.06    5.22
  -4   7  22   18.77    6.34
  -4   7  21    6.75    4.07
  -4   7  20    8.47    4.45
  -4   7  19   10.22    4.63
  -4   7  18   15.72    4.98
  -4   7  17   14.05    4.94
  -4   7  16   50.26    9.28
  -4   7  15    4.89    3.26
  -4   7  14    1.65    1.53
  -4   7  13   48.63    8.20
  -4   7  12   34.99    6.87
   4   7 -11   44.44    7.43
  -4   7  11   30.67    6.12
   4   7 -10   83.49    9.74
  -4   7  10  101.82   10.94
   4   7  -9   31.61    6.01
  -4   7   9   36.08    6.38
   4   7  -8   17.74    4.61
  -4   7   8   13.53    3.83
   4   7  -7   30.11    5.38
  -4   7   7   24.74    4.91
   4   7  -6   26.85    5.07
  -4   7   6   31.60    5.50
  -4   7   5   11.27    3.01
   4   7  -5    9.12    2.75
  -4   7   4  164.21   11.38
  -4   7   3  195.97   12.05
  -4   7   2    4.98    1.88
   4   7  -2    1.83    1.05
   4   7  -1    4.54    2.04
   4   7   0   23.02    4.14
   4   7   1   90.22    8.30
   4   7   2    1.26    0.84
   4   7   3   57.48    6.64
   4   7   4  116.98    9.57
  -4   7  -5    7.29    1.13
   4   7   5   14.03    3.47
  -4   7  -6    1.17    0.99
   4   7   6    1.87    1.30
   4   7   7   36.51    5.85
  -4   7  -7   24.68    3.41
   4   7   8   71.32    8.69
  -4   7  -8   43.67    4.75
   4   7   9   34.20    5.91
  -4   7  -9   43.85    4.77
   4   7  10    3.53    2.10
  -4   7 -10    2.02    0.88
   4   7  11   11.57    3.49
   4   7  11   12.99    4.10
  -4   7 -11    8.56    2.11
   4   7  12   34.74    6.58
   4   7  12   40.72    6.97
  -4   7 -12   44.83    5.37
   4   7  13   16.68    4.56
   4   7  13   15.41    4.73
  -4   7 -13   20.59    3.90
   4   7  14    5.32    2.80
  -4   7 -14    5.76    2.03
  -4   7 -15   86.42    9.18
   4   7  15   63.96    9.81
  -4   7 -15   96.85    8.76
  -4   7 -16   14.77    3.99
  -4   7 -16   11.60    3.34
   4   7  16   22.35    5.69
  -4   7 -17   63.78    8.81
   4   7  17   45.39    8.51
  -4   7 -17   61.94    7.86
   4   7  18    4.77    2.82
   4   7  19   26.87    6.75
   4   7  20   20.17    5.83
   4   7  21   30.87    7.62
   4   7  22    4.67    2.98
   4   7  23    8.90    4.37
   4   7  24    1.90    2.02
  -4   8  21   34.97    8.92
  -4   8  20   34.63    8.56
  -4   8  19   39.74    8.80
  -4   8  18   24.05    6.98
  -4   8  17    6.87    4.09
  -4   8  16    7.44    3.63
  -4   8  15   26.02    6.55
  -4   8  14   26.45    6.39
  -4   8  13   28.61    6.61
  -4   8  12   19.05    5.21
  -4   8  11    1.24    1.43
  -4   8  10    7.29    2.71
   4   8  -9   31.47    6.11
  -4   8   9   24.74    5.52
   4   8  -8  127.69   11.94
  -4   8   8  151.86   13.24
   4   8  -7  122.11   11.53
  -4   8   7  130.68   12.05
   4   8  -6   73.71    8.97
  -4   8   6   82.60    9.14
   4   8  -5   51.94    7.09
  -4   8   5   44.10    6.43
  -4   8   4  117.37   10.22
  -4   8   3   64.99    7.21
   4   8  -3   85.51    9.24
   4   8  -2  110.19    9.99
   4   8  -1  338.35   17.98
   4   8   0  314.59   16.52
   4   8   1  196.23   13.07
  -4   8  -2  231.96    5.77
   4   8   2  223.77   13.66
  -4   8  -3  120.84    3.94
   4   8   3  143.79   10.99
  -4   8  -4   53.48    2.64
   4   8   4   64.11    7.51
   4   8   5   40.13    6.06
  -4   8  -5   31.86    2.38
   4   8   6   40.91    6.25
  -4   8  -6   33.13    2.90
   4   8   7   77.54    8.74
  -4   8  -7   95.81    7.42
   4   8   8   22.39    4.94
  -4   8  -8   26.12    3.75
   4   8   9   15.75    4.15
  -4   8  -9   11.94    2.58
   4   8  10    6.67    2.98
  -4   8 -10    9.75    2.39
   4   8  11    4.53    2.51
  -4   8 -11    3.25    1.26
   4   8  12   15.70    4.42
   4   8  12   18.50    5.22
  -4   8 -12   16.23    3.16
   4   8  13   11.53    3.88
   4   8  13   14.28    4.37
  -4   8 -13   19.04    3.65
   4   8  14   10.17    3.61
  -4   8 -14    6.87    2.24
   4   8  15   26.75    6.44
  -4   8 -15   28.03    4.89
   4   8  16    7.07    3.46
  -4   8 -16    9.50    3.16
  -4   8 -16    8.32    2.76
   4   8  17   10.83    4.36
   4   8  18   16.36    5.29
   4   8  19    9.19    4.17
   4   8  20   13.63    5.03
   4   8  21   11.42    4.92
   4   8  22   17.61    6.21
   4   8  23    5.68    3.51
  -4   9  20    6.99    4.28
  -4   9  19    7.37    4.37
  -4   9  18    5.05    2.95
  -4   9  17    5.54    3.71
  -4   9  16    1.92    1.32
  -4   9  15    9.82    4.18
  -4   9  14    7.88    3.96
  -4   9  13   16.89    5.50
  -4   9  12   61.76    9.86
  -4   9  11   90.07   11.46
  -4   9  10   32.61    6.60
  -4   9   9   13.91    4.35
  -4   9   8   18.34    4.99
   4   9  -7   97.09   10.86
  -4   9   7  101.53   10.94
  -4   9   6    9.38    3.55
   4   9  -6    7.72    3.13
  -4   9   5   38.04    6.19
   4   9  -5   27.67    5.50
  -4   9   4   12.98    3.48
   4   9  -4   13.87    4.02
  -4   9   3  105.40    9.66
   4   9  -3   82.42    9.05
   4   9  -2   15.21    4.17
   4   9  -1   88.37    9.07
   4   9   0  122.85   10.67
  -4   9  -1   24.71    2.51
   4   9   1   23.37    4.56
  -4   9  -2   41.42    2.95
   4   9   2   49.21    6.72
  -4   9  -3   15.23    1.67
   4   9   3   11.61    3.08
   4   9   4   43.71    6.43
  -4   9  -4   28.65    2.18
   4   9   5    8.28    2.90
  -4   9  -5    5.68    0.90
   4   9   6   21.49    4.59
  -4   9  -6   22.16    2.46
   4   9   7   71.89    8.77
  -4   9  -7   94.52    7.84
  -4   9  -7   95.05    5.89
   4   9   8  111.82   11.35
  -4   9  -8  111.50    8.59
   4   9   9    6.18    2.84
  -4   9  -9    9.17    2.44
   4   9  10   11.02    3.88
  -4   9 -10   20.72    3.70
   4   9  11   62.72    9.71
  -4   9 -11   85.10    7.76
   4   9  12   42.81    7.85
   4   9  12   38.91    7.28
  -4   9 -12   28.06    4.51
   4   9  13   34.96    7.08
   4   9  13   37.57    7.58
  -4   9 -13   51.92    6.42
   4   9  14   16.62    4.95
   4   9  14   25.27    6.61
  -4   9 -14   32.44    5.12
   4   9  15   10.71    4.54
  -4   9 -15   15.88    3.58
   4   9  16    3.36    2.48
   4   9  17    7.59    3.77
   4   9  18   23.47    6.57
   4   9  19    8.15    4.27
   4   9  20    0.76    1.58
   4   9  21   21.82    6.88
   4   9  22    2.50    2.54
  -4  10  19   12.11    5.30
  -4  10  18   18.16    6.72
  -4  10  17    3.18    2.74
  -4  10  16   12.08    5.12
  -4  10  15    5.31    2.69
  -4  10  14   30.35    7.35
  -4  10  13    0.53    1.90
  -4  10  12   54.12    9.35
  -4  10  11    3.32    2.35
  -4  10  10   21.47    5.80
  -4  10   9  113.10   12.59
  -4  10   8   21.51    5.44
  -4  10   7    7.76    3.42
  -4  10   6   76.28    9.40
  -4  10   5   11.94    3.46
   4  10  -5   20.53    5.11
  -4  10   4   49.59    7.19
   4  10  -4   37.57    6.39
   4  10  -3   80.90    9.31
   4  10  -2   25.33    5.39
   4  10  -1  182.73   13.82
   4  10   0   49.69    7.02
  -4  10  -1   19.31    2.48
   4  10   1   14.83    4.00
  -4  10  -2  168.63    7.26
   4  10   2  143.42   11.91
  -4  10  -3   83.20    4.65
   4  10   3   99.98    9.95
  -4  10  -4    4.87    1.06
   4  10   4    4.68    2.19
  -4  10  -5   45.76    3.35
   4  10   5   50.89    7.27
   4  10   6   15.59    4.25
  -4  10  -6   11.99    1.79
   4  10   7  164.33   13.82
  -4  10  -7  136.46   10.20
  -4  10  -7  151.79    7.61
   4  10   8    5.04    2.53
  -4  10  -8    7.97    2.60
  -4  10  -8    6.34    1.63
   4  10   9    7.96    3.39
  -4  10  -9    3.84    1.67
   4  10  10   52.68    8.52
  -4  10 -10   51.43    6.37
   4  10  11    9.94    3.88
  -4  10 -11    6.48    2.19
   4  10  12    2.58    2.19
   4  10  12    1.73    1.03
  -4  10 -12    3.37    1.43
   4  10  13    5.14    3.08
   4  10  13    5.07    3.11
  -4  10 -13    3.44    1.69
   4  10  14    4.32    2.41
   4  10  14    7.86    3.64
  -4  10 -14    3.54    1.95
   4  10  15   14.78    5.20
   4  10  16    9.97    4.40
   4  10  17    9.06    4.26
   4  10  18   13.48    5.58
   4  10  19    1.21    2.00
   4  10  20    9.81    4.67
  -4  11  18   10.55    4.32
  -4  11  17    2.22    2.15
  -4  11  16    4.90    3.43
  -4  11  15   10.35    4.52
  -4  11  14    9.45    4.04
  -4  11  13    2.02    1.36
  -4  11  12    6.22    3.41
  -4  11  11    5.41    3.18
  -4  11  10    4.79    2.58
  -4  11   9    2.95    1.98
  -4  11   8    1.08    1.39
  -4  11   7   44.95    7.78
  -4  11   6   62.82    8.98
   4  11  -6   62.34    9.07
  -4  11   5   10.45    3.61
   4  11  -5   10.64    3.44
  -4  11   4   16.12    4.31
   4  11  -4   14.04    3.86
   4  11  -3   47.15    7.64
   4  11  -2   17.93    4.41
   4  11  -1    3.24    2.03
   4  11   0    1.74    1.02
  -4  11  -1   11.86    2.20
   4  11   1    7.69    2.83
  -4  11  -2    4.75    1.31
   4  11   2    4.36    2.08
  -4  11  -3    3.87    1.14
   4  11   3    2.36    1.37
  -4  11  -4    9.11    1.38
   4  11   4   12.99    3.97
  -4  11  -5   22.43    2.57
   4  11   5   17.37    4.43
   4  11   6    3.73    2.12
  -4  11  -6    3.30    1.11
   4  11   7   40.17    7.17
  -4  11  -7   23.75    2.67
   4  11   8    4.50    2.33
  -4  11  -8    2.74    1.53
  -4  11  -8    2.50    0.92
   4  11   9   -0.68    0.90
  -4  11  -9    1.95    0.98
  -4  11  -9    0.41    0.73
   4  11  10    2.61    1.75
  -4  11 -10    5.34    2.07
   4  11  11   15.81    5.18
  -4  11 -11   21.95    4.41
   4  11  12   19.44    5.39
   4  11  12   17.92    5.46
  -4  11 -12   11.91    3.56
   4  11  13    5.90    3.37
   4  11  13    4.07    2.03
   4  11  14   10.54    4.34
   4  11  14   12.55    4.91
   4  11  15    4.20    3.29
   4  11  16    9.73    4.50
   4  11  17    6.46    4.10
   4  11  18   17.86    6.36
   4  11  19    9.24    4.85
  -4  12  17    7.14    3.96
  -4  12  16    5.53    3.62
  -4  12  15    3.44    3.09
  -4  12  14   25.34    7.14
  -4  12  13    1.22    1.32
  -4  12  12   11.96    4.35
  -4  12  11   11.43    4.93
  -4  12  10   23.09    6.61
  -4  12   9   10.63    4.05
  -4  12   8   19.17    5.31
   4  12  -8   16.67    4.86
  -4  12   7    8.29    3.91
   4  12  -7    6.64    3.15
  -4  12   6    5.85    2.86
   4  12  -6    6.26    3.03
  -4  12   5   53.49    8.23
   4  12  -5   55.53    8.45
  -4  12   4   16.02    4.37
   4  12  -4   18.79    5.21
   4  12  -3  108.44   11.63
   4  12  -2   20.63    4.87
   4  12  -1  119.60   12.03
  -4  12   0   26.79    3.78
   4  12   0   18.95    4.65
  -4  12  -1   81.18    6.18
   4  12   1   70.82    9.12
  -4  12  -2   81.89    6.13
   4  12   2   53.48    7.79
  -4  12  -3   97.56    6.06
   4  12   3   82.91    9.92
  -4  12  -4   13.29    1.93
   4  12   4   16.67    4.57
  -4  12  -5    3.33    0.99
   4  12   5    2.80    1.81
   4  12   6    2.69    1.97
  -4  12  -6    1.24    0.75
   4  12   7   17.81    4.75
  -4  12  -7   18.83    2.59
   4  12   8    2.52    1.82
  -4  12  -8    2.51    1.61
  -4  12  -8    2.18    0.70
   4  12   9    7.29    3.22
  -4  12  -9    9.09    2.78
  -4  12  -9    7.46    1.95
   4  12  10    5.50    2.94
  -4  12 -10    0.71    0.50
  -4  12 -10    2.41    1.00
   4  12  11    7.39    3.52
  -4  12 -11    8.16    2.66
  -4  12 -11    5.41    1.90
   4  12  12   17.04    5.14
   4  12  13    9.09    4.29
   4  12  13    6.59    3.33
   4  12  14    0.97    1.73
   4  12  14    0.89    0.30
   4  12  15    0.47    0.81
   4  12  16    5.10    3.20
   4  12  17    6.73    4.52
   4  12  18    6.53    4.28
  -4  13  16    2.78    2.79
  -4  13  15    6.96    3.60
  -4  13  14    9.63    4.23
  -4  13  13    7.26    3.10
  -4  13  12    5.95    3.27
  -4  13  11   15.79    5.56
  -4  13  10   15.57    5.04
   4  13  -9   11.57    4.24
  -4  13   9   13.38    4.75
   4  13  -8    7.95    3.74
  -4  13   8    9.32    4.56
   4  13  -7   99.25   12.40
  -4  13   7  111.71   13.24
  -4  13   6   21.27    5.53
   4  13  -6   19.99    5.10
  -4  13   5    7.73    3.39
   4  13  -5    5.09    2.15
  -4  13   4   14.44    4.37
   4  13  -4   13.56    4.14
   4  13  -3    1.95    1.65
   4  13  -2   12.85    4.25
   4  13  -1    7.90    3.01
   4  13   0   30.21    6.20
  -4  13  -1   10.78    2.21
   4  13   1    8.54    3.13
  -4  13  -2   18.36    2.73
   4  13   2   20.66    5.09
  -4  13  -3    5.32    1.31
   4  13   3    3.18    0.78
  -4  13  -4   10.63    2.02
   4  13   4    8.31    3.03
   4  13   5    0.78    1.11
  -4  13  -5    0.50    0.55
   4  13   6   28.35    6.21
  -4  13  -6   19.90    2.40
   4  13   7   11.15    4.05
  -4  13  -7   10.54    2.06
   4  13   8   36.24    7.68
  -4  13  -8   21.80    4.64
  -4  13  -8   20.51    2.95
   4  13   9    9.97    4.31
  -4  13  -9    7.16    2.72
  -4  13  -9    6.90    1.57
   4  13  10   28.26    6.86
   4  13  11    5.98    2.71
   4  13  12    7.31    3.93
   4  13  13   15.01    5.27
   4  13  13   18.89    5.85
   4  13  14   26.05    7.29
   4  13  14   22.00    6.70
   4  13  15    1.99    1.59
   4  13  16   -0.02    1.77
  -4  14  14    3.50    2.76
  -4  14  13    6.83    4.06
  -4  14  12   17.50    6.20
   4  14 -11   11.42    4.45
  -4  14  11   13.04    4.58
   4  14 -10   20.73    5.98
  -4  14  10   15.93    5.32
   4  14  -9    2.57    1.99
  -4  14   9    3.01    2.27
   4  14  -8    4.40    2.92
  -4  14   8    8.82    3.58
   4  14  -7   19.21    5.60
  -4  14   7   15.07    4.94
   4  14  -6    3.65    2.50
  -4  14   6    4.21    2.81
   4  14  -5   18.50    5.03
  -4  14   5   14.30    4.29
   4  14  -4   37.50    7.18
  -4  14   4   48.06    8.46
   4  14  -3    4.21    2.41
   4  14  -2   20.97    4.98
   4  14  -1   15.54    4.24
   4  14   0    4.16    2.34
   4  14   1    8.33    3.41
  -4  14  -1    4.47    1.27
   4  14   2    4.61    2.47
  -4  14  -2    5.88    1.85
   4  14   3   64.03    9.50
  -4  14  -3   71.82    6.07
   4  14   4    3.88    2.39
  -4  14  -4    4.14    1.10
  -4  14  -5    4.13    0.92
   4  14   5    5.11    2.92
   4  14   6    2.96    2.21
   4  14   7   14.60    4.75
   4  14   8    4.47    2.59
   4  14   9    1.95    2.10
   4  14  10    2.28    1.97
   4  14  11   12.31    4.52
   4  14  12    3.80    2.87
   4  14  13    0.45    2.79
   4  14  13   -1.62    1.04
   4  14  14    5.12    3.59
   4  14  14    4.89    3.14
   4  15 -14    7.74    4.13
   4  15 -13    5.38    3.24
   4  15 -12    0.87    0.90
  -4  15  12    4.15    2.77
  -4  15  11   -0.12    1.28
   4  15 -11    4.57    1.99
  -4  15  10    1.81    2.06
   4  15 -10    3.19    2.64
  -4  15   9    2.35    2.05
   4  15  -9    2.11    1.78
  -4  15   8    9.27    4.66
   4  15  -8    6.06    3.04
  -4  15   7    7.03    2.45
   4  15  -7   14.48    4.86
  -4  15   6    4.09    2.37
   4  15  -6    3.86    2.44
  -4  15   5    4.35    2.95
   4  15  -5    1.64    1.36
  -4  15   4    1.83    0.63
   4  15  -4    2.26    2.00
   4  15  -3    1.83    1.35
   4  15  -2    9.98    3.77
   4  15  -1    7.50    2.93
   4  15   0   21.62    5.58
   4  15   1   18.66    5.27
   4  15   2    6.30    3.30
   4  15   3    0.72    0.53
   4  15   4   13.50    4.64
   4  15   5   -0.35    1.05
   4  15   6    6.99    3.27
   4  15   7   -1.50    0.30
   4  15   8    8.29    3.38
   4  15   9    1.69    1.79
   4  15  10    7.84    4.06
   4  15  11    7.37    3.57
   4  15  12   -0.74    2.36
   4  15  12   -0.31    1.24
   4  15  13   -1.25    0.98
   4  16 -15    3.26    3.44
   4  16 -14    7.11    4.60
   4  16 -13    0.53    1.94
   4  16 -12    2.36    2.42
  -4  16  11    2.51    1.33
   4  16 -11    6.55    3.13
  -4  16  10    7.94    4.83
   4  16 -10    7.13    3.74
  -4  16   9   10.38    4.50
   4  16  -9   10.85    4.27
  -4  16   8    3.27    2.46
   4  16  -8    1.40    2.10
  -4  16   7    4.35    3.40
   4  16  -7    6.95    3.56
  -4  16   6    4.07    3.03
   4  16  -6    2.57    2.54
  -4  16   5   10.14    3.71
   4  16  -5   11.40    4.05
  -4  16   4   12.03    4.39
   4  16  -4   12.82    4.70
   4  16  -3   11.30    3.83
   4  16  -2    5.27    2.77
   4  16  -1    9.14    3.50
   4  16   0    0.01    1.77
   4  16   1   17.96    4.97
   4  16   2    3.36    2.41
   4  16   3   20.84    5.78
   4  16   4    3.27    1.96
   4  16   5    4.73    2.67
   4  16   6    6.94    3.54
   4  16   7   14.85    5.08
   4  16   8    0.14    1.56
   4  16   9    2.11    1.76
   4  16  10    1.60    2.45
   4  16  11    3.02    2.55
   4  16  12    6.60    3.92
   4  17 -12    4.47    4.39
   4  17 -11   -0.65    1.70
   4  17 -10    4.73    3.16
   4  17  -9    5.40    2.93
  -4  17   8    6.95    3.98
   4  17  -8    6.39    3.37
  -4  17   7    4.11    3.01
   4  17  -7    2.57    2.33
  -4  17   6   13.32    4.83
   4  17  -6    9.47    3.45
  -4  17   5    4.43    3.03
   4  17  -5    2.50    2.17
  -4  17   4   15.34    5.41
   4  17  -4   11.08    4.11
  -4  17   3    5.37    3.37
   4  17  -3    6.01    3.13
   4  17  -2   23.11    5.80
   4  17  -1    2.10    1.48
   4  17   0   19.01    5.44
   4  17   1   15.51    4.88
   4  17   2    6.92    3.34
   4  17   3    3.76    2.65
   4  17   4    8.95    4.01
   4  17   5    9.12    4.19
   4  17   6   23.90    6.41
   4  17   7    2.35    2.34
   4  17   8   15.09    5.51
   4  17   9    8.12    3.98
   4  17  10    9.07    4.55
   4  18  -8   -1.01    1.26
   4  18  -7    0.98    1.55
  -4  18   6   14.48    5.45
   4  18  -6    9.51    4.28
  -4  18   5    2.59    1.49
   4  18  -5    0.09    1.87
  -4  18   4    3.22    2.88
   4  18  -4    1.45    1.96
  -4  18   3    3.52    3.06
   4  18  -3    1.71    2.06
   4  18  -2    6.04    3.14
   4  18  -1    0.83    2.15
   4  18   0    2.62    2.27
   4  18   1    0.99    1.45
   4  18   2    3.23    2.78
   4  18   3    4.77    3.15
   4  18   4    0.05    1.75
   4  18   5    0.21    1.74
   4  18   6    2.53    2.76
   4  18   7   11.78    4.92
   4  18   8    1.25    1.81
   4  19  -4    6.25    3.33
   4  19  -3    5.66    3.36
  -4  19   2    6.79    4.19
   4  19  -2    5.67    2.97
   4  19  -1    1.61    1.53
   4  19   0    7.30    3.59
   4  19   1    0.83    1.60
   4  19   2    4.98    3.12
   4  19   3    3.78    2.79
   4  19   4    1.26    0.90
   4  19   5   12.13    5.61
   5 -13  -8   32.38    5.81
   5 -13  -7   30.89    5.37
   5 -13  -6   17.48    3.79
   5 -13  -5    4.55    2.20
   5 -13  -4   14.69    3.22
   5 -13  -3    5.34    1.91
   5 -12  -9   29.91    5.43
   5 -12  -8    8.67    2.91
   5 -12  -7   22.21    4.40
   5 -12  -6   41.88    5.78
   5 -12  -5   38.34    5.40
   5 -12  -4   11.14    2.76
   5 -12  -3   21.78    3.55
   5 -11 -10    1.57    1.34
   5 -11  -9    6.13    2.59
   5 -11  -8   28.55    5.18
   5 -11  -7    2.50    1.14
   5 -11  -6   12.16    3.15
   5 -11  -5    7.46    2.40
   5 -11  -4  135.83    9.14
   5 -11  -3   10.06    2.46
   5 -11  -2    6.04    1.71
   5 -10 -10   24.55    4.93
   5 -10  -9  100.44    9.80
   5 -10  -8   54.93    6.77
   5 -10  -7  122.20    9.86
   5 -10  -6    8.02    2.37
   5 -10  -5   59.17    5.96
   5 -10  -4    2.42    1.30
   5 -10  -3   32.99    3.99
   5 -10  -2    8.31    1.87
   5 -10  -1   17.38    2.47
   5  -9 -11   87.08   10.10
   5  -9 -10    7.59    2.71
   5  -9  -9   32.44    5.43
   5  -9  -8   54.40    6.81
   5  -9  -7   98.60    8.58
   5  -9  -6   68.46    6.63
   5  -9  -5   74.69    6.69
   5  -9  -4   64.98    5.75
   5  -9  -3   38.05    4.14
   5  -9  -2   16.74    2.53
   5  -9  -1   42.56    3.67
  -5  -9  -4   41.74    7.15
  -5  -9  -5   26.36    5.57
   5  -8 -11   80.43    9.35
   5  -8 -10   37.83    6.17
   5  -8  -9  126.33   10.82
   5  -8  -8   43.86    6.30
   5  -8  -7  255.74   14.15
   5  -8  -6   28.01    4.12
   5  -8  -5  169.45    9.76
   5  -8  -4   19.05    3.17
   5  -8  -3  488.65   13.82
   5  -8  -2   48.96    4.17
   5  -8  -1    6.27    1.18
  -5  -8  -3   22.38    5.18
  -5  -8  -4  280.49   17.79
  -5  -8  -5   39.72    6.31
  -5  -8  -6   85.73   10.27
  -5  -8  -7   22.34    5.22
   5  -7 -12   23.61    5.66
   5  -7 -11   63.78    8.45
   5  -7 -10   59.82    7.99
   5  -7  -9   74.31    8.40
   5  -7  -8   92.79    9.03
   5  -7  -7   24.67    4.45
   5  -7  -6   14.40    3.09
   5  -7  -5   34.55    4.44
   5  -7  -4   28.89    3.73
   5  -7  -3   79.98    5.43
   5  -7  -2  105.33    5.59
   5  -7  -1  321.11    8.57
   5  -7   0  274.15    6.14
  -5  -7  -3   12.67    3.35
  -5  -7  -4   45.60    6.67
  -5  -7  -5   56.15    7.42
  -5  -7  -6  211.06   14.59
  -5  -7  -7   33.22    5.88
  -5  -7  -8  182.76   13.80
  -5  -7  -9   96.40   10.37
  -5  -6  23    9.63    4.81
  -5  -6  22   18.67    6.36
  -5  -6  21   47.08    9.93
  -5  -6  20   13.39    5.30
  -5  -6  19   71.93   11.75
  -5  -6  18   24.65    6.55
  -5  -6  17   31.61    7.90
  -5  -6  16   54.63    9.71
  -5  -6  15   88.78   11.60
  -5  -6  14    3.44    2.37
  -5  -6  13  194.72   16.15
   5  -6 -12   23.64    5.37
   5  -6 -11  142.71   12.37
   5  -6 -10   42.64    6.41
   5  -6  -9  111.99    9.99
   5  -6  -8   82.06    8.15
   5  -6  -7  141.12   10.15
   5  -6  -6   20.38    3.56
   5  -6  -5   23.55    3.53
   5  -6  -4  177.76    9.32
   5  -6  -3   23.08    3.14
   5  -6  -2   22.97    2.65
   5  -6  -1   76.79    3.90
   5  -6   0   74.27    2.73
  -5  -6  -3  110.92    9.92
  -5  -6  -4   63.87    7.55
  -5  -6  -5   53.61    7.27
  -5  -6  -6   50.72    7.01
  -5  -6  -7   22.98    4.77
  -5  -6  -8   90.18    9.61
  -5  -6  -9   65.38    8.22
  -5  -6 -10  113.04   10.92
  -5  -5  23   -3.80    3.49
  -5  -5  22    4.06    3.10
  -5  -5  21    4.80    2.83
  -5  -5  20    2.39    1.99
  -5  -5  19   59.52   10.54
  -5  -5  18   14.15    4.91
  -5  -5  17    3.89    2.92
  -5  -5  16   12.27    4.32
  -5  -5  15  116.03   13.37
  -5  -5  14   39.20    7.77
  -5  -5  13   36.87    7.06
  -5  -5  12  121.09   12.48
   5  -5 -11  173.19   14.27
  -5  -5  11  124.80   12.30
   5  -5 -10  112.61   11.19
  -5  -5  10  131.50   11.97
   5  -5  -9  131.73   11.72
  -5  -5   9  108.95   10.81
   5  -5  -8  153.81   12.01
   5  -5  -7  237.27   14.35
   5  -5  -6   78.17    7.87
   5  -5  -5   38.02    5.18
   5  -5  -1  101.02    4.52
   5  -5   0   25.17    1.62
  -5  -5  -2   57.06    6.89
  -5  -5  -3  304.16   15.54
  -5  -5  -4  276.46   14.61
  -5  -5  -5    5.34    2.09
  -5  -5  -6  180.65   12.15
  -5  -5  -7  166.39   11.99
  -5  -5  -8  239.63   14.67
  -5  -5  -9  168.47   12.45
  -5  -5 -10  197.15   14.04
  -5  -5 -11   96.90   10.06
   5  -5  17   35.94    6.42
   5  -5  18    8.35    2.61
   5  -5  19    9.54    2.95
   5  -5  20   15.57    4.29
  -5  -4  23   -1.46    2.38
  -5  -4  22    4.81    3.23
  -5  -4  21   12.30    4.94
  -5  -4  20   -1.57    1.47
  -5  -4  19   32.56    7.41
  -5  -4  18   37.68    7.82
  -5  -4  17   95.88   12.40
  -5  -4  16   10.00    4.16
  -5  -4  15  105.87   12.16
  -5  -4  14   30.94    6.28
  -5  -4  13  363.87   21.27
   5  -4 -12   10.08    3.81
  -5  -4  12   13.59    4.17
  -5  -4  11  236.97   16.65
   5  -4 -11  263.04   17.22
  -5  -4  10   62.46    8.57
   5  -4 -10   92.97    9.71
  -5  -4   9  343.03   18.94
   5  -4  -9  407.86   19.90
  -5  -4   8   21.54    4.58
   5  -4  -8   27.84    5.09
  -5  -4   7  269.81   15.23
   5  -4  -7  285.97   15.37
   5  -4  -6    4.58    2.11
   5  -4  -5   96.95    8.10
   5  -4  -4  378.01   15.29
   5  -4  -3  142.55    8.73
   5  -4  -2   29.75    3.59
  -5  -4  -2   26.39    4.29
  -5  -4  -3   19.46    3.80
  -5  -4  -4  479.26   19.28
  -5  -4  -5   20.29    3.97
  -5  -4  -6   50.11    6.11
  -5  -4  -7   31.25    4.98
  -5  -4  -8  115.98    9.77
  -5  -4  -9   43.22    6.19
  -5  -4 -10   65.42    7.68
  -5  -4 -11   30.48    5.62
  -5  -4 -12   70.67    8.63
   5  -4  12   68.74    5.71
   5  -4  13   75.86    6.67
   5  -4  14   24.44    4.37
   5  -4  15    5.57    2.04
   5  -4  16    4.82    1.91
   5  -4  17   29.16    4.83
   5  -4  18    2.28    1.65
   5  -4  19   19.30    4.22
   5  -4  20    6.48    2.50
  -5  -3  24    1.48    2.05
  -5  -3  23    0.58    1.22
  -5  -3  22    5.69    3.49
  -5  -3  21    4.98    3.62
  -5  -3  20    5.16    3.29
  -5  -3  19   18.89    5.76
  -5  -3  18    7.14    3.63
  -5  -3  17    8.06    3.51
  -5  -3  16   70.21   10.30
  -5  -3  15   46.95    8.17
  -5  -3  14  129.16   13.29
  -5  -3  13   44.87    7.63
  -5  -3  12   92.19   10.61
   5  -3 -12   91.55   10.48
  -5  -3  11   79.88    9.58
   5  -3 -11   96.94   10.54
  -5  -3  10  232.37   15.32
   5  -3 -10  169.82   13.85
  -5  -3   9  104.98   10.01
   5  -3  -9  142.30   11.98
  -5  -3   8  432.16   19.48
   5  -3  -8  336.85   17.70
  -5  -3   7  238.79   14.51
   5  -3  -7  312.14   16.17
  -5  -3   6   60.24    6.98
   5  -3  -6   72.44    7.47
  -5  -3   5    7.05    2.40
   5  -3  -5    8.49    2.44
   5  -3  -4    7.87    2.22
   5  -3  -3   11.85    2.59
   5  -3  -2   62.65    5.32
   5  -3  -1   65.35    4.83
   5  -3   0   11.64    1.84
   5  -3   1    8.23    1.09
   5  -3   2   58.65    2.74
  -5  -3  -2   78.24    7.09
   5  -3   3   10.85    1.27
  -5  -3  -3   10.39    2.56
   5  -3   4   69.94    3.97
  -5  -3  -4  116.61    8.85
  -5  -3  -5   55.82    6.01
  -5  -3  -6  134.75    9.60
  -5  -3  -7  335.48   15.31
  -5  -3  -8   68.50    7.38
   5  -3   9  222.06    7.47
  -5  -3  -9  335.96   16.12
   5  -3  10    7.64    1.65
  -5  -3 -10   11.54    3.19
  -5  -3 -11  407.71   19.45
   5  -3  11  223.08    8.98
  -5  -3 -12   86.50    9.09
   5  -3  12   50.86    5.18
  -5  -3 -13  146.74   12.48
   5  -3  13  131.20    8.65
   5  -3  14   17.33    3.42
   5  -3  15   81.66    7.83
   5  -3  16   17.80    3.54
   5  -3  17   73.20    7.91
   5  -3  18    8.73    3.09
   5  -3  19    8.26    3.47
   5  -3  20   35.11    6.54
   5  -3  21    3.09    2.23
  -5  -2  24   10.22    4.90
  -5  -2  23   16.61    5.92
  -5  -2  22    8.23    3.99
  -5  -2  21   72.51   11.90
  -5  -2  20    2.22    1.86
  -5  -2  19   41.89    8.39
  -5  -2  18   51.03    8.84
  -5  -2  17  192.11   17.14
  -5  -2  16   21.34    5.81
  -5  -2  15   96.79   11.58
  -5  -2  14   39.44    6.91
  -5  -2  13   94.60   10.50
   5  -2 -13  137.32   13.16
  -5  -2  12   49.17    7.36
   5  -2 -12   38.23    7.11
  -5  -2  11  301.69   17.83
   5  -2 -11  314.38   19.22
  -5  -2  10   14.12    3.80
   5  -2 -10   20.34    4.76
  -5  -2   9   25.79    4.92
   5  -2  -9   36.81    5.90
  -5  -2   8   67.46    7.72
   5  -2  -8   48.89    6.54
  -5  -2   7   82.40    8.17
   5  -2  -7   63.62    6.97
  -5  -2   6   71.56    7.17
   5  -2  -6   95.99    8.25
  -5  -2   5   13.72    2.98
   5  -2  -5   16.11    3.16
  -5  -2   4   51.00    5.79
   5  -2  -4   42.97    4.90
  -5  -2   3  152.19    9.21
   5  -2  -3  123.67    7.77
   5  -2  -2  394.68   12.93
   5  -2  -1    1.53    0.72
   5  -2   0   87.33    4.89
   5  -2   1    4.46    0.89
   5  -2   1    2.96    0.67
   5  -2   2  442.26    9.69
  -5  -2  -2  500.91   16.70
   5  -2   2  420.14    7.08
   5  -2   3   56.36    3.52
  -5  -2  -3   45.87    4.98
   5  -2   4   49.31    3.70
  -5  -2  -4   52.32    5.42
   5  -2   5   25.94    2.92
  -5  -2  -5   19.56    3.33
   5  -2   6   40.12    3.99
  -5  -2  -6   53.91    5.76
   5  -2   7    1.78    0.49
  -5  -2  -7    4.91    1.91
   5  -2   8  187.16    6.50
  -5  -2  -8  121.82    9.03
   5  -2   9  102.99    5.01
  -5  -2  -9  204.30   12.24
  -5  -2 -10   49.57    6.33
   5  -2  10   23.03    2.65
  -5  -2 -11   42.74    6.11
   5  -2  11   12.66    2.49
  -5  -2 -12   20.49    4.46
   5  -2  12   33.72    4.00
  -5  -2 -13   81.72    8.89
   5  -2  13   66.31    6.13
   5  -2  14   13.38    3.02
   5  -2  15   29.67    4.48
   5  -2  16    4.86    2.26
   5  -2  17   10.15    3.13
   5  -2  18    9.80    2.87
   5  -2  19    1.07    0.93
   5  -2  20    1.79    1.87
   5  -2  21    7.08    3.71
   5  -2  22    2.15    1.62
  -5  -1  24    3.80    2.62
  -5  -1  23    2.30    1.99
  -5  -1  22    4.79    3.09
  -5  -1  21    0.94    2.08
  -5  -1  20    2.95    2.12
  -5  -1  19   -0.68    0.56
  -5  -1  18    0.60    1.69
  -5  -1  17    3.88    2.48
  -5  -1  16   38.64    7.79
  -5  -1  15  111.42   12.18
  -5  -1  14   33.75    6.72
  -5  -1  13   30.06    6.19
   5  -1 -13   19.64    5.07
  -5  -1  12   28.70    5.72
   5  -1 -12   32.39    6.26
  -5  -1  11   43.02    6.88
   5  -1 -11   52.74    7.68
  -5  -1  10   71.15    8.41
   5  -1 -10  114.68   10.61
  -5  -1   9   65.52    7.68
   5  -1  -9   57.74    7.40
  -5  -1   8  302.59   15.52
   5  -1  -8  220.65   13.99
  -5  -1   7  164.70   11.14
   5  -1  -7  192.44   12.22
  -5  -1   6  192.73   11.51
   5  -1  -6  141.60    9.96
  -5  -1   5    6.98    2.32
   5  -1  -5    8.30    2.32
  -5  -1   4   22.22    3.55
   5  -1  -4   14.55    2.76
  -5  -1   3  143.24    8.59
   5  -1  -3  151.82    8.52
  -5  -1   2   32.52    4.10
   5  -1  -2   25.13    3.30
   5  -1  -1  194.52    8.05
   5  -1   0  137.84    6.31
   5  -1   1   89.55    4.31
   5  -1   1  101.06    5.65
   5  -1   2   21.41    1.77
   5  -1   2   26.57    2.67
  -5  -1  -2   24.57    3.41
   5  -1   3    0.39    0.25
   5  -1   3    2.27    0.88
  -5  -1  -3    4.93    1.52
  -5  -1  -4    4.42    1.44
   5  -1   4    3.78    1.14
  -5  -1  -5  129.20    8.14
   5  -1   5  139.54    7.42
  -5  -1  -6   73.99    6.33
   5  -1   6   95.15    6.74
   5  -1   6   35.47    2.28
  -5  -1  -7  132.97    8.68
   5  -1   7  135.81    8.23
   5  -1   7  103.10    4.60
  -5  -1  -8   83.43    7.20
   5  -1   8   47.45    3.45
  -5  -1  -9  272.85   13.59
   5  -1   9  124.42    6.05
  -5  -1 -10   10.29    2.83
   5  -1  10    5.00    1.52
  -5  -1 -11  296.62   15.29
   5  -1  11  217.27   10.01
  -5  -1 -12   34.03    5.47
   5  -1  12   34.82    4.34
  -5  -1 -13  246.11   15.40
   5  -1  13  260.39   13.01
  -5  -1 -14   28.82    5.52
   5  -1  14   27.02    4.22
   5  -1  15   73.86    7.46
   5  -1  16    9.85    3.22
   5  -1  17    5.35    2.28
   5  -1  18    9.73    2.90
   5  -1  19    6.33    2.88
   5  -1  20    5.42    2.37
   5  -1  21   20.20    5.25
   5  -1  22    3.48    2.44
  -5   0  24    4.71    3.49
  -5   0  23    1.19    1.66
  -5   0  22    8.12    4.11
  -5   0  21   12.21    4.94
  -5   0  20    1.95    1.64
  -5   0  19    8.21    3.61
  -5   0  18   11.49    4.20
  -5   0  17   83.52   11.36
  -5   0  16   21.13    5.82
  -5   0  15   42.98    7.57
  -5   0  14    1.38    1.49
  -5   0  13  233.70   16.54
   5   0 -13  229.93   16.70
  -5   0  12   64.66    8.47
   5   0 -12   70.78    9.29
  -5   0  11  352.88   19.03
   5   0 -11  377.03   20.13
  -5   0  10   17.73    4.21
   5   0 -10   15.43    3.91
  -5   0   9  894.97   28.01
   5   0  -9  878.86   27.81
  -5   0   8    3.67    1.99
   5   0  -8    1.94    1.63
  -5   0   7  309.29   15.30
   5   0  -7  321.28   15.95
  -5   0   6    3.30    1.71
   5   0  -6    2.36    1.24
  -5   0   5  115.98    8.54
   5   0  -5  105.71    8.05
  -5   0   4    1.28    0.92
   5   0  -4    1.54    0.83
  -5   0   3  218.07   10.28
   5   0  -3  213.00   10.43
   5   0  -2    7.31    1.86
  -5   0   2    8.39    1.98
   5   0  -1  314.04   10.93
  -5   0   1  308.97   10.62
   5   0   0    1.00    0.40
  -5   0   0    1.41    0.53
   5   0   1  436.59   10.97
   5   0   1  411.11   12.80
   5   0   2   44.46    3.34
   5   0   2   39.93    3.81
  -5   0  -3  820.07   17.99
   5   0   3  765.12   16.72
  -5   0  -4    2.34    0.99
   5   0   4    1.23    0.74
  -5   0  -5   52.34    4.84
   5   0   5   48.25    4.51
  -5   0  -6    8.27    2.03
   5   0   6    6.03    1.20
   5   0   6    7.07    1.89
  -5   0  -7  152.89    8.89
   5   0   7  173.20   10.10
   5   0   7  151.73    6.80
  -5   0  -8   17.16    3.05
   5   0   8   20.72    3.53
   5   0   8   13.58    2.17
   5   0   9   41.25    5.42
  -5   0  -9   35.22    4.82
   5   0   9   24.09    3.08
  -5   0 -10    2.30    1.21
   5   0  10    1.03    0.78
  -5   0 -11    9.63    2.91
   5   0  11    9.03    2.46
  -5   0 -12   21.56    4.22
   5   0  12   15.54    2.85
  -5   0 -13  118.74   10.49
   5   0  13  123.78    9.14
  -5   0 -14   33.70    5.82
   5   0  14   24.84    4.34
  -5   0 -15  136.28   12.09
   5   0  15  141.04   10.66
   5   0  16    2.38    1.35
   5   0  17   51.29    7.26
   5   0  18   13.40    3.58
   5   0  19    3.57    2.35
   5   0  20   -0.27    0.93
   5   0  21   27.68    5.87
   5   0  22   -0.99    0.74
   5   0  23   14.22    4.76
  -5   1  24   18.00    6.44
  -5   1  23    4.41    3.47
  -5   1  22    3.65    2.87
  -5   1  21    2.81    2.64
  -5   1  20    0.68    1.47
  -5   1  19    2.02    1.88
  -5   1  18   -0.27    0.91
  -5   1  17    7.63    3.35
  -5   1  16   61.15    9.17
  -5   1  15   86.54   10.88
  -5   1  14   41.04    7.51
  -5   1  13   23.49    5.59
   5   1 -13   32.78    6.49
  -5   1  12   33.10    6.20
   5   1 -12   32.05    5.99
  -5   1  11   58.18    7.94
   5   1 -11   44.50    6.97
  -5   1  10  115.78   10.71
   5   1 -10   76.26    8.79
  -5   1   9   65.53    7.80
   5   1  -9   64.92    7.75
  -5   1   8  222.55   13.77
   5   1  -8  316.49   16.21
  -5   1   7  209.02   12.52
   5   1  -7  162.80   11.09
  -5   1   6  148.90   10.09
   5   1  -6  193.09   11.75
  -5   1   5    5.56    1.81
   5   1  -5    5.24    2.05
   5   1  -4   20.03    3.29
  -5   1   4   13.20    2.61
   5   1  -3  141.78    8.59
  -5   1   3  154.88    8.45
  -5   1   2   23.95    3.18
   5   1  -2   30.29    3.80
   5   1  -1  184.86    8.82
  -5   1   1  198.07    8.12
  -5   1   0  144.01    6.35
   5   1   0  141.74    7.23
  -5   1  -1  118.27    5.12
   5   1   1  123.23    6.51
   5   1   1  110.86    6.89
   5   1   2   21.33    3.06
  -5   1  -3    3.65    1.09
   5   1   3    4.01    1.35
  -5   1  -4    3.67    1.25
   5   1   4    4.24    1.42
  -5   1  -5  128.69    6.93
   5   1   5  122.52    7.64
  -5   1  -6   81.53    5.73
   5   1   6   79.15    6.52
  -5   1  -7  127.84    7.73
   5   1   7  145.15    9.31
   5   1   7  136.15    7.03
   5   1   8   91.01    8.16
  -5   1  -8   61.46    5.69
   5   1   8   87.71    6.07
  -5   1  -9  279.28   12.78
   5   1   9  295.92   14.75
   5   1   9  300.04   12.13
   5   1  10    8.11    2.62
  -5   1 -10    7.25    2.16
   5   1  10    7.70    2.07
  -5   1 -11  309.46   15.03
   5   1  11  328.02   14.11
  -5   1 -12   42.71    5.83
   5   1  12   32.55    4.63
  -5   1 -13  265.50   15.35
   5   1  13  259.41   14.15
  -5   1 -14   35.33    5.74
   5   1  14   30.73    5.04
  -5   1 -15   73.97    8.71
   5   1  15   35.04    5.45
   5   1  16   22.66    4.59
   5   1  17    8.88    3.02
   5   1  18    6.46    2.66
   5   1  19    3.50    2.30
   5   1  20   18.13    4.73
   5   1  21   27.03    6.22
   5   1  22    5.65    2.58
   5   1  23    2.81    1.67
   5   1  24   11.46    4.44
  -5   2  23   17.56    6.19
  -5   2  22    6.99    3.86
  -5   2  21   76.67   12.12
  -5   2  20    3.39    2.58
  -5   2  19   42.88    8.82
  -5   2  18   41.64    8.85
  -5   2  17  234.55   19.46
  -5   2  16   37.90    7.22
  -5   2  15  129.73   13.41
  -5   2  14   26.75    6.04
  -5   2  13  128.18   12.19
   5   2 -13  101.06   11.03
  -5   2  12   36.24    6.52
   5   2 -12   58.32    8.58
  -5   2  11  294.68   17.54
   5   2 -11  314.59   18.14
  -5   2  10   17.45    4.22
   5   2 -10   16.29    4.17
  -5   2   9   33.31    5.47
   5   2  -9   31.29    5.44
   5   2  -8   63.43    7.53
  -5   2   8   47.82    6.49
   5   2  -7   76.88    7.83
  -5   2   7   69.85    7.36
   5   2  -6   68.20    6.95
  -5   2   6   95.45    8.17
   5   2  -5   12.69    2.86
  -5   2   5   13.11    2.57
   5   2  -4   46.26    5.35
  -5   2   4   48.28    5.32
  -5   2   3  126.15    7.75
   5   2  -3  147.21    9.22
  -5   2   2  414.04   12.99
   5   2  -2  358.10   13.92
   5   2  -1    1.58    0.78
  -5   2   1    1.18    0.65
  -5   2   0   88.98    4.87
   5   2   0   77.38    5.81
   5   2   0   83.21    6.87
  -5   2  -1    5.15    0.95
   5   2   1    5.27    1.76
  -5   2  -2  417.88    7.03
   5   2   2  457.72   15.11
  -5   2  -3   62.52    4.06
   5   2   3   45.21    4.75
   5   2   4   47.59    4.96
  -5   2  -4   52.15    3.94
  -5   2  -5   23.20    2.58
   5   2   5   20.19    3.29
  -5   2  -6   42.69    3.91
   5   2   6   49.36    5.43
  -5   2  -7    3.55    1.32
   5   2   7    3.29    1.63
  -5   2  -8  164.65    8.87
   5   2   8  133.84    9.91
   5   2   8  134.07    8.30
   5   2   9  232.41   14.07
  -5   2  -9  200.27   10.50
   5   2   9  210.93   10.93
   5   2  10   55.58    6.88
  -5   2 -10   45.33    5.31
   5   2  10   48.93    5.58
   5   2  11   44.34    6.41
  -5   2 -11   26.49    4.27
   5   2  11   41.36    5.29
  -5   2 -12   30.86    4.83
   5   2  12   16.10    3.59
  -5   2 -13   80.48    8.42
   5   2  13   91.33    8.61
  -5   2 -14   30.29    5.49
   5   2  14   42.74    6.00
  -5   2 -15   29.91    5.67
   5   2  15   16.08    4.00
  -5   2 -16    5.74    2.55
   5   2  16    8.61    3.01
   5   2  17   12.68    3.68
   5   2  18    6.28    2.58
   5   2  19    4.11    2.49
   5   2  20   10.35    3.60
   5   2  21   14.03    4.47
   5   2  22    1.98    1.74
   5   2  23    0.11    1.02
   5   2  24    7.52    3.79
  -5   3  23    4.42    3.80
  -5   3  22    5.80    3.83
  -5   3  21    0.05    1.27
  -5   3  20    7.13    3.44
  -5   3  19   22.98    6.30
  -5   3  18    7.48    3.97
  -5   3  17    6.28    3.25
  -5   3  16   84.41   11.18
  -5   3  15   56.09    8.79
  -5   3  14  113.05   12.68
  -5   3  13   23.32    5.74
   5   3 -12   95.58   10.66
  -5   3  12   96.06   10.46
   5   3 -11   78.79    9.37
  -5   3  11   99.48   10.32
   5   3 -10  239.78   15.73
  -5   3  10  162.78   13.07
   5   3  -9  107.15   10.27
  -5   3   9  144.18   12.10
   5   3  -8  454.71   20.13
  -5   3   8  342.88   17.51
   5   3  -7  241.74   14.42
  -5   3   7  305.45   15.40
   5   3  -6   56.64    6.66
  -5   3   6   66.98    6.97
   5   3  -5    7.99    2.52
  -5   3   5    8.96    2.53
   5   3  -4    6.11    2.13
  -5   3   4    8.15    2.26
   5   3  -3    8.42    2.27
  -5   3   3    9.70    2.08
   5   3  -2   59.15    5.99
  -5   3   2   60.08    5.02
   5   3  -1   84.97    6.73
  -5   3   1   66.46    4.90
   5   3   0   20.98    3.80
  -5   3   0   13.58    2.03
   5   3   1   18.04    3.53
  -5   3  -1   11.89    1.67
  -5   3  -2   58.42    2.83
   5   3   2   70.38    6.30
   5   3   3   10.30    2.34
  -5   3  -4   98.00    4.62
   5   3   4   98.72    7.42
  -5   3  -5   51.01    3.49
   5   3   5   55.55    5.78
   5   3   6  132.70    9.28
  -5   3  -6  119.38    6.06
   5   3   7  343.88   15.54
  -5   3  -7  293.38   10.25
  -5   3  -8   73.18    5.68
   5   3   8   70.83    7.63
  -5   3  -9  317.85   12.76
   5   3   9  361.21   17.32
  -5   3  -9  285.84    8.21
   5   3   9  368.53   15.18
  -5   3 -10    6.36    1.50
   5   3  10    7.21    2.26
  -5   3 -10    8.05    2.25
   5   3  10    8.75    2.87
  -5   3 -11  375.80   16.30
   5   3  11  416.89   20.13
   5   3  11  426.93   17.96
  -5   3 -11  365.56   12.04
   5   3  12  101.42   10.45
  -5   3 -12   63.06    6.96
  -5   3 -12   63.52    5.26
   5   3  12  103.81    9.21
  -5   3 -13  134.35    8.39
  -5   3 -13  134.68   10.68
   5   3  13  158.56   11.89
  -5   3 -14   25.39    3.96
  -5   3 -14   26.94    5.05
   5   3  14   30.98    5.40
  -5   3 -15  105.35   10.39
  -5   3 -15   99.78    8.10
   5   3  15  127.03   11.40
  -5   3 -16   12.27    2.90
  -5   3 -16   21.24    4.85
   5   3  16   12.74    3.97
  -5   3 -17   58.43    6.76
   5   3  17   55.35    8.48
  -5   3 -18    9.70    3.08
   5   3  18   21.42    5.08
   5   3  19   13.14    3.86
   5   3  20   57.53    8.87
   5   3  21    5.52    3.26
   5   3  22   10.27    3.93
   5   3  23   12.61    4.37
   5   3  24   18.99    5.93
  -5   4  23    1.79    2.08
  -5   4  22    6.13    3.94
  -5   4  21   20.25    6.38
  -5   4  20    4.33    3.16
  -5   4  19   39.16    8.45
  -5   4  18   38.79    7.94
  -5   4  17  130.53   14.57
  -5   4  16    4.40    2.81
  -5   4  15  117.36   12.83
  -5   4  14   24.34    5.71
  -5   4  13  499.10   26.00
  -5   4  12    9.16    3.24
   5   4 -12   10.66    3.62
   5   4 -11  242.48   16.72
  -5   4  11  254.51   16.87
   5   4 -10   62.65    8.11
  -5   4  10   93.97    9.82
   5   4  -9  335.24   18.21
  -5   4   9  392.28   19.18
   5   4  -8   20.90    4.46
  -5   4   8   27.37    5.05
   5   4  -7  271.49   15.35
  -5   4   7  290.54   15.47
   5   4  -6    4.59    2.01
  -5   4   6    5.06    1.88
   5   4  -5  120.47    9.76
  -5   4   5   99.96    8.48
   5   4  -4  388.29   16.70
  -5   4   4  386.42   15.43
   5   4  -3  158.91   10.74
  -5   4   3  147.51    8.96
   5   4  -2   21.70    3.63
  -5   4   2   34.06    4.00
   5   4  -1   22.41    4.16
  -5   4   1   13.62    2.22
   5   4   0   22.17    3.90
  -5   4   0   28.78    3.15
   5   4   1   13.67    3.17
  -5   4  -1    9.67    1.72
   5   4   2   18.72    3.39
  -5   4  -2   25.54    2.35
   5   4   3   19.02    3.50
  -5   4  -3   24.20    1.94
  -5   4  -4   99.64    2.52
   5   4   4  394.93   15.67
  -5   4  -5    9.98    1.23
   5   4   5   20.61    3.71
   5   4   6   43.64    5.52
  -5   4  -6   52.02    3.58
   5   4   7   27.82    4.60
  -5   4  -7   22.96    2.78
  -5   4  -7    6.98    0.84
   5   4   8  124.05   10.38
  -5   4  -8  158.76    7.97
  -5   4  -8  106.61    4.14
  -5   4  -9   38.44    4.33
   5   4   9   43.01    6.24
  -5   4  -9   38.05    3.16
  -5   4 -10   78.87    6.78
   5   4  10   83.70    9.41
   5   4  10   71.09    7.46
  -5   4 -10   34.79    3.08
   5   4  11   33.88    5.96
   5   4  11   31.54    5.25
  -5   4 -11   34.88    4.70
  -5   4 -11   30.96    3.34
   5   4  12   73.55    9.23
  -5   4 -12   72.73    7.33
  -5   4 -12   71.52    5.79
   5   4  12   71.02    8.02
  -5   4 -13   86.93    8.41
  -5   4 -13   76.10    6.31
   5   4  13  104.96   10.21
  -5   4 -14   27.92    4.99
   5   4  14   49.36    7.24
  -5   4 -14   22.08    3.55
  -5   4 -15    8.52    2.90
  -5   4 -15    6.63    2.22
   5   4  15   10.60    3.54
  -5   4 -16    9.73    3.28
  -5   4 -16    7.11    2.24
   5   4  16   12.12    3.92
  -5   4 -17   24.99    5.02
   5   4  17   67.65    9.14
  -5   4 -18    2.33    1.55
   5   4  18    5.65    2.92
   5   4  19   24.73    5.94
   5   4  20    3.46    2.46
   5   4  21   47.44    8.64
   5   4  22    3.47    2.35
   5   4  23    9.85    4.12
   5   4  24    4.04    3.05
   5   4  25    8.00    4.30
  -5   5  22    4.70    3.05
  -5   5  21    5.78    3.85
  -5   5  20   10.30    4.19
  -5   5  19   49.03    9.78
  -5   5  18    9.17    4.25
  -5   5  17    4.37    2.98
  -5   5  16   15.38    4.91
  -5   5  15  157.22   15.66
  -5   5  14   54.30    9.37
  -5   5  13   37.56    7.18
  -5   5  12   88.04   10.48
   5   5 -11  123.09   11.86
  -5   5  11  169.42   14.18
   5   5 -10  144.71   12.83
  -5   5  10  113.08   11.28
   5   5  -9  117.30   11.36
  -5   5   9  127.34   11.68
   5   5  -8  201.80   13.99
  -5   5   8  157.87   12.32
   5   5  -7  164.76   12.54
  -5   5   7  239.13   14.49
   5   5  -6  112.27   10.15
  -5   5   6   80.56    8.09
   5   5  -5   50.57    6.57
  -5   5   5   33.67    4.89
   5   5  -4   32.95    5.30
  -5   5   4   34.06    4.95
   5   5  -3   89.31    8.40
  -5   5   3  117.89    8.79
  -5   5   2  169.01    9.63
   5   5  -1  191.13   12.37
  -5   5   1  144.92    8.49
   5   5   0   33.51    5.08
  -5   5   0   42.93    4.22
   5   5   1  141.15   10.02
  -5   5  -1  105.84    5.94
   5   5   2   51.07    6.08
  -5   5  -2   52.18    4.08
  -5   5  -3  219.94    7.42
   5   5   3  264.62   13.55
   5   5   4  246.07   13.01
  -5   5  -5    3.21    0.78
  -5   5  -5    1.91    0.42
   5   5   5    4.99    2.00
  -5   5  -6  108.39    4.48
  -5   5  -6   67.48    3.47
  -5   5  -7  143.53    6.39
   5   5   7  161.14   11.57
  -5   5  -7  115.11    4.47
  -5   5  -8  133.55    7.08
  -5   5  -8  125.23    5.79
  -5   5  -9  159.39    8.48
   5   5   9  171.32   12.89
  -5   5  -9  140.54    6.41
   5   5  10  203.64   14.37
  -5   5 -10  165.15    9.38
  -5   5 -10  172.88    7.76
   5   5  11  105.28    9.76
   5   5  11  111.40   11.35
  -5   5 -11  101.90    7.84
  -5   5 -11   84.08    5.63
   5   5  12  272.50   17.97
  -5   5 -12  181.25   11.15
   5   5  12  258.91   16.17
  -5   5 -12  174.11    9.04
   5   5  13  128.08   12.78
  -5   5 -13   94.75    8.52
  -5   5 -13  103.10    7.57
   5   5  13  121.97   11.19
  -5   5 -14  205.55   13.30
   5   5  14  196.51   14.99
  -5   5 -14  200.32   10.94
  -5   5 -15   80.01    8.66
  -5   5 -15   91.96    7.78
   5   5  15   72.89    9.41
  -5   5 -16   10.57    3.25
  -5   5 -16   10.84    2.91
   5   5  16   22.91    5.52
  -5   5 -17   49.79    7.65
  -5   5 -17   54.35    6.82
   5   5  18    6.31    2.85
   5   5  19    9.56    4.08
   5   5  20   37.66    7.74
   5   5  21    8.57    3.94
   5   5  22    5.50    3.22
   5   5  23    1.25    0.72
   5   5  24   11.70    5.12
   5   5  25    5.70    3.91
  -5   6  22   25.66    7.44
  -5   6  21   86.64   13.63
  -5   6  20   15.56    5.46
  -5   6  19  107.91   14.12
  -5   6  18   21.05    6.33
  -5   6  17   61.51   10.59
  -5   6  16   91.76   12.28
  -5   6  15  131.40   14.17
  -5   6  14    5.31    3.03
  -5   6  13  265.99   19.30
  -5   6  12   28.11    6.08
  -5   6  11  160.97   14.29
   5   6 -10   35.91    6.48
  -5   6  10   42.71    6.87
   5   6  -9  137.26   12.15
  -5   6   9  120.86   11.32
   5   6  -8  104.83   10.59
  -5   6   8   93.15    9.72
   5   6  -7  187.99   13.93
  -5   6   7  154.52   11.97
   5   6  -6   29.00    5.26
  -5   6   6   25.29    4.89
   5   6  -5   33.81    5.64
  -5   6   5   27.97    4.71
   5   6  -4  220.69   14.16
  -5   6   4  191.17   11.87
   5   6  -3   33.72    5.48
  -5   6   3   26.91    4.23
   5   6  -2   30.44    5.18
  -5   6   2   29.45    4.34
   5   6  -1  100.90    9.22
  -5   6   1   90.93    6.96
   5   6   0  109.33    9.80
  -5   6   0  121.82    7.87
  -5   6  -1   42.43    4.38
   5   6   1   35.45    5.24
   5   6   2   20.47    4.13
   5   6   3   89.08    8.23
   5   6   4   57.80    6.71
   5   6   5   45.77    6.00
  -5   6  -6   37.73    2.28
   5   6   6   47.06    6.36
  -5   6  -6   76.71    4.67
   5   6   7   21.94    4.49
  -5   6  -7   13.71    1.69
  -5   6  -7   20.53    2.39
   5   6   8   83.26    8.82
  -5   6  -8  106.84    6.10
  -5   6  -8  112.84    5.91
  -5   6  -9   61.20    5.03
   5   6   9   62.22    8.12
  -5   6  -9   70.69    5.00
  -5   6 -10  110.20    7.64
   5   6  10  118.98   11.57
  -5   6 -10   94.62    6.12
  -5   6 -11   44.99    5.44
   5   6  11   46.08    7.77
   5   6  11   37.42    6.10
  -5   6 -11   36.49    3.75
   5   6  12   54.60    8.47
  -5   6 -12   64.83    7.09
   5   6  12   51.91    7.55
  -5   6 -12   60.06    5.42
   5   6  13   76.90   10.16
  -5   6 -13   61.46    7.18
   5   6  13   77.44    9.36
  -5   6 -13   50.29    5.12
   5   6  14   12.47    4.33
  -5   6 -14    8.15    2.78
   5   6  14   10.90    3.49
  -5   6 -14    7.26    2.11
  -5   6 -15    5.81    2.34
   5   6  15    4.31    2.18
  -5   6 -15    5.57    1.89
  -5   6 -16   29.11    5.57
  -5   6 -16   26.89    4.44
   5   6  16   28.79    6.31
  -5   6 -17   21.04    4.94
   5   6  17   33.05    7.04
  -5   6 -17   18.01    3.86
   5   6  18    2.26    1.64
   5   6  19    9.91    4.10
   5   6  20    5.50    2.91
   5   6  21   14.22    4.78
   5   6  22    4.97    3.02
   5   6  23    2.55    2.37
   5   6  24    1.54    1.47
  -5   7  21    5.39    3.15
  -5   7  20    2.74    3.08
  -5   7  19   18.50    6.09
  -5   7  18   13.50    4.77
  -5   7  17   19.57    6.14
  -5   7  16    9.91    3.95
  -5   7  15   72.36   11.07
  -5   7  14    4.98    3.10
  -5   7  13   90.56   11.85
  -5   7  12   30.23    6.44
  -5   7  11   75.67    9.97
  -5   7  10   68.14    9.24
   5   7  -9   55.23    7.82
  -5   7   9   80.77    9.68
   5   7  -8   89.61   10.09
  -5   7   8   94.70   10.26
   5   7  -7   17.71    4.20
  -5   7   7   24.47    5.09
   5   7  -6   13.52    3.77
  -5   7   6   17.63    4.29
   5   7  -5   29.03    5.55
  -5   7   5   40.99    6.18
   5   7  -4   39.27    6.08
  -5   7   4   33.99    5.16
  -5   7   3   92.75    8.36
   5   7  -2  167.12   12.68
  -5   7   2  135.63    9.66
   5   7  -1  388.20   18.40
  -5   7   1  368.96   15.31
  -5   7   0  384.24   14.84
   5   7   0  302.51   16.47
   5   7   1   52.56    6.67
   5   7   2  195.21   13.00
   5   7   3   10.69    2.95
   5   7   4   41.91    5.96
   5   7   5   50.52    6.68
   5   7   6  189.12   13.10
  -5   7  -6  169.27    8.22
  -5   7  -7   28.73    2.41
   5   7   7   31.11    5.55
  -5   7  -7   35.92    3.71
   5   7   8  185.89   13.86
  -5   7  -8  158.89    7.04
  -5   7  -8  159.73    8.13
   5   7   9  109.21   11.27
  -5   7  -9   74.86    5.58
  -5   7  -9   80.68    6.05
  -5   7 -10  104.28    7.09
   5   7  10  167.58   14.24
  -5   7 -10  114.33    7.17
  -5   7 -11   57.10    5.73
   5   7  11   74.75    9.79
  -5   7 -11   64.18    5.60
  -5   7 -12   41.81    5.12
   5   7  12   75.07   10.15
   5   7  12   74.33    9.39
  -5   7 -12   37.50    4.92
  -5   7 -13   28.27    4.53
   5   7  13   44.63    7.81
   5   7  13   45.71    7.51
  -5   7 -13   24.05    3.96
  -5   7 -14    7.38    2.44
   5   7  14   10.94    3.76
   5   7  14    7.59    3.10
  -5   7 -14    5.77    1.72
  -5   7 -15   42.03    6.33
   5   7  15   74.65   10.35
  -5   7 -15   36.78    4.83
  -5   7 -16    8.59    3.07
  -5   7 -16   12.46    3.07
   5   7  16   15.30    4.58
  -5   7 -17   58.05    8.56
   5   7  17   71.45   10.49
   5   7  18   23.90    6.73
   5   7  19    4.58    2.93
   5   7  20   24.01    6.33
   5   7  21    0.95    1.52
   5   7  22   16.07    5.55
   5   7  23    1.48    1.64
   5   7  24    7.13    3.98
  -5   8  20    8.59    4.68
  -5   8  19   10.71    4.73
  -5   8  18   14.62    5.40
  -5   8  17   17.77    5.38
  -5   8  16    5.19    2.77
  -5   8  15   20.41    5.72
  -5   8  14   44.16    8.77
  -5   8  13  100.38   12.30
  -5   8  12   27.95    6.19
  -5   8  11   95.01   11.53
  -5   8  10   43.89    7.57
  -5   8   9  149.20   13.98
   5   8  -8   64.06    9.14
  -5   8   8   44.90    7.42
   5   8  -7  293.99   18.32
  -5   8   7  273.48   17.29
   5   8  -6   29.51    5.88
  -5   8   6   32.74    5.80
   5   8  -5  191.06   14.50
  -5   8   5  205.58   14.30
   5   8  -4   21.26    5.07
  -5   8   4   26.85    5.25
   5   8  -3  574.49   25.00
  -5   8   3  562.03   21.68
  -5   8   2   56.42    6.49
   5   8  -2   60.59    7.88
  -5   8   1   13.33    3.25
   5   8  -1   12.41    3.75
  -5   8   0   47.12    5.42
   5   8   0   46.37    6.62
   5   8   1  189.01   13.27
   5   8   2   59.59    7.35
   5   8   3   17.82    4.21
   5   8   4  243.05   15.00
   5   8   5   40.25    6.25
   5   8   6   75.59    8.51
  -5   8  -7   25.26    2.16
   5   8   7   25.06    5.07
  -5   8  -7   32.57    4.02
  -5   8  -8   79.25    4.59
   5   8   8   77.43    9.27
  -5   8  -8  129.29    8.17
   5   8   9   28.61    5.83
  -5   8  -9   34.61    3.56
  -5   8  -9   38.27    4.18
  -5   8 -10   35.09    4.04
   5   8  10   22.06    5.19
  -5   8 -10   38.94    4.48
  -5   8 -11   24.52    3.66
   5   8  11   28.31    6.04
  -5   8 -11   21.78    3.32
  -5   8 -12   75.71    6.92
   5   8  12  100.92   12.19
   5   8  12   92.54   10.87
  -5   8 -12   71.34    6.55
   5   8  13    5.73    2.76
   5   8  13    5.48    2.90
  -5   8 -13    2.75    1.44
  -5   8 -13    1.68    0.97
   5   8  14   64.64   10.29
  -5   8 -14   34.57    5.23
  -5   8 -14   18.75    3.98
   5   8  14   58.92    9.08
  -5   8 -15    4.84    2.05
   5   8  15    2.73    1.65
  -5   8 -15    2.71    1.15
  -5   8 -16   24.89    4.95
   5   8  16   21.66    5.77
   5   8  17    3.81    2.40
   5   8  18   45.73    9.30
   5   8  19    2.62    2.81
   5   8  20   32.97    7.88
   5   8  21   18.38    6.12
   5   8  22    5.22    3.44
   5   8  23    1.00    1.80
  -5   9  20    2.47    2.52
  -5   9  19   12.39    5.06
  -5   9  18    1.19    1.97
  -5   9  17   12.58    5.35
  -5   9  16   15.21    5.16
  -5   9  15   14.87    5.24
  -5   9  14   10.66    4.47
  -5   9  13   15.58    5.05
  -5   9  12   19.00    5.34
  -5   9  11  100.95   12.31
  -5   9  10   10.32    4.03
  -5   9   9   34.62    6.68
  -5   9   8   61.64    8.83
  -5   9   7  120.45   11.98
  -5   9   6   82.62    9.82
   5   9  -5  106.00   11.13
  -5   9   5   79.41    9.14
   5   9  -4   54.73    7.99
  -5   9   4   77.24    8.73
   5   9  -3   62.13    8.38
  -5   9   3   46.26    6.42
  -5   9   2   18.88    4.17
   5   9  -2   16.88    4.13
  -5   9   1   49.70    6.21
   5   9  -1   65.98    8.36
   5   9   0   19.42    4.57
   5   9   1    9.35    3.16
   5   9   2   55.25    7.51
   5   9   3   24.95    4.89
   5   9   4   41.54    6.40
   5   9   5   25.30    5.17
   5   9   6  128.36   11.60
  -5   9  -7   12.87    1.40
   5   9   7   21.26    4.84
  -5   9  -7   21.70    3.51
  -5   9  -7   12.76    1.30
  -5   9  -8   79.08    4.45
   5   9   8  135.72   12.96
  -5   9  -8   83.53    7.25
   5   9   9    8.40    3.34
  -5   9  -9    5.27    1.12
  -5   9  -9    8.97    2.17
  -5   9 -10   85.55    6.05
   5   9  10  123.04   12.81
  -5   9 -10   97.31    7.81
   5   9  11   11.16    4.03
  -5   9 -11   12.90    2.43
  -5   9 -11   16.89    3.31
   5   9  12   11.99    4.60
  -5   9 -12    5.86    1.66
  -5   9 -12    6.12    1.90
   5   9  13   17.59    5.01
  -5   9 -13   16.48    3.32
   5   9  13   20.64    5.86
  -5   9 -13   16.86    3.27
   5   9  14   75.16   11.31
  -5   9 -14   70.28    7.62
   5   9  14   69.52   10.49
  -5   9 -14   70.90    7.31
   5   9  15    7.19    3.34
   5   9  15    8.59    3.82
   5   9  16   26.21    6.58
   5   9  17   12.79    4.81
   5   9  18   28.19    7.28
   5   9  19   -0.56    1.63
   5   9  20    7.75    4.19
   5   9  21    7.95    3.81
   5   9  22    6.22    3.77
  -5  10  19   27.71    8.05
  -5  10  18   18.48    6.29
  -5  10  17   25.24    7.21
  -5  10  16   22.87    6.96
  -5  10  15   59.17   10.46
  -5  10  14   59.85   10.42
  -5  10  13   32.39    7.29
  -5  10  12   22.05    6.32
  -5  10  11   17.52    5.23
  -5  10  10   29.01    6.35
  -5  10   9  114.28   12.57
  -5  10   8   71.68    9.99
  -5  10   7  134.19   13.28
  -5  10   6   10.34    3.56
   5  10  -5   92.95   11.20
  -5  10   5   71.29    8.89
  -5  10   4    4.24    2.16
   5  10  -4    3.19    2.03
  -5  10   3   39.49    6.18
   5  10  -3   44.80    7.19
  -5  10   2   12.28    3.38
   5  10  -2   11.38    3.75
   5  10  -1   19.44    4.68
   5  10   0   85.36    9.60
   5  10   1   61.98    8.27
   5  10   2    4.05    1.90
   5  10   3   20.54    4.45
   5  10   4   12.05    3.52
   5  10   5   36.76    6.49
   5  10   6   20.31    4.81
   5  10   7   64.53    8.67
  -5  10  -7   93.96    7.85
  -5  10  -7   75.94    3.20
   5  10   8  132.67   13.00
  -5  10  -8  148.00   10.37
  -5  10  -8  135.86    5.85
   5  10   9   30.58    6.51
  -5  10  -9   27.44    4.29
  -5  10  -9   23.34    2.67
   5  10  10   48.32    8.36
  -5  10 -10   24.06    4.20
   5  10  11    8.26    3.68
  -5  10 -11    7.51    1.85
  -5  10 -11   10.77    2.67
   5  10  12   17.70    5.60
  -5  10 -12    8.98    2.11
  -5  10 -12   12.29    2.81
   5  10  13   10.06    3.84
   5  10  13   11.16    4.27
  -5  10 -13    6.41    2.17
   5  10  14    3.17    2.32
   5  10  14    3.09    2.81
   5  10  15    4.89    3.21
   5  10  15   13.13    5.15
   5  10  16    5.32    3.42
   5  10  17   12.16    4.52
   5  10  18   18.82    6.24
   5  10  19    1.09    1.48
   5  10  20    6.47    3.66
  -5  11  18    6.79    4.33
  -5  11  17   11.67    5.05
  -5  11  16    4.58    3.66
  -5  11  15   30.29    7.85
  -5  11  14    3.77    2.78
  -5  11  13   32.14    7.64
  -5  11  12   27.79    6.93
  -5  11  11   35.09    7.76
  -5  11  10    2.22    2.05
  -5  11   9    7.44    3.79
  -5  11   8   37.47    7.32
  -5  11   7    2.75    1.88
   5  11  -7    6.09    3.13
  -5  11   6   13.96    4.27
   5  11  -6   11.25    3.96
  -5  11   5   11.64    4.02
   5  11  -5   11.24    4.03
  -5  11   4  151.05   13.47
   5  11  -4  132.69   12.92
  -5  11   3   12.10    3.78
   5  11  -3    7.27    2.78
  -5  11   2    9.59    3.23
   5  11  -2    9.55    3.38
   5  11  -1   26.96    5.48
   5  11   0   15.95    4.33
   5  11   1    4.13    1.49
   5  11   2  107.57   11.28
   5  11   3    0.38    0.42
   5  11   4   13.99    4.14
   5  11   5   23.76    5.27
   5  11   6  171.91   14.81
  -5  11  -7    2.82    0.42
   5  11   7    5.61    2.65
   5  11   8    9.13    3.81
  -5  11  -8    4.67    1.95
  -5  11  -8    2.65    0.56
   5  11   9   26.35    6.31
  -5  11  -9   17.51    3.79
  -5  11  -9   13.88    1.96
   5  11  10  142.03   14.78
  -5  11 -10   87.79    8.46
  -5  11 -10   86.89    6.07
   5  11  11    6.76    3.23
  -5  11 -11    3.09    1.63
   5  11  12   41.38    8.85
   5  11  13   12.88    4.76
   5  11  13   13.62    5.02
   5  11  14   55.07   10.06
   5  11  14   63.63   10.65
   5  11  15   12.05    4.47
   5  11  15   13.71    5.47
   5  11  16   10.69    4.84
   5  11  17    4.72    3.08
   5  11  18   21.74    6.79
   5  11  19    4.77    3.30
  -5  12  17    9.73    5.07
  -5  12  16    2.66    2.79
  -5  12  15    3.34    2.83
  -5  12  14   93.06   13.64
  -5  12  13   12.97    5.09
  -5  12  12   12.96    4.58
  -5  12  11   49.31    9.52
  -5  12  10   23.71    6.49
  -5  12   9   37.54    7.87
   5  12  -8    8.61    3.61
  -5  12   8   10.85    4.16
   5  12  -7   33.17    7.26
  -5  12   7   27.02    6.04
   5  12  -6   37.27    7.29
  -5  12   6   41.91    7.55
   5  12  -5   40.94    7.63
  -5  12   5   42.76    7.59
  -5  12   4   11.65    3.49
   5  12  -4   10.09    3.59
  -5  12   3   23.30    5.18
   5  12  -3   29.30    6.11
  -5  12   2    8.05    3.03
   5  12  -2    4.64    2.22
   5  12  -1   14.52    4.31
   5  12   0   33.97    6.10
   5  12   1  167.22   14.57
   5  12   2    8.16    3.04
   5  12   3    5.49    2.05
   5  12   4   48.71    7.83
   5  12   5    7.85    3.20
   5  12   6   11.38    4.24
   5  12   7    9.11    3.56
  -5  12  -8   27.27    2.08
   5  12   8   25.10    5.92
  -5  12  -8   42.46    6.17
   5  12   9   43.67    8.32
  -5  12  -9   50.04    6.50
  -5  12  -9   37.29    2.94
   5  12  10   11.69    4.35
  -5  12 -10   11.00    3.36
   5  12  11   23.67    6.26
   5  12  12   21.68    6.33
   5  12  13    4.87    3.09
   5  12  13    6.48    3.30
   5  12  14   16.86    5.87
   5  12  14   19.20    6.21
   5  12  15    7.90    4.07
   5  12  15    4.68    3.26
   5  12  16   22.06    6.54
   5  12  17    1.75    1.49
  -5  13  15   21.41    7.07
  -5  13  14    2.91    3.16
  -5  13  13   10.60    4.47
  -5  13  12    1.57    0.97
  -5  13  11   25.28    6.83
   5  13 -10    4.24    3.72
  -5  13  10    3.21    3.01
   5  13  -9   22.84    6.22
  -5  13   9   20.65    5.65
   5  13  -8   29.87    7.03
  -5  13   8   38.62    8.10
   5  13  -7   41.87    8.36
  -5  13   7   38.95    7.68
  -5  13   6   25.54    6.32
   5  13  -6   14.29    4.80
  -5  13   5    6.47    3.15
   5  13  -5    4.09    2.29
  -5  13   4   17.93    5.13
   5  13  -4   11.79    3.74
  -5  13   3    5.42    2.63
   5  13  -3    5.51    2.54
  -5  13   2   19.30    4.89
   5  13  -2   25.48    5.89
   5  13  -1   14.66    4.15
   5  13   0   25.98    5.83
   5  13   1    9.69    2.94
   5  13   2   48.75    8.08
   5  13   3    2.38    1.79
   5  13   4    2.72    2.35
   5  13   5    7.10    3.46
   5  13   6   66.88    9.97
   5  13   7    6.81    3.29
   5  13   8   23.21    6.12
  -5  13  -8   16.20    3.94
   5  13   9   11.95    4.42
   5  13  10   31.39    7.35
   5  13  11    3.00    2.56
   5  13  12   16.05    5.87
   5  13  13    7.34    3.77
   5  13  13    8.49    4.67
   5  13  14   50.69   10.14
   5  13  14   49.32    9.94
   5  13  15    6.16    3.63
   5  13  15    8.56    4.72
   5  13  16    8.79    4.24
  -5  14  14   70.26   12.40
  -5  14  13   12.95    5.57
  -5  14  12   12.39    5.35
   5  14 -11   17.55    6.32
  -5  14  11   14.84    5.59
   5  14 -10   38.64    8.25
  -5  14  10   56.78   10.53
   5  14  -9   27.17    6.90
  -5  14   9   29.09    7.47
   5  14  -8    7.88    3.48
  -5  14   8   10.76    4.58
   5  14  -7   35.92    7.73
  -5  14   7   29.17    6.84
   5  14  -6   12.57    4.40
  -5  14   6   18.10    5.72
   5  14  -5   22.66    5.94
  -5  14   5   24.66    6.09
   5  14  -4    8.95    3.49
  -5  14   4   10.47    3.88
   5  14  -3   54.74    8.94
  -5  14   3   51.76    8.63
   5  14  -2    8.35    2.83
  -5  14   2   11.64    4.21
   5  14  -1   96.01   11.82
   5  14   0    4.87    2.50
   5  14   1    6.54    2.97
   5  14   2    5.03    2.42
   5  14   3   46.98    8.11
   5  14   4    4.88    2.88
   5  14   5   43.39    8.11
   5  14   6   28.40    6.66
   5  14   7   14.74    4.69
   5  14   8    3.86    2.72
   5  14   9   11.69    4.47
   5  14  10    2.40    2.82
   5  14  11   26.88    7.08
   5  14  12    6.39    3.91
   5  14  13    9.15    4.67
   5  14  13    4.30    3.54
   5  14  14    7.88    4.30
   5  14  14    8.38    4.35
   5  15 -14    5.42    3.73
   5  15 -13   19.48    6.65
   5  15 -12    1.28    1.68
  -5  15  12    3.78    3.31
   5  15 -11   15.48    5.41
  -5  15  11   18.64    6.23
   5  15 -10    2.96    2.53
  -5  15  10    7.01    4.21
   5  15  -9   14.25    5.38
  -5  15   9   10.95    4.76
   5  15  -8    8.92    4.34
  -5  15   8   12.44    4.99
   5  15  -7    1.09    1.89
  -5  15   7    0.18    0.49
   5  15  -6   10.78    4.06
  -5  15   6   21.75    6.35
   5  15  -5    1.11    1.28
  -5  15   5    1.26    0.98
   5  15  -4    7.75    3.17
  -5  15   4   14.96    5.18
   5  15  -3    2.67    1.87
  -5  15   3    3.81    2.81
   5  15  -2    9.25    3.37
  -5  15   2   10.29    3.95
   5  15  -1    5.28    2.51
   5  15   0   13.02    4.27
   5  15   1    2.35    1.80
   5  15   2   23.01    5.82
   5  15   3    6.71    2.83
   5  15   4   12.57    4.60
   5  15   5    6.04    2.98
   5  15   6   42.92    8.46
   5  15   7    7.54    3.41
   5  15   8   35.75    8.23
   5  15   9    2.35    2.13
   5  15  10   48.19    9.66
   5  15  11    3.06    2.64
   5  15  12    5.76    3.37
   5  16 -15    0.03    1.55
   5  16 -14   18.71    6.45
   5  16 -13    3.12    2.40
   5  16 -12    8.19    4.20
   5  16 -11    4.44    3.55
   5  16 -10   29.67    7.52
  -5  16  10   29.65    8.12
  -5  16   9    7.59    4.36
   5  16  -9    4.10    2.31
  -5  16   8   18.87    6.32
   5  16  -8   10.81    4.19
  -5  16   7   10.80    4.30
   5  16  -7    7.34    3.49
  -5  16   6   34.39    7.89
   5  16  -6   30.05    7.23
  -5  16   5   20.66    6.11
   5  16  -5   21.88    5.98
  -5  16   4   10.03    3.87
   5  16  -4    5.66    2.26
  -5  16   3   27.47    6.54
   5  16  -3   23.28    6.16
  -5  16   2   19.35    5.61
   5  16  -2   16.56    4.72
   5  16  -1   66.47   10.26
   5  16   0    5.53    3.25
   5  16   1   37.63    7.63
   5  16   2   15.75    5.19
   5  16   3   18.36    5.43
   5  16   4    5.17    2.92
   5  16   5   14.24    4.86
   5  16   6    3.71    2.70
   5  16   7   22.82    6.40
   5  16   8    7.27    3.95
   5  16   9   11.78    4.72
   5  16  10   -0.44    0.89
   5  17 -12    4.06    3.15
   5  17 -11    8.17    4.34
   5  17 -10    2.49    2.30
   5  17  -9    0.75    1.68
  -5  17   8   13.34    5.39
   5  17  -8    8.70    4.05
  -5  17   7   12.61    4.91
   5  17  -7   12.31    4.89
  -5  17   6    8.92    4.78
   5  17  -6    6.02    2.20
  -5  17   5    1.20    0.74
   5  17  -5    0.86    1.77
  -5  17   4    3.29    2.42
   5  17  -4    3.76    2.69
  -5  17   3   11.97    4.44
   5  17  -3    6.22    2.95
  -5  17   2    4.41    2.65
   5  17  -2    4.09    2.20
  -5  17   1    2.20    0.37
   5  17  -1   -0.56    1.02
   5  17   0    1.28    1.16
   5  17   1    2.59    2.11
   5  17   2    2.55    2.34
   5  17   3    4.76    4.11
   5  17   4    1.31    0.40
   5  17   5    5.80    3.83
   5  17   6   14.76    5.38
   5  17   7   -2.24    2.56
   5  17   8    2.72    2.67
   5  18  -9    9.61    5.43
   5  18  -8    4.86    3.44
   5  18  -7    3.48    2.84
  -5  18   6   17.07    6.22
   5  18  -6   13.36    4.84
  -5  18   5    8.04    4.46
   5  18  -5    7.32    3.77
  -5  18   4    3.11    3.09
   5  18  -4    2.86    1.64
  -5  18   3    7.57    4.19
   5  18  -3    2.76    2.63
  -5  18   2   11.94    4.78
   5  18  -2   16.29    5.56
  -5  18   1   26.26    7.13
   5  18  -1   22.54    6.54
   5  18   0   -0.72    2.58
   5  18   1    3.73    3.07
   5  18   2    4.06    3.03
   5  18   3   16.19    5.59
   5  18   4    2.03    2.42
   5  18   5    3.62    2.73
   5  18   6    3.31    2.84
   5  19  -5    2.94    2.07
   5  19  -4    1.56    1.60
   5  19  -3    2.65    2.21
  -5  19   2    2.66    2.89
   5  19  -2    0.48    0.92
  -5  19   1   -0.85    2.05
   5  19  -1    1.99    1.96
  -5  19   0    1.48    2.13
   5  19   0   -0.35    1.83
   5  19   1    2.05    2.42
   5  19   2    4.93    3.62
   6 -12  -9    2.87    1.75
   6 -12  -8   -0.21    0.75
   6 -12  -7    8.67    2.85
   6 -12  -6    5.80    2.26
   6 -12  -5   10.88    2.65
   6 -12  -4    2.40    1.34
   6 -12  -3   12.75    2.48
   6 -11 -10    9.74    3.30
   6 -11  -9    8.21    2.74
   6 -11  -8    3.63    1.83
   6 -11  -7   19.28    3.82
   6 -11  -6    3.95    1.55
   6 -11  -5    8.03    2.04
   6 -11  -4    2.49    1.02
   6 -11  -3   59.47    5.42
   6 -11  -2    4.93    1.39
   6 -10 -10   17.72    4.23
   6 -10  -9    2.43    1.55
   6 -10  -8   82.31    8.40
   6 -10  -7   24.64    4.10
   6 -10  -6    3.87    1.80
   6 -10  -5   64.01    6.15
   6 -10  -4   12.03    2.78
   6 -10  -3  107.21    7.03
   6 -10  -2   35.77    3.90
   6  -9 -11   36.04    6.46
   6  -9 -10    4.99    2.58
   6  -9  -9   10.11    3.23
   6  -9  -8   90.21    8.68
   6  -9  -7  144.19   10.47
   6  -9  -6   33.23    4.63
   6  -9  -5    4.34    1.64
   6  -9  -4   40.77    4.36
   6  -9  -3   23.99    2.91
   6  -9  -2    3.09    0.84
   6  -9  -1   15.25    1.81
   6  -8 -11   10.13    3.77
   6  -8 -10   73.10    8.82
   6  -8  -9   17.13    3.97
   6  -8  -8  119.12    9.95
   6  -8  -7   17.76    3.91
   6  -8  -6   24.15    4.18
   6  -8  -5    5.44    1.82
   6  -8  -4   69.93    5.72
   6  -8  -3    8.27    1.70
   6  -8  -2   32.90    3.17
   6  -8  -1   42.87    3.00
  -6  -8  -4   14.62    4.27
  -6  -8  -5   80.14    9.67
  -6  -8  -6    5.08    2.51
   6  -7 -12   20.14    4.92
   6  -7 -11   65.64    8.46
   6  -7 -10   12.60    3.68
   6  -7  -9   41.89    6.26
   6  -7  -8   42.94    6.17
   6  -7  -7  120.38    9.60
   6  -7  -6   22.09    3.82
   6  -7  -5   89.28    7.45
   6  -7  -4  123.90    7.73
   6  -7  -3   35.09    3.72
   6  -7  -2    4.30    1.00
   6  -7  -1   20.66    1.84
  -6  -7  -3    4.89    2.56
  -6  -7  -4  146.61   12.60
  -6  -7  -5   37.71    6.56
  -6  -7  -6   22.09    5.00
  -6  -7  -7   32.33    6.22
  -6  -6  22   33.49    8.65
  -6  -6  21   36.39    8.89
  -6  -6  20   46.81    9.64
  -6  -6  19   29.72    7.70
  -6  -6  18   78.16   12.02
  -6  -6  17   38.54    8.04
  -6  -6  16   48.28    8.79
  -6  -6  15   37.13    7.77
  -6  -6  14   29.41    6.65
  -6  -6  13   31.17    6.65
   6  -6 -10   37.73    6.68
   6  -6  -9  112.29   11.02
   6  -6  -4  329.71   12.84
   6  -6  -3   67.86    5.61
   6  -6  -2   39.10    3.65
   6  -6  -1  434.47    9.67
  -6  -6  -3  646.36   25.01
  -6  -6  -4   86.12    9.66
  -6  -6  -5   92.23    9.27
  -6  -6  -6  135.81   12.19
  -6  -6  -7   33.10    5.91
  -6  -6  -8  130.04   11.73
  -6  -6  -9   13.58    4.00
  -6  -5  22    8.98    4.99
  -6  -5  21    2.28    2.60
  -6  -5  20    7.76    3.82
  -6  -5  19   21.55    6.71
  -6  -5  18   33.05    7.88
  -6  -5  17   10.14    4.23
  -6  -5  16    4.85    3.15
  -6  -5  15   63.73    9.93
  -6  -5  14    7.37    3.37
  -6  -5  13   59.85    9.27
  -6  -5  12   76.48   10.00
   6  -5 -11  114.00   12.06
  -6  -5  11  164.28   14.27
   6  -5 -10   91.14   10.24
  -6  -5  10   61.54    8.43
   6  -5  -9   59.67    8.12
   6  -5  -8  234.70   15.50
   6  -5  -7  108.83   10.05
   6  -5  -6  159.08   11.54
   6  -5  -5   32.87    5.04
   6  -5  -4  327.82   14.80
  -6  -5  -3   50.79    6.70
  -6  -5  -4   32.56    5.49
  -6  -5  -5    1.52    1.49
  -6  -5  -6   26.89    4.93
  -6  -5  -7   17.21    4.25
  -6  -5  -8   86.58    9.22
  -6  -5  -9   24.21    5.13
  -6  -5 -10   78.17    9.00
  -6  -4  23   12.19    5.52
  -6  -4  22   23.44    6.75
  -6  -4  21   40.29    9.32
  -6  -4  20   47.31    9.47
  -6  -4  19   60.89   10.61
  -6  -4  18   53.99    9.55
  -6  -4  17   76.69   11.27
  -6  -4  16  189.29   17.14
  -6  -4  15   12.52    4.61
  -6  -4  14   26.53    6.19
  -6  -4  13   52.08    8.49
  -6  -4  12  127.14   12.95
  -6  -4  11   35.98    6.69
   6  -4 -11   39.07    6.80
  -6  -4  10  283.70   18.27
   6  -4 -10  275.67   17.95
   6  -4  -9   16.68    4.43
  -6  -4   9   25.76    5.43
  -6  -4   8  453.37   21.59
   6  -4  -8  473.02   21.87
  -6  -4   7   76.15    8.61
   6  -4  -7   56.99    7.32
   6  -4  -6   32.15    5.18
   6  -4  -5   19.83    3.95
   6  -4  -4  213.07   11.86
   6  -4  -3   75.04    6.62
   6  -4  -2  439.64   15.06
   6  -4  -1  131.00    7.44
   6  -4   1   24.84    1.27
   6  -4   2    1.65    0.43
   6  -4   3   71.26    2.90
  -6  -4  -3  133.01   10.42
  -6  -4  -4  275.12   15.01
  -6  -4  -5  174.88   12.34
  -6  -4  -6   66.88    7.46
  -6  -4  -7  102.57    9.31
  -6  -4  -8  372.60   18.46
  -6  -4  -9   54.06    7.22
  -6  -4 -10   83.34    9.00
  -6  -4 -11   64.29    8.18
   6  -4  14   17.57    2.76
   6  -4  15    2.00    1.43
   6  -4  16   50.10    5.75
   6  -4  17   10.13    2.85
   6  -4  18    4.24    2.29
   6  -4  19    5.33    2.09
  -6  -3  23    0.38    1.16
  -6  -3  22    5.40    2.98
  -6  -3  21    9.87    4.49
  -6  -3  20    9.05    4.87
  -6  -3  19    9.55    4.24
  -6  -3  18    3.51    2.66
  -6  -3  17   35.47    7.87
  -6  -3  16    1.05    1.72
  -6  -3  15   27.12    6.24
  -6  -3  14   41.93    7.76
  -6  -3  13   83.29   10.57
  -6  -3  12   63.35    8.84
   6  -3 -12   75.52    9.88
  -6  -3  11  138.82   12.56
   6  -3 -11   97.02   11.08
  -6  -3  10   39.59    6.79
   6  -3 -10   54.82    7.78
  -6  -3   9  173.25   13.23
   6  -3  -9  131.33   11.62
  -6  -3   8  233.97   15.30
   6  -3  -8  289.92   16.54
  -6  -3   7  205.46   13.88
   6  -3  -7  150.34   11.42
  -6  -3   6   11.76    3.29
   6  -3  -6   12.40    3.41
  -6  -3   5   58.77    6.63
   6  -3  -5   54.13    6.23
   6  -3  -4  526.09   18.24
   6  -3  -3   20.88    3.64
   6  -3  -2   77.15    6.26
   6  -3  -1  161.80    8.24
   6  -3   0   92.04    5.54
   6  -3   1  145.25    5.84
   6  -3   1  139.42    5.92
   6  -3   2   24.92    2.17
   6  -3   3   15.45    1.71
  -6  -3  -3   21.50    3.92
   6  -3   4   34.61    2.88
  -6  -3  -4   45.76    5.68
   6  -3   5   55.41    3.99
  -6  -3  -5   61.25    6.91
  -6  -3  -6   48.43    6.09
  -6  -3  -7   62.04    6.99
  -6  -3  -8   26.39    4.72
  -6  -3  -9   31.36    5.31
  -6  -3 -10   86.24    8.95
   6  -3  10   15.86    1.38
  -6  -3 -11   62.17    7.75
   6  -3  11   47.39    3.58
  -6  -3 -12    6.87    2.74
   6  -3  12    2.58    1.11
   6  -3  13   34.69    3.74
   6  -3  14   17.26    3.13
   6  -3  15   11.69    2.68
   6  -3  16    4.22    1.77
   6  -3  17   56.30    6.71
   6  -3  18   11.28    3.21
   6  -3  19   28.99    4.98
   6  -3  20    2.79    1.99
  -6  -2  23   36.47    9.14
  -6  -2  22   12.64    5.29
  -6  -2  21  100.98   14.34
  -6  -2  20   12.89    4.92
  -6  -2  19   60.76   10.60
  -6  -2  18   20.60    6.05
  -6  -2  17   97.67   12.98
  -6  -2  16    4.69    2.95
  -6  -2  15   31.39    6.67
  -6  -2  14   28.23    6.19
  -6  -2  13   59.64    8.73
  -6  -2  12  194.33   15.41
   6  -2 -12  179.79   15.49
  -6  -2  11   36.10    6.41
   6  -2 -11   46.66    7.52
  -6  -2  10   57.61    7.82
   6  -2 -10   67.34    8.60
  -6  -2   9   41.66    6.61
   6  -2  -9   23.90    4.76
  -6  -2   8  523.03   22.46
   6  -2  -8  569.16   22.98
  -6  -2   7   88.13    8.80
   6  -2  -7   77.01    8.13
  -6  -2   6  266.94   14.53
   6  -2  -6  278.01   14.66
  -6  -2   5  275.20   14.69
   6  -2  -5  200.01   11.75
  -6  -2   4  699.77   22.49
   6  -2  -4  751.16   21.47
  -6  -2   3  300.88   13.69
   6  -2  -3  226.08   11.14
   6  -2  -2  551.79   16.02
   6  -2  -1  114.99    6.80
   6  -2   0 1018.84   18.31
   6  -2   1  140.64    6.71
   6  -2   1  161.27    6.54
   6  -2   2  528.33   12.20
   6  -2   2  550.40    9.80
  -6  -2  -3   96.79    8.02
   6  -2   3   66.09    4.34
   6  -2   4  817.07   15.98
  -6  -2  -4  858.81   22.96
   6  -2   5   40.80    3.95
  -6  -2  -5   49.29    5.81
   6  -2   6  198.00    9.26
  -6  -2  -6  205.99   11.75
   6  -2   7    9.02    2.19
  -6  -2  -7   13.56    3.17
   6  -2   8   58.28    2.51
  -6  -2  -8  149.92   10.50
   6  -2   9   63.24    3.58
  -6  -2  -9   67.04    7.41
   6  -2  10    6.37    1.27
  -6  -2 -10    5.99    2.33
   6  -2  11    2.97    0.76
  -6  -2 -11    8.29    2.76
   6  -2  12    4.80    1.62
  -6  -2 -12   18.37    4.18
  -6  -2 -13   44.98    6.98
   6  -2  13   56.45    5.22
   6  -2  14   11.48    2.42
   6  -2  15   19.90    3.84
   6  -2  16    2.20    1.38
   6  -2  17   27.91    4.63
   6  -2  18    0.69    0.33
   6  -2  19   11.94    3.20
   6  -2  20    3.44    1.99
  -6  -1  23    6.58    3.74
  -6  -1  22    3.89    2.89
  -6  -1  21   10.68    4.95
  -6  -1  20    6.79    3.85
  -6  -1  19    3.39    2.59
  -6  -1  18    2.11    1.55
  -6  -1  17    7.88    3.50
  -6  -1  16    3.78    2.24
  -6  -1  15   91.85   11.33
  -6  -1  14   10.12    3.86
  -6  -1  13   36.21    6.95
  -6  -1  12  102.83   10.85
   6  -1 -12   98.99   11.00
  -6  -1  11   33.43    6.08
   6  -1 -11   55.03    8.08
  -6  -1  10   77.63    8.88
   6  -1 -10  101.99   10.27
  -6  -1   9   44.16    6.53
   6  -1  -9   39.48    6.50
  -6  -1   8  210.46   13.51
   6  -1  -8  173.73   12.62
  -6  -1   7  215.95   13.70
   6  -1  -7  328.81   16.66
  -6  -1   6    9.14    3.01
   6  -1  -6    7.89    2.65
  -6  -1   5   72.04    7.26
   6  -1  -5   96.86    8.03
  -6  -1   4  253.44   12.65
   6  -1  -4  227.31   11.80
  -6  -1   3   57.01    5.81
   6  -1  -3   40.12    4.77
  -6  -1   2   82.83    6.65
   6  -1  -2   76.88    6.15
   6  -1  -1    8.12    1.81
   6  -1   0  289.61   10.01
   6  -1   1   14.23    1.90
   6  -1   1   20.71    2.83
   6  -1   2    8.03    1.36
   6  -1   2    7.55    1.66
   6  -1   3    9.31    1.11
  -6  -1  -3   43.26    4.99
   6  -1   3   31.26    3.41
   6  -1   4   34.25    3.53
   6  -1   4   14.68    1.07
  -6  -1  -4   34.68    4.46
   6  -1   5   63.02    5.13
  -6  -1  -5   81.96    6.78
  -6  -1  -6  206.02   11.07
   6  -1   6  197.42    9.71
  -6  -1  -7   51.04    5.74
   6  -1   7   49.88    5.47
   6  -1   7   15.46    1.65
  -6  -1  -8   30.53    4.52
   6  -1   8   24.40    3.81
   6  -1   8   10.17    1.41
  -6  -1  -9   59.77    6.51
   6  -1   9   28.12    2.78
  -6  -1 -10  100.44    8.80
   6  -1  10   67.21    4.82
  -6  -1 -11   15.62    3.70
   6  -1  11    4.84    1.38
  -6  -1 -12   17.53    3.98
   6  -1  12    6.61    1.82
  -6  -1 -13   79.06    8.86
   6  -1  13   98.96    7.56
  -6  -1 -14   52.83    7.47
   6  -1  14   17.67    3.49
   6  -1  15   25.18    4.15
   6  -1  16    4.39    1.86
   6  -1  17   23.94    4.20
   6  -1  18    6.30    2.19
   6  -1  19   20.98    4.51
   6  -1  20    3.21    2.03
   6  -1  21   96.94   10.56
  -6   0  23   26.42    7.57
  -6   0  22    5.23    3.43
  -6   0  21  105.10   14.42
  -6   0  20   16.37    5.47
  -6   0  19   67.32   11.13
  -6   0  18    2.89    2.27
  -6   0  17   51.83    9.31
  -6   0  16   31.80    6.95
  -6   0  15   27.27    6.18
  -6   0  14   23.82    5.73
  -6   0  13    7.96    3.22
  -6   0  12  446.20   23.12
   6   0 -12  459.95   24.06
  -6   0  11   17.56    4.77
   6   0 -11   16.59    4.64
  -6   0  10  166.42   13.16
   6   0 -10  164.07   13.16
  -6   0   9    6.23    2.43
   6   0  -9    5.91    2.36
  -6   0   8  427.92   19.67
   6   0  -8  417.84   19.34
  -6   0   7   40.33    6.15
   6   0  -7   35.94    5.99
  -6   0   6  120.29    9.49
   6   0  -6  118.77    9.40
  -6   0   5    5.61    2.15
   6   0  -5    4.73    2.03
   6   0  -4 1039.96   25.49
  -6   0   4 1046.49   25.12
  -6   0   3   28.57    4.04
   6   0  -3   28.76    4.17
  -6   0   2  409.07   14.23
   6   0  -2  419.64   14.67
  -6   0   1    1.02    0.65
   6   0  -1    0.92    0.78
   6   0   0   41.01    4.07
   6   0   1   10.13    1.83
   6   0   1   10.69    2.31
   6   0   2  667.72   14.38
   6   0   2  605.93   16.29
   6   0   3   38.90    3.30
  -6   0  -3   37.96    4.39
   6   0   3   32.86    3.75
  -6   0  -4 1222.68   24.13
   6   0   4 1130.59   22.10
  -6   0  -5   60.95    5.57
   6   0   5   51.80    4.91
  -6   0  -6  393.05   14.49
   6   0   6  387.12   14.11
  -6   0  -7   43.23    5.03
   6   0   7   44.06    5.13
   6   0   7   10.18    1.50
  -6   0  -8    7.80    2.30
   6   0   8    8.13    2.60
   6   0   8    3.59    1.19
  -6   0  -9   10.78    2.66
   6   0   9   11.66    2.87
   6   0   9    5.15    1.34
   6   0  10  192.39   12.42
  -6   0 -10  198.60   12.23
   6   0  10  148.33    7.94
  -6   0 -11   36.67    5.40
   6   0  11   21.83    3.23
  -6   0 -12  142.53   11.14
   6   0  12  114.70    7.99
  -6   0 -13  152.82   11.89
   6   0  13  156.20   10.01
  -6   0 -14   10.85    3.33
   6   0  14    8.80    2.55
   6   0  15   40.02    5.46
   6   0  16    0.20    0.53
   6   0  17   34.92    5.68
   6   0  18   11.17    3.33
   6   0  19    3.59    1.80
   6   0  20   -0.63    1.20
   6   0  21   17.90    4.60
   6   0  22    8.00    3.39
  -6   1  23    4.13    3.32
  -6   1  22    2.02    2.23
  -6   1  21   16.16    5.51
  -6   1  20    5.06    2.82
  -6   1  19    3.52    2.62
  -6   1  18    2.78    2.15
  -6   1  17    9.03    3.95
  -6   1  16    2.99    2.05
  -6   1  15   74.45   10.36
  -6   1  14   16.25    4.72
  -6   1  13   51.00    8.04
  -6   1  12   91.99   10.29
   6   1 -12   95.79   10.56
  -6   1  11   53.22    7.53
   6   1 -11   40.47    6.74
  -6   1  10   99.94    9.92
   6   1 -10   82.81    9.59
  -6   1   9   40.82    6.22
   6   1  -9   42.67    6.44
  -6   1   8  163.52   11.77
   6   1  -8  216.88   14.09
   6   1  -7  220.06   13.70
  -6   1   7  307.50   15.65
  -6   1   6   10.97    3.20
   6   1  -6    7.27    2.67
   6   1  -5   73.70    7.37
  -6   1   5   96.23    7.97
  -6   1   4  234.22   11.97
   6   1  -4  254.84   12.76
   6   1  -3   55.00    5.69
  -6   1   3   42.11    4.93
   6   1  -2   76.57    6.42
  -6   1   2   76.26    5.89
   6   1  -1    4.91    1.53
  -6   1   1    7.04    1.60
  -6   1   0  293.96    9.92
   6   1   0  286.39   11.52
   6   1   0  273.77   12.44
  -6   1  -1   17.50    2.13
   6   1   1   28.46    3.39
   6   1   1   24.58    3.45
   6   1   2   10.52    2.00
   6   1   2   10.66    2.36
   6   1   3   40.86    4.50
  -6   1  -4   40.37    4.12
   6   1   4   30.80    3.94
  -6   1  -5   68.52    5.51
   6   1   5   75.13    6.36
  -6   1  -6  193.96    9.65
   6   1   6  203.56   10.81
  -6   1  -7   38.58    4.40
   6   1   7   46.89    5.50
  -6   1  -8   20.27    3.32
   6   1   8   31.38    4.69
   6   1   8   32.92    3.73
  -6   1  -9   45.52    5.29
   6   1   9   61.69    7.19
   6   1   9   63.67    5.36
   6   1  10   98.77    9.06
  -6   1 -10   99.30    8.11
   6   1  10   93.11    7.09
  -6   1 -11   12.29    3.12
   6   1  11   15.87    3.79
   6   1  11   14.18    2.80
  -6   1 -12   16.16    3.54
   6   1  12   12.32    2.73
  -6   1 -13   92.18    8.98
   6   1  13   73.50    7.19
  -6   1 -14   41.61    6.32
   6   1  14   53.04    6.39
  -6   1 -15   28.51    5.49
   6   1  15   13.30    3.25
   6   1  16    5.56    2.28
   6   1  17   38.12    6.09
   6   1  18    5.00    2.36
   6   1  19    9.11    3.55
   6   1  20    5.82    2.95
   6   1  21   61.80    9.01
   6   1  22    4.14    2.64
  -6   2  23   34.09    8.96
  -6   2  22    6.87    4.13
  -6   2  21  104.10   14.59
  -6   2  20   12.62    5.11
  -6   2  19   78.21   11.83
  -6   2  18   25.92    6.45
  -6   2  17  136.03   15.10
  -6   2  16    4.37    2.45
  -6   2  15   28.63    6.56
  -6   2  14   37.03    6.96
  -6   2  13   48.45    8.05
  -6   2  12  171.50   14.40
   6   2 -12  207.86   16.49
  -6   2  11   47.88    7.26
   6   2 -11   33.87    6.17
  -6   2  10   64.81    8.27
   6   2 -10   62.99    8.30
  -6   2   9   24.50    4.97
   6   2  -9   42.23    6.61
   6   2  -8  513.18   22.24
  -6   2   8  550.78   22.20
   6   2  -7   91.09    9.20
  -6   2   7   83.42    8.25
   6   2  -6  264.69   14.55
  -6   2   6  282.91   14.61
  -6   2   5  202.24   11.87
   6   2  -5  271.76   14.49
  -6   2   4  782.68   21.91
   6   2  -4  665.59   21.56
  -6   2   3  239.63   11.54
   6   2  -3  305.51   13.89
   6   2  -2  489.92   17.26
  -6   2   2  547.42   15.68
   6   2  -1  155.70    9.19
  -6   2   1  117.52    6.88
  -6   2   0 1058.05   18.51
   6   2   0 1007.62   23.17
   6   2   0  984.18   25.27
  -6   2  -1  174.46    6.61
   6   2   1  109.94    7.41
   6   2   1  113.05    8.21
  -6   2  -2  433.86    8.52
   6   2   2  536.62   17.59
   6   2   3   90.99    7.32
  -6   2  -4  938.42   18.44
   6   2   4  807.75   21.57
  -6   2  -5   40.74    3.96
   6   2   5   42.65    5.08
  -6   2  -6  194.53    8.98
   6   2   6  186.30   10.85
  -6   2  -7   16.21    2.83
   6   2   7   13.27    3.10
  -6   2  -8  130.65    8.04
   6   2   8  160.97   11.25
  -6   2  -9   65.23    6.00
   6   2   9   63.78    7.23
   6   2   9   68.18    6.15
  -6   2 -10   11.76    2.82
   6   2  10    7.84    2.84
   6   2  10    8.71    2.44
  -6   2 -11    7.35    2.24
   6   2  11    7.80    2.40
   6   2  11    7.21    2.63
  -6   2 -12   12.86    3.18
   6   2  12   17.03    4.26
   6   2  12   16.18    3.48
  -6   2 -13   63.50    7.30
   6   2  13   42.56    6.01
  -6   2 -14   10.96    3.18
   6   2  14    7.18    2.69
  -6   2 -15   17.57    4.16
   6   2  15   22.35    4.51
   6   2  16    2.70    1.59
   6   2  17   19.07    4.44
   6   2  18    1.56    1.48
   6   2  19   15.98    4.37
   6   2  20    3.98    2.36
   6   2  21   32.90    6.78
   6   2  22    1.11    2.10
   6   2  23    9.00    3.49
  -6   3  22    7.16    4.16
  -6   3  21    8.42    4.11
  -6   3  20   15.62    5.30
  -6   3  19   20.87    6.30
  -6   3  18    5.33    3.16
  -6   3  17   23.88    6.41
  -6   3  16   -1.39    1.71
  -6   3  15   19.07    5.24
  -6   3  14   63.62    9.29
  -6   3  13   65.74    9.46
  -6   3  12   72.58    9.25
   6   3 -11  144.78   13.09
  -6   3  11  102.39   11.14
   6   3 -10   40.45    6.90
  -6   3  10   55.57    7.74
   6   3  -9  194.51   14.41
  -6   3   9  126.04   11.21
   6   3  -8  226.75   14.68
  -6   3   8  277.67   15.69
   6   3  -7  197.17   13.51
  -6   3   7  144.52   10.82
   6   3  -6   13.38    3.53
  -6   3   6   13.14    3.23
   6   3  -5   61.36    6.93
  -6   3   5   52.32    5.94
   6   3  -4  512.77   19.72
  -6   3   4  515.69   17.67
   6   3  -3   18.77    3.86
  -6   3   3   25.97    3.84
   6   3  -2   91.00    7.64
  -6   3   2   78.75    6.00
   6   3  -1  142.84    9.67
  -6   3   1  184.20    8.65
   6   3   0   98.17    7.62
  -6   3   0  106.62    5.87
   6   3   0  100.40    8.45
  -6   3  -1  175.74    6.76
   6   3   1  165.80   10.79
  -6   3  -2   12.57    1.45
   6   3   2   44.41    5.49
   6   3   3   20.49    3.60
   6   3   4   42.04    5.23
  -6   3  -5   56.65    4.31
   6   3   5   54.05    6.09
  -6   3  -6   52.87    4.25
   6   3   6   45.45    5.53
  -6   3  -7   79.51    5.60
   6   3   7   60.36    6.72
  -6   3  -8   19.96    3.01
   6   3   8   23.30    4.25
  -6   3  -9   38.24    4.44
   6   3   9   31.66    5.34
  -6   3 -10   59.67    5.78
   6   3  10   87.69    9.21
   6   3  10   84.05    7.58
   6   3  11   64.70    8.37
  -6   3 -11   67.92    6.64
   6   3  11   65.75    7.05
   6   3  12    7.11    2.93
  -6   3 -12    3.84    1.83
   6   3  12    9.29    2.86
  -6   3 -13   60.13    6.99
   6   3  13   87.21    8.88
  -6   3 -14   33.34    5.50
   6   3  14   69.63    8.18
  -6   3 -15    8.87    2.93
   6   3  15   14.60    3.85
  -6   3 -16    4.53    2.23
   6   3  16    3.13    1.93
   6   3  17  101.60   10.79
   6   3  18   35.26    6.48
   6   3  19   16.76    4.46
   6   3  20   10.14    3.80
   6   3  21   20.35    5.52
   6   3  22    4.62    2.79
   6   3  23    1.67    0.88
  -6   4  22   11.76    5.68
  -6   4  21   72.58   12.59
  -6   4  20   39.94    9.28
  -6   4  19   68.76   11.64
  -6   4  18   43.65    8.89
  -6   4  17  136.30   15.20
  -6   4  16  127.01   14.44
  -6   4  15   19.95    5.29
  -6   4  14   23.50    5.85
  -6   4  13   61.46    8.94
  -6   4  12  117.60   11.89
   6   4 -11   32.98    6.36
  -6   4  11   42.63    7.12
   6   4 -10  274.62   17.59
  -6   4  10  281.30   18.08
   6   4  -9   27.36    5.50
  -6   4   9   18.89    4.52
   6   4  -8  461.50   21.90
  -6   4   8  441.67   20.35
   6   4  -7   76.99    8.61
  -6   4   7   62.12    7.54
   6   4  -6   28.93    5.01
  -6   4   6   29.20    4.83
   6   4  -5   29.20    5.04
  -6   4   5   22.06    4.02
   6   4  -4  165.42   11.67
  -6   4   4  213.51   11.60
   6   4  -3   88.16    8.24
  -6   4   3   76.56    6.65
   6   4  -2  374.46   16.96
  -6   4   2  466.41   15.38
   6   4  -1  196.95   12.65
   6   4  -1  197.29   11.75
  -6   4   1  130.29    7.65
   6   4   0  587.18   21.44
  -6   4   0  675.40   15.65
   6   4   1  173.74   11.88
  -6   4  -1  114.93    5.93
   6   4   2  615.03   20.97
  -6   4  -2  646.50   11.94
  -6   4  -3   58.30    2.66
   6   4   3  120.02    9.31
   6   4   4  242.23   13.17
  -6   4  -5  115.59    5.09
   6   4   5  149.42   10.44
  -6   4  -6   75.92    4.47
   6   4   6   61.36    6.84
  -6   4  -7   91.96    5.52
   6   4   7   95.50    8.77
  -6   4  -8  408.38   12.75
   6   4   8  350.17   17.37
  -6   4  -9   47.93    4.74
   6   4   9   52.62    7.27
   6   4  10   87.32    9.42
  -6   4 -10   88.12    6.87
   6   4  11   64.92    7.36
   6   4  11   69.78    9.05
  -6   4 -11   40.89    5.00
   6   4  12   82.82    9.81
  -6   4 -12   88.19    7.77
   6   4  12   77.74    8.43
   6   4  13   59.63    8.67
  -6   4 -13   48.84    6.11
   6   4  13   56.95    7.53
  -6   4 -14   20.53    4.16
   6   4  14   13.88    3.93
  -6   4 -15   10.25    3.19
   6   4  15   19.25    4.63
  -6   4 -16   35.80    6.09
   6   4  16   19.89    4.89
   6   4  17    6.13    2.75
   6   4  18    8.40    3.21
   6   4  19    0.22    0.82
   6   4  20   15.77    4.85
   6   4  21   26.00    6.35
   6   4  22   11.86    4.02
   6   4  23    4.95    3.14
  -6   5  22   13.90    5.78
  -6   5  21   -1.94    1.07
  -6   5  20    7.95    4.34
  -6   5  19   14.20    5.51
  -6   5  18   27.10    7.04
  -6   5  17   14.45    4.81
  -6   5  16    5.02    2.85
  -6   5  15   40.62    7.74
  -6   5  14   13.61    4.38
  -6   5  13   53.70    8.73
  -6   5  12   85.67   10.40
  -6   5  11  119.40   12.14
   6   5 -10   65.65    8.66
  -6   5  10   89.78    9.98
   6   5  -9   77.91    9.53
  -6   5   9   59.71    7.99
   6   5  -8  187.50   13.95
  -6   5   8  228.28   15.03
   6   5  -7  151.61   12.35
  -6   5   7  118.69   10.47
   6   5  -6  130.20   11.19
  -6   5   6  165.89   11.91
   6   5  -5   32.22    5.54
  -6   5   5   37.74    5.47
   6   5  -4  308.75   16.44
  -6   5   4  347.73   15.59
   6   5  -3   37.14    5.91
  -6   5   3   42.30    5.25
   6   5  -2   66.46    7.17
  -6   5   2   94.35    7.26
   6   5  -1   98.89    9.29
  -6   5   1   83.17    6.43
   6   5   0  162.44   11.34
  -6   5   0  206.70    9.46
   6   5   1    9.98    2.78
  -6   5  -1   14.57    2.42
   6   5   2   11.71    3.12
  -6   5  -2   11.13    1.85
   6   5   3   40.08    5.59
  -6   5  -3   39.09    3.04
   6   5   4   33.03    5.22
  -6   5  -4   16.08    1.38
   6   5   5    1.71    1.12
  -6   5  -6    8.99    1.45
   6   5   6   22.74    4.40
  -6   5  -7   22.37    2.44
   6   5   7   18.27    4.01
   6   5   8   80.85    8.61
  -6   5  -8   71.71    4.78
   6   5   9   27.59    5.41
  -6   5  -9   20.95    2.85
  -6   5  -9    7.12    1.05
  -6   5 -10   48.83    5.01
  -6   5 -10   29.06    2.43
  -6   5 -11   17.75    3.05
   6   5  11   30.84    6.05
   6   5  11   25.89    4.83
  -6   5 -11   18.69    2.17
   6   5  12   16.35    4.12
  -6   5 -12   24.44    4.08
   6   5  12   20.02    5.06
  -6   5 -12   20.21    2.60
  -6   5 -13   65.64    6.93
   6   5  13   51.87    8.25
  -6   5 -13   50.86    4.51
   6   5  13   51.57    7.64
  -6   5 -14   24.30    4.45
   6   5  14   47.46    8.10
   6   5  14   45.67    7.15
  -6   5 -14   21.33    2.91
  -6   5 -15   81.82    8.67
  -6   5 -15   97.10    7.24
   6   5  15   56.29    8.45
  -6   5 -16   16.95    4.14
  -6   5 -16   17.73    3.22
   6   5  16   12.17    3.94
  -6   5 -17   60.63    8.40
   6   5  17   45.32    7.83
   6   5  18    5.94    3.08
   6   5  19   30.40    6.79
   6   5  20   17.35    5.17
   6   5  21   33.61    7.41
   6   5  22    0.89    0.92
   6   5  23    6.46    3.42
   6   5  24    0.86    0.78
  -6   6  21   43.88   10.13
  -6   6  20   32.86    8.99
  -6   6  19   50.40    9.81
  -6   6  18   54.23   10.34
  -6   6  17   30.42    7.41
  -6   6  16   39.45    8.48
  -6   6  15   31.96    7.08
  -6   6  14   28.90    6.71
  -6   6  13   30.50    6.48
  -6   6  12   36.38    6.74
  -6   6  11   34.20    6.59
  -6   6  10   46.23    7.54
   6   6  -9  109.45   11.26
  -6   6   9  115.41   11.35
   6   6  -8  111.82   11.09
  -6   6   8  141.14   12.44
   6   6  -7   58.37    7.92
  -6   6   7   52.64    7.14
   6   6  -6  158.63   12.98
  -6   6   6  169.15   12.44
   6   6  -5  103.93   10.17
  -6   6   5   79.11    8.15
   6   6  -4  309.05   17.44
  -6   6   4  349.16   16.30
   6   6  -3   65.86    7.90
  -6   6   3   97.99    8.57
   6   6  -2   48.76    7.03
  -6   6   2   50.92    5.78
   6   6  -1  801.86   27.36
  -6   6   1  675.87   19.85
   6   6   0 3490.11   58.13
  -6   6   0 3799.74   44.78
   6   6   1  346.69   17.40
  -6   6  -1  251.00   10.30
   6   6   2   48.89    6.47
  -6   6  -2   58.02    4.85
   6   6   3  557.88   21.61
  -6   6  -3  529.00   12.76
   6   6   4   71.24    7.90
  -6   6  -4  106.49    5.41
  -6   6  -5   88.71    4.44
   6   6   5   89.08    8.75
   6   6   6  114.67   10.25
  -6   6  -6  126.01    5.03
   6   6   7   31.51    5.47
  -6   6  -7   37.81    2.47
  -6   6  -7   36.32    2.51
  -6   6  -8   85.17    4.75
   6   6   8  127.31   11.32
  -6   6  -8  108.47    4.34
  -6   6  -9    7.93    1.76
   6   6   9   13.30    3.79
  -6   6  -9   10.30    1.40
  -6   6 -10   60.08    5.12
   6   6  10   73.88    9.21
  -6   6 -10   55.79    3.62
  -6   6 -11   13.42    2.68
   6   6  11   11.07    3.49
  -6   6 -11   10.14    1.57
   6   6  12    6.14    2.33
  -6   6 -12    7.54    2.07
   6   6  12    8.89    3.57
  -6   6 -12    7.85    1.66
   6   6  13   12.03    3.71
  -6   6 -13   14.10    3.09
   6   6  13   17.95    5.07
  -6   6 -13   12.86    2.07
  -6   6 -14    1.24    1.04
   6   6  14    2.04    2.07
  -6   6 -14    2.30    1.15
   6   6  14    2.47    1.95
  -6   6 -15   -0.42    0.82
   6   6  15    1.99    1.80
  -6   6 -15    0.36    0.21
  -6   6 -16    3.40    2.05
  -6   6 -16    3.82    1.63
   6   6  16    5.68    2.66
  -6   6 -17   17.32    4.40
   6   6  17   15.88    4.74
   6   6  18    3.96    2.55
   6   6  19    8.32    3.77
   6   6  20   13.18    4.58
   6   6  21   13.57    5.17
   6   6  22    4.39    2.87
   6   6  23    2.34    1.79
   6   6  24    7.01    4.37
  -6   7  21    9.11    4.74
  -6   7  20    3.91    2.89
  -6   7  19   16.71    5.93
  -6   7  18    7.63    3.70
  -6   7  17    1.64    0.55
  -6   7  16   24.87    6.64
  -6   7  15   41.62    8.15
  -6   7  14   16.13    5.03
  -6   7  13   27.01    6.28
  -6   7  12   29.35    6.60
  -6   7  11   76.90   10.26
  -6   7  10   18.94    4.91
  -6   7   9   52.86    7.92
   6   7  -8   35.33    6.39
  -6   7   8   45.80    7.09
   6   7  -7  124.24   12.20
  -6   7   7  122.26   11.29
   6   7  -6   24.82    5.15
  -6   7   6   23.62    4.73
   6   7  -5   81.78    9.51
  -6   7   5   96.47    9.46
   6   7  -4  125.02   11.47
  -6   7   4  138.32   11.05
   6   7  -3   29.56    5.61
   6   7  -3   27.74    5.23
  -6   7   3   37.96    5.51
   6   7  -2    3.35    1.91
  -6   7   2    5.55    1.84
   6   7  -1   28.86    5.08
  -6   7   1   36.01    4.77
   6   7   0   95.94    9.91
  -6   7   0   85.20    7.19
   6   7   1   20.09    4.37
  -6   7  -1   23.70    3.37
   6   7   2   48.48    6.80
  -6   7  -2   44.95    4.45
  -6   7  -3   10.56    2.19
   6   7   3    3.34    1.81
   6   7   4  122.05   10.68
   6   7   5   32.11    5.47
   6   7   6   21.46    4.63
  -6   7  -6   27.20    2.89
   6   7   7   27.62    5.36
  -6   7  -7   26.41    2.63
   6   7   8   46.15    7.01
  -6   7  -8   34.30    2.46
  -6   7  -8   53.33    3.99
   6   7   9   37.87    6.52
  -6   7  -9   50.75    3.89
  -6   7  -9   62.17    4.38
  -6   7 -10   23.95    2.92
   6   7  10   24.68    5.64
  -6   7 -10   27.87    2.80
  -6   7 -11   72.16    5.85
   6   7  11   49.55    8.21
  -6   7 -11   85.97    5.59
  -6   7 -12    4.63    1.53
   6   7  12    4.04    2.62
   6   7  12    3.54    1.96
  -6   7 -12    5.33    1.46
   6   7  13   14.05    4.43
   6   7  13   14.36    4.61
  -6   7 -13   16.31    3.26
  -6   7 -13   18.69    3.00
   6   7  14   34.33    7.19
  -6   7 -14   13.37    3.59
  -6   7 -14   12.85    2.51
   6   7  14   34.92    6.63
   6   7  15   29.87    7.39
  -6   7 -15   33.85    5.39
  -6   7 -15   38.73    4.46
   6   7  15   24.13    6.33
   6   7  16    4.37    2.40
  -6   7 -16    2.51    1.57
   6   7  17   38.34    7.74
   6   7  18   10.97    4.45
   6   7  19    9.97    4.20
   6   7  20    3.53    2.12
   6   7  21   10.12    4.49
   6   7  22    3.62    2.99
   6   7  23    3.73    2.81
   6   7  24    0.10    1.45
  -6   8  20   26.31    7.81
  -6   8  19   21.05    6.67
  -6   8  18   40.51    9.12
  -6   8  17    2.55    2.94
  -6   8  16   33.93    7.49
  -6   8  15   16.85    5.22
  -6   8  14   22.46    6.37
  -6   8  13    5.86    2.77
  -6   8  12   16.30    4.74
  -6   8  11   12.72    4.15
  -6   8  10   73.51    9.88
  -6   8   9   19.42    4.84
  -6   8   8  131.62   12.48
  -6   8   7   21.83    5.30
   6   8  -6   18.76    4.74
  -6   8   6   28.11    5.59
   6   8  -5    8.52    3.19
  -6   8   5    7.62    2.97
   6   8  -4   66.98    8.50
  -6   8   4   83.87    8.85
   6   8  -3   12.27    3.71
  -6   8   3   14.09    3.55
   6   8  -2   28.12    5.59
  -6   8   2   47.80    6.43
   6   8  -1   77.19    9.40
  -6   8   1   58.63    6.36
   6   8   0   57.36    7.53
  -6   8   0   93.96    7.97
  -6   8  -1   45.64    5.20
   6   8   1   59.48    7.80
  -6   8  -2   63.11    5.83
   6   8   2   44.18    6.57
   6   8   3  140.78   11.85
   6   8   4   11.68    3.32
   6   8   5   72.87    8.84
   6   8   6    3.75    1.80
   6   8   7   92.88   10.15
  -6   8  -7   82.44    5.83
  -6   8  -8   55.92    2.66
   6   8   8   71.49    9.10
  -6   8  -8  102.92    6.35
   6   8   9   55.52    8.06
  -6   8  -9   44.59    3.32
  -6   8  -9   52.30    4.56
  -6   8 -10    0.86    0.65
   6   8  10    3.67    2.17
  -6   8 -10    0.99    0.44
   6   8  11    5.06    2.64
  -6   8 -11    2.71    1.16
  -6   8 -11    3.98    1.32
   6   8  12   25.84    6.23
  -6   8 -12   22.41    3.43
  -6   8 -12   28.59    3.55
   6   8  13    5.52    2.67
  -6   8 -13    9.33    2.50
   6   8  13    8.30    3.65
  -6   8 -13    9.76    2.01
   6   8  14   11.93    4.08
   6   8  14   12.55    4.82
  -6   8 -14   14.79    3.38
  -6   8 -14    8.52    2.16
   6   8  15   14.32    4.93
   6   8  15   12.64    4.44
   6   8  16   31.97    7.17
   6   8  17    9.48    4.04
   6   8  18    3.46    2.47
   6   8  19    5.61    3.30
   6   8  20    8.21    4.18
   6   8  21    9.44    4.25
   6   8  22    3.27    3.18
   6   8  23    6.97    4.53
  -6   9  19   13.19    5.26
  -6   9  18    9.57    4.86
  -6   9  17    5.42    3.38
  -6   9  16    5.80    3.60
  -6   9  15   16.50    5.50
  -6   9  14   -0.72    1.37
  -6   9  13    2.39    2.36
  -6   9  12    4.56    2.82
  -6   9  11   31.00    6.63
  -6   9  10    4.32    2.55
  -6   9   9   15.00    4.55
  -6   9   8  109.08   12.01
  -6   9   7  158.28   14.04
  -6   9   6   41.18    6.88
  -6   9   5    7.32    3.04
   6   9  -4   46.52    7.78
  -6   9   4   46.05    6.76
   6   9  -3   24.35    5.34
  -6   9   3   32.50    5.49
   6   9  -2    5.21    2.46
  -6   9   2    3.44    1.58
   6   9  -1   13.56    3.93
  -6   9   1   19.47    3.97
  -6   9   0   41.42    5.52
   6   9   0   39.21    6.65
  -6   9  -1    2.20    1.38
   6   9   1    0.94    0.81
   6   9   2    5.41    2.42
   6   9   3    3.65    2.04
   6   9   4    2.38    1.80
   6   9   5   23.29    5.10
   6   9   6    2.11    1.38
  -6   9  -7   12.46    2.55
   6   9   7    9.30    3.51
   6   9   8   31.86    6.23
  -6   9  -8   28.09    3.61
  -6   9  -9    6.43    0.93
   6   9   9   16.47    4.51
  -6   9  -9   14.44    2.50
  -6   9 -10   10.25    1.66
   6   9  10   18.19    5.07
  -6   9 -10   15.21    2.75
   6   9  11    6.12    3.05
  -6   9 -11    2.50    0.95
  -6   9 -11    4.76    1.29
   6   9  12   -0.16    1.47
  -6   9 -12    1.12    0.64
  -6   9 -12    3.43    1.52
   6   9  13   18.67    5.20
   6   9  13   21.22    5.93
  -6   9 -13   25.01    3.93
  -6   9 -13   24.12    3.65
   6   9  14    8.70    3.51
   6   9  14    9.49    4.11
   6   9  15   12.19    4.51
   6   9  15   16.79    5.66
   6   9  16   12.66    4.29
   6   9  17   16.23    5.36
   6   9  18   16.68    5.87
   6   9  19    7.21    3.88
   6   9  20   17.02    5.88
   6   9  21   24.69    7.37
   6   9  22    6.30    3.76
  -6  10  18   10.67    4.65
  -6  10  17    3.02    2.84
  -6  10  16    8.29    4.09
  -6  10  15    8.65    4.29
  -6  10  14   22.89    6.46
  -6  10  13    2.14    2.19
  -6  10  12    6.45    2.97
  -6  10  11    2.23    1.66
  -6  10  10   23.15    5.92
  -6  10   9    4.67    2.59
  -6  10   8   93.69   11.32
  -6  10   7   33.30    6.69
  -6  10   6    3.94    2.08
   6  10  -5   98.91   11.91
  -6  10   5   78.10    9.50
   6  10  -4   14.69    4.47
  -6  10   4   19.80    4.97
   6  10  -3  143.22   13.47
  -6  10   3  118.71   10.94
   6  10  -2   29.02    6.48
  -6  10   2   45.70    6.89
  -6  10   1  177.20   12.83
   6  10  -1  185.70   14.96
  -6  10   0   98.59    9.23
   6  10   0   54.61    7.83
  -6  10  -1   91.75    8.53
   6  10   1   93.27   10.63
   6  10   2   92.21   10.23
   6  10   3   68.34    8.86
   6  10   4   76.29    9.44
   6  10   5   15.76    4.40
   6  10   6   12.18    3.68
   6  10   7   48.48    7.78
  -6  10  -7   56.25    5.75
   6  10   8   13.53    4.12
  -6  10  -8   19.58    3.25
   6  10   9    6.48    2.88
  -6  10  -9    3.39    1.26
  -6  10 -10   20.56    2.09
   6  10  10   29.79    6.67
  -6  10 -10   38.90    4.67
   6  10  11    1.26    1.39
  -6  10 -11    0.18    0.45
  -6  10 -11    1.04    0.75
   6  10  12    8.07    3.67
   6  10  13   16.64    4.96
   6  10  13   15.77    5.41
   6  10  14    2.47    2.10
   6  10  14    5.36    3.49
   6  10  15   -0.56    0.60
   6  10  15    3.25    1.68
   6  10  16    5.91    3.83
   6  10  16    8.61    3.70
   6  10  17   16.40    5.35
   6  10  18    0.43    0.97
   6  10  19    1.98    2.45
   6  10  20   14.97    6.10
  -6  11  17    4.61    3.50
  -6  11  16    3.14    2.86
  -6  11  15    4.26    3.34
  -6  11  14   11.45    5.08
  -6  11  13    2.96    2.80
  -6  11  12   15.19    5.06
  -6  11  11   51.41    9.51
  -6  11  10   17.75    5.78
  -6  11   9   10.49    3.96
  -6  11   8    3.66    2.43
   6  11  -7   16.91    5.03
  -6  11   7   24.79    5.99
   6  11  -6    6.24    2.85
  -6  11   6    5.52    2.66
   6  11  -5   12.32    4.11
  -6  11   5   10.00    3.17
   6  11  -4    1.26    1.46
  -6  11   4    3.04    1.95
   6  11  -3   56.10    9.03
  -6  11   3   72.18    9.08
  -6  11   2    6.39    2.37
   6  11  -2    6.73    3.07
  -6  11   1   10.17    2.96
   6  11  -1    5.50    2.62
  -6  11   0   10.80    3.05
   6  11   0   15.34    4.40
  -6  11  -1   54.45    6.86
   6  11   1   49.63    7.81
   6  11   2   15.29    4.10
   6  11   3    4.88    2.55
   6  11   4   32.81    6.56
   6  11   5    0.05    1.05
   6  11   6    1.52    0.99
   6  11   7   12.24    4.37
  -6  11  -7    4.68    2.18
   6  11   8   17.39    4.88
  -6  11  -8   16.39    3.17
   6  11   9    9.57    4.31
  -6  11  -9   10.09    2.61
   6  11  10   33.81    7.40
  -6  11 -10   40.42    5.27
   6  11  11   10.68    4.48
   6  11  12    7.45    3.72
   6  11  13    7.68    3.59
   6  11  14   29.67    7.40
   6  11  14   31.46    7.73
   6  11  15    0.74    0.54
   6  11  15    1.37    1.95
   6  11  16    6.52    4.08
   6  11  16    5.65    2.76
   6  11  17    9.84    4.84
   6  11  18    6.00    3.99
   6  11  19    4.88    3.33
  -6  12  16    4.35    3.31
  -6  12  15   12.43    5.36
  -6  12  14   14.89    5.62
  -6  12  13    2.92    2.35
  -6  12  12    9.49    3.70
  -6  12  11    0.00    0.97
  -6  12  10   16.99    5.35
  -6  12   9    3.73    1.85
   6  12  -8    3.59    2.15
  -6  12   8    1.85    2.07
   6  12  -7    7.60    3.77
  -6  12   7    9.25    3.83
  -6  12   6   12.57    4.80
   6  12  -6    8.72    3.56
  -6  12   5   12.38    3.87
   6  12  -5   12.36    4.39
  -6  12   4    5.04    2.50
   6  12  -4    4.19    2.92
  -6  12   3   17.83    4.56
   6  12  -3   15.62    4.58
  -6  12   2    8.04    3.31
   6  12  -2    4.90    2.66
  -6  12   1   39.14    6.75
   6  12  -1   39.04    7.27
  -6  12   0   15.19    4.02
   6  12   0   11.18    3.43
   6  12   1   31.12    6.50
   6  12   2   25.39    5.62
   6  12   3   33.13    6.64
   6  12   4    4.65    2.65
   6  12   5    8.46    3.51
   6  12   6   11.93    4.08
   6  12   7   59.53    9.24
   6  12   8    4.29    2.43
  -6  12  -8    4.87    1.96
   6  12   9    5.94    3.12
   6  12  10    4.95    3.02
   6  12  11   32.04    7.45
   6  12  12    6.37    3.81
   6  12  13   -0.11    1.08
   6  12  14    4.40    2.86
   6  12  14    7.22    4.07
   6  12  15    1.52    0.97
   6  12  15    5.08    3.16
   6  12  16    3.33    3.16
   6  12  16    1.14    1.93
   6  12  17    4.30    3.28
  -6  13  15    8.15    4.36
  -6  13  14    6.63    4.08
  -6  13  13    0.97    1.46
  -6  13  12    3.00    3.43
  -6  13  11   38.65    8.82
   6  13 -10   11.94    4.85
  -6  13  10   12.13    4.76
   6  13  -9    1.69    1.37
  -6  13   9    2.10    1.39
   6  13  -8    9.89    3.80
  -6  13   8   10.18    4.13
   6  13  -7   53.32    9.60
  -6  13   7   64.45   10.17
   6  13  -6    6.06    3.19
  -6  13   6    8.62    3.56
   6  13  -5   12.81    4.47
  -6  13   5   15.69    4.50
   6  13  -4    2.96    1.92
  -6  13   4    1.27    1.44
   6  13  -3   13.87    4.43
  -6  13   3   18.45    4.94
   6  13  -2   20.33    5.40
  -6  13   2   18.45    4.71
   6  13  -1   10.32    3.98
  -6  13   1   10.43    3.61
   6  13   0    4.54    2.46
  -6  13   0    5.45    2.54
   6  13   1   29.59    6.52
   6  13   2    9.06    3.35
   6  13   3    6.72    3.15
   6  13   4    4.86    2.58
   6  13   5    2.15    1.75
   6  13   6    7.31    3.54
   6  13   7    4.82    3.04
   6  13   8   34.93    7.60
   6  13   9   10.20    4.53
   6  13  10    1.61    1.54
   6  13  11    6.03    2.92
   6  13  12    0.18    0.91
   6  13  13   -0.10    1.42
   6  13  14   24.65    6.55
   6  13  14   21.61    7.01
   6  13  15    5.90    3.49
  -6  14  13    0.57    0.69
   6  14 -12    4.77    3.65
  -6  14  12    6.61    3.31
   6  14 -11    1.21    0.99
  -6  14  11    2.55    2.31
   6  14 -10    2.35    2.19
  -6  14  10   -0.14    2.26
   6  14  -9    5.15    3.40
  -6  14   9    3.84    2.97
   6  14  -8    3.56    2.99
  -6  14   8    4.76    2.59
   6  14  -7   -0.64    2.01
  -6  14   7    1.96    2.36
   6  14  -6    6.80    3.59
  -6  14   6   12.08    4.52
   6  14  -5   29.19    6.71
  -6  14   5   27.59    6.48
   6  14  -4   16.88    5.20
  -6  14   4   25.40    6.50
   6  14  -3   18.40    5.13
  -6  14   3   15.30    4.59
   6  14  -2   14.44    4.33
  -6  14   2   23.10    5.68
   6  14  -1   40.38    7.80
  -6  14   1   42.26    7.33
   6  14   0    3.95    1.84
  -6  14   0    8.21    3.22
   6  14   1    7.26    3.26
   6  14   2    9.64    3.76
   6  14   3   49.17    8.87
   6  14   4    1.61    1.33
   6  14   5   17.29    5.36
   6  14   6    7.63    3.20
   6  14   7    1.76    1.70
   6  14   8    1.90    1.62
   6  14   9    3.31    2.79
   6  14  10   18.07    5.80
   6  14  11    6.12    3.51
   6  14  12    4.26    2.82
   6  14  13    6.44    3.75
   6  15 -14    1.19    1.75
   6  15 -13    5.80    3.63
   6  15 -12    5.44    2.97
  -6  15  12    3.98    2.74
   6  15 -11   -0.91    0.48
  -6  15  11    2.81    3.09
   6  15 -10    4.58    3.01
  -6  15  10    5.24    3.31
   6  15  -9    5.96    3.37
  -6  15   9    4.97    3.04
   6  15  -8   22.29    6.68
  -6  15   8   20.79    6.04
   6  15  -7   10.62    4.25
  -6  15   7   10.10    4.65
   6  15  -6    6.69    3.33
  -6  15   6   14.03    5.12
   6  15  -5    0.43    0.82
  -6  15   5    5.83    2.73
   6  15  -4    6.33    2.69
  -6  15   4   15.44    5.29
   6  15  -3   24.90    6.28
  -6  15   3   24.05    6.01
   6  15  -2   25.67    6.27
  -6  15   2   19.26    5.09
   6  15  -1   13.55    4.43
  -6  15   1   18.54    5.10
   6  15   0   11.40    3.84
  -6  15   0   18.97    4.93
   6  15   1   34.53    7.21
   6  15   2   16.59    5.29
   6  15   3    5.36    2.61
   6  15   4    8.02    3.82
   6  15   5    3.17    2.03
   6  15   6   41.79    8.44
   6  15   7    4.94    3.06
   6  15   8   12.17    4.85
   6  15   9    6.09    3.57
   6  15  10   19.46    6.29
   6  15  11    3.61    2.84
   6  16 -13    5.12    3.21
   6  16 -12    5.17    3.37
   6  16 -11    1.68    1.78
   6  16 -10    1.40    1.33
  -6  16  10    2.21    1.51
   6  16  -9   10.99    4.51
  -6  16   9   14.84    5.54
   6  16  -8    4.26    3.16
  -6  16   8    3.07    3.41
   6  16  -7    1.39    1.62
  -6  16   7    1.75    1.14
   6  16  -6    1.53    1.49
  -6  16   6    4.53    3.22
   6  16  -5   -1.68    1.80
  -6  16   5   -0.10    1.12
   6  16  -4    4.89    3.19
  -6  16   4    3.36    1.94
   6  16  -3    0.51    1.28
  -6  16   3    2.57    2.60
   6  16  -2    9.03    4.02
  -6  16   2   13.36    4.40
   6  16  -1   10.24    4.10
  -6  16   1   16.37    4.81
   6  16   0    3.60    2.93
  -6  16   0    5.46    3.13
   6  16   1    0.86    1.08
  -6  16  -1    2.53    2.20
   6  16   2    4.54    3.29
   6  16   3    6.77    3.62
   6  16   4    0.39    0.96
   6  16   5    0.73    0.77
   6  16   6    1.57    1.77
   6  16   7   13.82    5.23
   6  16   8    0.40    1.20
   6  16   9   -0.51    1.03
   6  17 -11    1.96    2.66
   6  17 -10    1.90    1.17
   6  17  -9    1.06    1.09
   6  17  -8    2.82    2.13
  -6  17   8    8.11    4.88
  -6  17   7   18.66    6.66
   6  17  -7   17.20    5.69
  -6  17   6    5.07    3.76
   6  17  -6    0.81    1.71
  -6  17   5    2.30    1.56
   6  17  -5    3.88    2.98
  -6  17   4    7.60    3.69
   6  17  -4    3.04    1.85
  -6  17   3    4.70    2.76
   6  17  -3    7.07    3.66
  -6  17   2    7.15    3.59
   6  17  -2    8.82    3.96
  -6  17   1    2.15    2.37
   6  17  -1    2.27    2.03
  -6  17   0    7.23    3.39
   6  17   0    4.93    2.86
  -6  17  -1    5.20    2.54
   6  17   1    0.51    1.28
   6  17   2    5.51    3.36
   6  17   3    1.14    2.67
   6  17   4    2.57    2.48
   6  17   5   11.88    4.71
   6  17   6   13.03    5.21
   6  17   7    4.21    3.39
   6  18  -8    4.28    2.97
   6  18  -7    0.88    2.13
   6  18  -6    7.84    4.20
  -6  18   5    4.11    2.90
   6  18  -5    3.08    2.77
  -6  18   4    8.80    4.60
   6  18  -4    4.75    3.22
  -6  18   3    2.81    2.36
   6  18  -3    2.89    2.25
  -6  18   2    2.83    1.59
   6  18  -2    1.27    0.52
  -6  18   1    5.32    2.84
   6  18  -1    5.57    3.13
  -6  18   0    0.18    2.63
   6  18   0    0.67    0.93
  -6  18  -1   -0.78    0.83
   6  18   1    1.07    1.30
  -6  18  -2    2.96    2.43
   6  18   2    0.22    0.87
   6  18   3    7.16    4.22
  -6  19   2    8.50    4.81
  -6  19   1    4.69    3.01
   7 -12  -8    8.20    2.80
   7 -12  -7   13.54    3.11
   7 -12  -6    3.08    1.45
   7 -12  -5   21.96    3.68
   7 -12  -4    7.15    1.87
   7 -12  -3   20.71    2.78
   7 -11 -10    4.38    2.48
   7 -11  -9   23.76    4.71
   7 -11  -8    8.17    2.54
   7 -11  -7   17.89    3.63
   7 -11  -6   26.55    4.28
   7 -11  -5    7.56    2.09
   7 -11  -4   17.53    2.89
   7 -11  -3    1.68    0.81
   7 -11  -2   27.49    3.11
   7 -10 -10   64.32    8.06
   7 -10  -9   46.95    6.70
   7 -10  -8   53.67    6.78
   7 -10  -7  157.62   11.01
   7 -10  -6   91.70    7.58
   7 -10  -5   10.83    2.34
   7 -10  -4    6.15    1.50
   7 -10  -3    8.45    1.89
   7 -10  -2    2.88    1.07
   7  -9 -11   24.79    5.48
   7  -9 -10   12.83    3.78
   7  -9  -9   13.63    3.49
   7  -9  -8   63.20    7.59
   7  -9  -7   26.39    4.58
   7  -9  -6   16.81    3.42
   7  -9  -5   21.05    3.48
   7  -9  -4   32.63    3.74
   7  -9  -3    3.64    1.03
   7  -9  -2   17.85    2.21
   7  -9  -1    1.38    0.36
   7  -8 -11   21.29    4.89
   7  -8 -10   13.41    3.77
   7  -8  -9   76.43    8.72
   7  -8  -8   22.47    4.63
   7  -8  -7  138.89   10.66
   7  -8  -6   24.10    3.99
   7  -8  -5   16.24    2.90
   7  -8  -4    7.99    2.04
   7  -8  -3    7.10    1.52
   7  -8  -2    4.86    1.19
   7  -8  -1    6.05    0.95
   7  -7 -11   34.18    6.33
   7  -7 -10   14.15    4.05
   7  -7  -9   47.59    6.79
   7  -7  -8   74.16    8.05
   7  -7  -7   34.81    5.17
   7  -7  -6   41.50    5.48
   7  -7  -5   29.43    4.03
   7  -7  -4   24.77    3.57
   7  -7  -3   55.67    5.01
   7  -7  -2   72.19    4.73
   7  -7  -1   90.61    4.10
  -7  -7  -4   29.40    5.97
  -7  -7  -5    4.39    2.32
  -7  -7  -6  234.89   16.97
  -7  -6  21   13.69    5.40
  -7  -6  20    5.22    3.82
  -7  -6  19    9.13    4.40
  -7  -6  18   56.92   10.25
  -7  -6  17   51.77    9.84
  -7  -6  16   11.27    4.56
  -7  -6  15   64.98   10.40
  -7  -6  14   62.52    9.83
   7  -6  -9  180.41   14.41
   7  -6  -8   11.01    3.50
   7  -6  -7   99.85    9.81
   7  -6  -1    3.97    0.85
   7  -6   0    6.04    0.58
  -7  -6  -4  140.66   12.60
  -7  -6  -5   16.71    4.51
  -7  -6  -6   32.29    5.84
  -7  -6  -7   61.86    8.64
  -7  -6  -8   58.12    8.29
  -7  -5  22    3.24    3.53
  -7  -5  21   13.14    5.60
  -7  -5  20   11.68    4.84
  -7  -5  19    3.79    3.30
  -7  -5  18   21.74    6.53
  -7  -5  17   27.95    7.09
  -7  -5  16   24.84    6.53
  -7  -5  15   67.13   10.64
  -7  -5  14    0.02    1.13
  -7  -5  13  120.92   13.47
  -7  -5  12   58.98    9.14
  -7  -5  11   49.65    8.13
  -7  -5  10   65.12    9.10
   7  -5 -10   48.44    7.74
   7  -5  -9   39.01    6.65
   7  -5  -8   75.58    8.95
   7  -5  -7  131.62   11.28
   7  -5  -6   38.69    6.09
   7  -5  -5   25.08    4.55
   7  -5  -4   29.99    4.63
   7  -5  -3   14.54    3.00
   7  -5   1   73.66    2.90
  -7  -5  -4   47.28    6.92
  -7  -5  -5  111.27   10.50
  -7  -5  -6  152.77   12.18
  -7  -5  -7   38.48    6.42
  -7  -5  -8  127.81   11.45
  -7  -5  -9  171.11   13.64
  -7  -4  22    9.81    4.86
  -7  -4  21   49.28   10.28
  -7  -4  20    5.62    3.49
  -7  -4  19   50.79   10.09
  -7  -4  18   37.37    7.99
  -7  -4  17   80.98   11.96
  -7  -4  16   92.58   12.50
  -7  -4  15   54.14    9.46
  -7  -4  14    4.60    2.55
  -7  -4  13  158.22   15.27
  -7  -4  12   41.43    7.71
  -7  -4  11   60.83    8.92
   7  -4 -10   10.18    3.65
  -7  -4  10   14.85    4.35
  -7  -4   9   67.85    8.85
   7  -4  -9   63.36    8.56
  -7  -4   8   36.69    6.33
   7  -4  -8   33.27    6.04
   7  -4  -7   14.52    3.73
   7  -4  -6    4.63    1.77
   7  -4  -5    5.14    1.94
   7  -4  -4  148.38   10.39
   7  -4  -3  186.29   10.70
   7  -4  -2    3.63    1.48
   7  -4  -1   29.91    3.77
   7  -4   0   29.90    3.26
   7  -4   1   47.74    3.33
   7  -4   2    4.04    0.66
   7  -4   3   46.65    2.87
   7  -4   4   67.40    3.46
  -7  -4  -4  132.66   11.08
  -7  -4  -5    3.95    1.83
  -7  -4  -6   13.17    3.77
  -7  -4  -7   41.85    6.18
  -7  -4  -8  133.54   11.31
  -7  -4  -9   23.75    5.15
  -7  -4 -10   46.11    7.15
   7  -4  17    4.40    1.70
  -7  -3  22    5.87    4.29
  -7  -3  21    3.16    2.68
  -7  -3  20    1.55    2.04
  -7  -3  19    3.64    2.49
  -7  -3  18    0.21    0.48
  -7  -3  17   11.92    4.66
  -7  -3  16   13.02    4.64
  -7  -3  15   27.65    6.41
  -7  -3  14   41.66    7.85
  -7  -3  13   35.54    6.94
  -7  -3  12   70.77    9.78
  -7  -3  11   27.29    5.76
   7  -3 -11   36.23    6.64
  -7  -3  10   58.32    8.36
   7  -3 -10   57.61    8.38
  -7  -3   9   79.99    9.60
   7  -3  -9  102.91   10.60
  -7  -3   8   85.53    9.77
   7  -3  -8  118.04   11.10
  -7  -3   7   36.46    6.09
   7  -3  -7   50.33    6.89
  -7  -3   6   24.48    4.79
   7  -3  -6   38.76    5.89
  -7  -3   5   35.14    5.41
   7  -3  -5   22.12    4.13
   7  -3  -4   40.37    5.28
   7  -3  -3   18.06    3.36
   7  -3  -2   17.57    3.26
   7  -3  -1   13.72    2.66
   7  -3   0   43.77    4.00
   7  -3   1   80.83    4.93
   7  -3   1   62.24    4.24
   7  -3   2  148.94    5.63
   7  -3   2  158.89    6.74
   7  -3   3   69.07    4.25
   7  -3   4   15.10    2.11
  -7  -3  -4   30.39    5.02
   7  -3   5   10.60    1.84
  -7  -3  -5   16.25    3.48
   7  -3   6   12.13    2.16
  -7  -3  -6   26.19    4.86
  -7  -3  -7   68.80    7.63
  -7  -3  -8   41.94    6.04
  -7  -3  -9   91.68    9.39
  -7  -3 -10  175.26   13.14
  -7  -3 -11   83.56    9.19
   7  -3  12   12.71    2.27
   7  -3  13   60.79    4.72
   7  -3  14   32.96    3.87
   7  -3  15   31.42    3.96
   7  -3  16    4.31    1.62
   7  -3  17   30.83    4.45
   7  -3  18    7.06    2.36
  -7  -2  22    2.43    2.73
  -7  -2  21   16.37    6.10
  -7  -2  20    3.80    3.21
  -7  -2  19   20.14    6.26
  -7  -2  18   59.99   10.32
  -7  -2  17   29.43    7.01
  -7  -2  16    3.94    2.32
  -7  -2  15   55.63    9.09
  -7  -2  14    7.59    3.56
  -7  -2  13   55.18    8.68
  -7  -2  12    4.41    2.58
  -7  -2  11  215.77   16.28
   7  -2 -11  191.73   15.24
  -7  -2  10    5.84    2.73
   7  -2 -10    5.19    2.44
  -7  -2   9   64.90    8.35
   7  -2  -9   59.27    7.86
  -7  -2   8   49.58    6.91
   7  -2  -8   64.24    7.90
  -7  -2   7  379.66   18.63
   7  -2  -7  398.29   19.06
  -7  -2   6   62.28    7.48
   7  -2  -6   47.77    6.22
  -7  -2   5   25.33    4.48
   7  -2  -5   25.44    4.35
  -7  -2   4   46.39    5.88
   7  -2  -4   50.99    5.80
   7  -2  -3   42.65    5.14
   7  -2  -2   33.27    4.23
   7  -2  -1    3.07    1.29
   7  -2   0    3.26    1.02
   7  -2   1   18.36    2.63
   7  -2   1   14.56    2.05
   7  -2   2   41.68    3.79
   7  -2   2   42.20    3.11
   7  -2   3   85.92    5.46
   7  -2   3   72.65    3.29
  -7  -2  -4    7.51    2.44
   7  -2   4    8.60    1.66
   7  -2   5   23.23    3.07
  -7  -2  -5   29.98    4.63
   7  -2   6   12.02    2.29
  -7  -2  -6   18.52    3.87
   7  -2   7  175.81    9.72
  -7  -2  -7  184.66   12.09
   7  -2   8    8.87    2.25
  -7  -2  -8   11.21    3.00
  -7  -2  -9    9.13    2.74
  -7  -2 -10    5.91    2.38
   7  -2  10    3.75    0.77
  -7  -2 -11    5.37    2.34
   7  -2  11    0.71    0.38
  -7  -2 -12   21.53    4.72
   7  -2  12   22.72    2.70
   7  -2  13   43.67    4.25
   7  -2  14   23.13    3.73
   7  -2  15   11.53    2.50
   7  -2  16   22.80    3.38
   7  -2  17    3.88    1.78
   7  -2  18    4.54    2.34
   7  -2  19   13.98    4.07
  -7  -1  22    5.37    3.18
  -7  -1  21   20.05    6.37
  -7  -1  20   12.15    4.90
  -7  -1  19    9.67    4.37
  -7  -1  18   17.85    5.57
  -7  -1  17   10.93    4.48
  -7  -1  16   30.66    6.92
  -7  -1  15   95.74   11.85
  -7  -1  14   41.37    7.86
  -7  -1  13   11.11    4.15
  -7  -1  12  138.92   13.06
  -7  -1  11   24.83    5.33
   7  -1 -11   32.24    6.21
  -7  -1  10   54.55    7.66
   7  -1 -10   36.75    6.58
  -7  -1   9   49.81    7.34
   7  -1  -9   36.15    6.39
  -7  -1   8   48.01    7.05
   7  -1  -8   72.83    8.36
  -7  -1   7  316.20   17.02
   7  -1  -7  264.81   15.57
  -7  -1   6   47.22    6.58
   7  -1  -6   58.71    6.91
  -7  -1   5   79.04    7.76
   7  -1  -5   64.30    6.95
  -7  -1   4   73.37    7.35
   7  -1  -4  103.47    8.39
  -7  -1   3   12.42    3.10
   7  -1  -3   20.59    3.68
  -7  -1   2  177.87   10.19
   7  -1  -2  163.22    9.39
   7  -1  -1  310.46   11.98
   7  -1   0  108.26    6.64
   7  -1   1   45.43    3.98
   7  -1   1   47.08    4.75
   7  -1   2   81.33    4.79
   7  -1   2  100.04    6.56
   7  -1   3   54.23    3.50
   7  -1   3   44.95    4.28
   7  -1   4   91.75    6.32
  -7  -1  -4  138.00    9.64
   7  -1   5  149.93    8.26
   7  -1   5  110.30    3.92
  -7  -1  -5  140.61    9.54
   7  -1   6   15.49    2.89
   7  -1   6    2.43    0.69
  -7  -1  -6   13.93    3.30
   7  -1   6    8.45    1.19
  -7  -1  -7  231.88   12.85
   7  -1   7  225.68   11.45
  -7  -1  -8   57.53    6.66
   7  -1   8   85.70    7.45
   7  -1   9   68.60    6.96
   7  -1   9   40.22    2.97
  -7  -1 -10   15.27    3.47
   7  -1  10    4.24    0.97
  -7  -1 -11  102.69    9.58
   7  -1  11   52.69    4.41
  -7  -1 -12   11.21    3.28
   7  -1  12   13.17    2.39
  -7  -1 -13  134.01   11.59
   7  -1  13  123.60    7.90
   7  -1  14    2.28    1.45
   7  -1  15   20.78    3.82
   7  -1  16    6.76    2.09
   7  -1  17   44.21    6.15
   7  -1  18    3.73    2.02
   7  -1  19    2.15    1.49
  -7   0  22   16.85    6.29
  -7   0  21   52.86   10.40
  -7   0  20    7.92    4.18
  -7   0  19   57.73   10.29
  -7   0  18   38.82    8.43
  -7   0  17    7.95    3.25
  -7   0  16   16.41    5.02
  -7   0  15   17.20    4.93
  -7   0  14    2.45    2.02
  -7   0  13   40.62    7.34
  -7   0  12   44.81    7.55
  -7   0  11   22.03    5.14
   7   0 -11   26.74    5.73
  -7   0  10  103.83   10.78
   7   0 -10   97.82   10.53
  -7   0   9    6.49    2.59
   7   0  -9    6.72    2.74
  -7   0   8    1.99    1.51
   7   0  -8    2.77    1.94
  -7   0   7  122.06   10.25
   7   0  -7  136.81   11.40
  -7   0   6    5.48    2.47
   7   0  -6    2.87    1.68
  -7   0   5   85.62    7.93
   7   0  -5   88.51    8.23
  -7   0   4   -0.34    0.63
   7   0  -4    1.74    1.29
  -7   0   3  403.41   15.94
   7   0  -3  394.89   15.86
  -7   0   2    3.42    1.35
   7   0  -2    5.79    1.86
  -7   0   1    2.79    1.28
   7   0  -1    2.51    1.17
   7   0   0    0.85    0.78
   7   0   1    1.21    0.76
   7   0   1    0.71    0.57
   7   0   2    0.92    0.60
   7   0   2    0.64    0.56
   7   0   3  105.09    5.67
   7   0   3  135.46    8.26
   7   0   4   14.81    2.11
  -7   0  -4   19.48    3.42
   7   0   4   17.06    2.84
  -7   0  -5    2.52    1.30
   7   0   5    3.69    1.48
  -7   0  -6   46.22    5.41
   7   0   6   37.45    4.61
  -7   0  -7    2.22    1.28
   7   0   7    1.30    0.61
   7   0   7    1.29    1.06
  -7   0  -8    9.49    2.54
   7   0   8    7.47    2.25
   7   0   8    3.30    0.82
  -7   0  -9    9.81    2.64
   7   0   9   11.27    2.94
   7   0   9    8.62    1.78
  -7   0 -10   49.31    6.29
   7   0  10   42.42    5.89
   7   0  10   37.51    3.94
  -7   0 -11    1.68    1.35
   7   0  11    0.30    0.60
  -7   0 -12   58.04    7.17
   7   0  12   54.21    5.38
  -7   0 -13   53.96    7.15
   7   0  13   41.87    4.91
  -7   0 -14   26.38    5.27
   7   0  14   18.34    3.30
   7   0  15   12.73    3.13
   7   0  16    1.39    1.03
   7   0  17   10.32    3.11
   7   0  18    3.64    1.93
   7   0  19    1.08    1.37
   7   0  20    1.66    1.18
  -7   1  22    2.83    2.60
  -7   1  21   16.81    5.94
  -7   1  20    5.06    3.63
  -7   1  19    8.13    4.02
  -7   1  18    8.26    3.63
  -7   1  17    8.50    3.87
  -7   1  16   19.71    6.01
  -7   1  15   98.77   12.20
  -7   1  14   39.05    7.63
  -7   1  13    6.72    3.28
  -7   1  12   92.51   10.99
  -7   1  11   32.68    6.18
   7   1 -11   29.90    5.87
  -7   1  10   37.06    6.37
   7   1 -10   57.62    8.52
  -7   1   9   39.46    6.49
   7   1  -9   47.66    7.10
  -7   1   8   71.88    8.19
   7   1  -8   47.22    6.88
  -7   1   7  271.08   15.58
   7   1  -7  320.14   16.99
  -7   1   6   61.58    7.11
   7   1  -6   44.58    6.21
   7   1  -5   82.42    8.11
  -7   1   5   66.29    7.16
   7   1  -4   66.80    6.94
  -7   1   4  101.01    8.09
  -7   1   3   22.34    3.74
   7   1  -3   12.21    2.99
  -7   1   2  168.65    9.54
   7   1  -2  191.59   10.99
  -7   1   1  317.38   12.11
   7   1  -1  231.02   11.43
   7   1   0  132.04    8.31
  -7   1   0  123.74    7.23
   7   1   0  128.84    9.21
   7   1   1   58.55    5.24
   7   1   1   56.09    5.74
   7   1   2  129.46    7.71
   7   1   2  109.50    7.90
   7   1   3   35.17    3.78
   7   1   3   40.51    4.90
   7   1   4  118.10    8.19
  -7   1  -4  105.78    7.45
  -7   1  -5  163.62    9.22
   7   1   5  132.74    8.88
   7   1   6   11.36    2.73
  -7   1  -6   17.58    3.32
  -7   1  -7  230.28   11.41
   7   1   7  214.11   12.04
  -7   1  -8   83.66    7.16
   7   1   8   59.77    6.89
  -7   1  -9   67.53    6.66
   7   1   9   98.39    8.88
   7   1   9   92.87    6.48
  -7   1 -10    8.17    2.44
   7   1  10   15.58    3.65
   7   1  10   17.00    2.93
  -7   1 -11   90.21    8.25
   7   1  11   94.43    9.38
   7   1  11  104.75    7.77
  -7   1 -12   17.99    3.86
   7   1  12   13.26    2.91
  -7   1 -13  133.76   11.05
   7   1  13  134.54    9.63
  -7   1 -14    5.24    2.33
   7   1  14    2.72    1.31
  -7   1 -15   17.46    4.32
   7   1  15   15.01    3.53
   7   1  16    3.77    2.05
   7   1  17   88.43    9.31
   7   1  18    9.71    3.32
   7   1  19    5.98    2.63
   7   1  20   31.54    6.19
   7   1  21    6.73    3.38
  -7   2  22    3.39    2.92
  -7   2  21   20.72    6.52
  -7   2  20    6.53    3.86
  -7   2  19   19.61    6.14
  -7   2  18   41.14    8.64
  -7   2  17   26.29    6.43
  -7   2  16    3.48    2.08
  -7   2  15   56.13    9.10
  -7   2  14   10.19    3.78
  -7   2  13   59.85    8.84
  -7   2  12    2.97    2.03
  -7   2  11  194.04   15.14
   7   2 -11  215.51   16.03
   7   2 -10    6.17    2.89
  -7   2  10    4.59    2.23
   7   2  -9   66.86    8.30
  -7   2   9   59.32    7.84
   7   2  -8   46.52    6.88
  -7   2   8   65.38    7.82
   7   2  -7  404.55   19.81
  -7   2   7  397.72   18.79
  -7   2   6   49.33    6.24
   7   2  -6   57.49    6.98
   7   2  -5   27.33    4.73
  -7   2   5   21.61    3.80
  -7   2   4   56.35    5.97
   7   2  -4   46.40    6.06
  -7   2   3   43.38    5.13
   7   2  -3   51.81    6.06
  -7   2   2   33.71    4.17
   7   2  -2   38.04    5.03
  -7   2   1    1.53    0.78
   7   2  -1    3.20    1.53
   7   2   0    2.88    1.22
  -7   2   0    3.64    0.98
   7   2   0    5.09    1.82
   7   2   1   20.65    3.40
  -7   2  -1   19.02    2.29
   7   2   1   19.18    3.51
   7   2   2   42.55    5.20
   7   2   3   81.53    7.32
   7   2   4    7.90    2.25
   7   2   5   26.93    4.17
  -7   2  -5   21.95    3.17
   7   2   6   15.39    3.23
  -7   2  -6   15.00    2.73
  -7   2  -7  175.41    9.36
   7   2   7  172.02   11.22
  -7   2  -8    9.86    2.36
   7   2   8   10.05    2.77
  -7   2  -9    6.40    1.96
   7   2   9   10.03    2.98
  -7   2 -10    6.86    1.98
   7   2  10    3.57    1.40
   7   2  10    6.55    2.56
  -7   2 -11    2.73    1.44
   7   2  11    2.40    1.31
   7   2  11    6.03    2.54
   7   2  12   22.42    5.00
  -7   2 -12   25.36    4.43
   7   2  12   14.33    3.48
  -7   2 -13   53.36    6.70
   7   2  13   60.72    6.96
  -7   2 -14   51.00    7.03
   7   2  14   65.32    7.35
  -7   2 -15   19.00    4.34
   7   2  15   18.98    4.14
   7   2  16   12.34    3.28
   7   2  17   12.35    3.61
   7   2  18   16.12    4.13
   7   2  19   31.31    5.97
   7   2  20   -0.56    0.69
   7   2  21   44.99    7.79
  -7   3  22    0.55    1.59
  -7   3  21    0.45    1.14
  -7   3  20    2.61    2.53
  -7   3  19    5.48    3.18
  -7   3  18    3.57    3.04
  -7   3  17   19.03    5.89
  -7   3  16   24.74    6.30
  -7   3  15   35.18    7.21
  -7   3  14   53.01    8.90
  -7   3  13   22.75    5.68
  -7   3  12   93.92   10.95
  -7   3  11   34.47    6.37
  -7   3  10   53.10    7.79
   7   3 -10   56.43    8.19
   7   3  -9   82.30    9.66
  -7   3   9  100.23   10.08
  -7   3   8  115.88   10.62
   7   3  -8   83.45    9.23
   7   3  -7   37.25    5.95
  -7   3   7   49.14    6.65
   7   3  -6   19.91    4.26
  -7   3   6   36.22    5.40
  -7   3   5   25.58    4.37
   7   3  -5   34.46    5.42
   7   3  -4   45.39    6.01
  -7   3   4   40.42    5.17
   7   3  -3   21.40    4.13
  -7   3   3   20.74    3.56
  -7   3   2   16.52    3.04
   7   3  -2   13.50    3.11
   7   3  -1   16.63    3.45
  -7   3   1   14.77    2.52
  -7   3   0   52.85    4.39
   7   3   0   32.09    4.59
   7   3   0   42.98    5.88
  -7   3  -1   66.96    4.32
   7   3   1  104.59    9.08
  -7   3  -2   93.35    4.26
   7   3   2  204.18   12.20
   7   3   3   82.42    7.73
   7   3   4   27.40    4.46
  -7   3  -5   11.47    2.02
   7   3   5   14.99    3.25
  -7   3  -6   11.58    2.42
   7   3   6   22.27    4.27
  -7   3  -7   68.19    5.46
   7   3   7   66.37    7.31
  -7   3  -8   31.70    3.99
   7   3   8   37.22    5.59
  -7   3  -9   91.72    7.09
   7   3   9   90.93    9.38
  -7   3 -10  145.50    9.16
   7   3  10  166.39   12.89
   7   3  10  168.51   10.71
  -7   3 -11  101.29    8.29
   7   3  11   94.62   10.70
   7   3  11   87.36    8.20
   7   3  12   98.18   10.67
  -7   3 -12   53.38    6.37
   7   3  12  104.13    9.06
  -7   3 -13   75.93    7.82
   7   3  13   65.33    8.97
   7   3  13   51.78    6.73
  -7   3 -14   41.11    5.87
   7   3  14   38.94    6.15
  -7   3 -15   27.82    5.37
   7   3  15   51.24    7.26
  -7   3 -16    6.53    2.58
   7   3  16    9.51    3.04
   7   3  17   29.37    5.70
   7   3  18    7.68    3.07
   7   3  19   12.28    3.75
   7   3  20   17.37    4.83
   7   3  21   25.36    6.20
   7   3  22    3.63    2.34
  -7   4  21   77.40   12.73
  -7   4  20    0.66    1.20
  -7   4  19   77.27   12.35
  -7   4  18   30.03    7.44
  -7   4  17  106.70   13.73
  -7   4  16   79.16   11.45
  -7   4  15   79.40   11.37
  -7   4  14    5.62    2.85
  -7   4  13  171.86   15.23
  -7   4  12   42.65    7.58
  -7   4  11   58.52    8.30
   7   4 -10   14.54    4.26
  -7   4  10   11.43    3.69
   7   4  -9   66.00    8.58
  -7   4   9   59.73    7.78
   7   4  -8   39.77    6.80
  -7   4   8   30.29    5.57
   7   4  -7   13.63    3.80
  -7   4   7   17.53    3.81
   7   4  -6    7.06    2.71
  -7   4   6    5.28    2.13
   7   4  -5    5.38    2.19
  -7   4   5    4.49    1.86
   7   4  -4  140.23   11.28
  -7   4   4  148.27   10.04
   7   4  -3  213.08   13.25
  -7   4   3  199.39   11.02
   7   4  -2    5.18    2.08
  -7   4   2    4.40    1.66
   7   4  -1   24.51    4.78
   7   4  -1   24.62    4.39
  -7   4   1   37.71    4.18
  -7   4   0   37.42    3.89
   7   4   0   31.79    5.19
  -7   4  -1   47.70    3.85
   7   4   1   69.11    7.77
  -7   4  -2    6.75    1.08
   7   4   2    6.85    2.38
  -7   4  -3   43.67    2.16
   7   4   3   51.62    6.44
   7   4   4  109.47    9.27
   7   4   5    1.99    1.15
   7   4   6   12.03    3.19
  -7   4  -6   17.77    2.25
  -7   4  -7   21.89    2.88
   7   4   7   36.93    5.62
  -7   4  -8   90.29    6.26
   7   4   8  125.08   10.76
  -7   4  -9   31.57    3.91
   7   4   9   21.39    4.55
  -7   4 -10   54.98    5.46
   7   4  10   43.63    6.80
  -7   4 -11   14.54    2.92
   7   4  11   19.44    4.00
   7   4  11   20.24    4.70
  -7   4 -12   48.02    5.78
   7   4  12   34.78    6.55
   7   4  12   27.81    5.15
  -7   4 -13   11.47    2.94
   7   4  13   20.62    4.94
   7   4  13   18.11    4.06
  -7   4 -14    0.94    1.16
   7   4  14    3.96    2.40
   7   4  14    2.01    1.40
  -7   4 -15    8.27    2.77
   7   4  15    9.11    3.17
  -7   4 -16    4.71    2.11
   7   4  16    5.02    2.31
   7   4  17   10.88    3.54
   7   4  18    2.95    2.07
   7   4  19   10.40    3.78
   7   4  20    4.40    2.73
   7   4  21   21.64    5.50
   7   4  22    3.52    2.75
  -7   5  21   19.66    6.55
  -7   5  20   11.48    5.01
  -7   5  19    1.97    2.24
  -7   5  18   33.68    7.90
  -7   5  17   21.43    6.39
  -7   5  16   18.32    5.54
  -7   5  15   41.79    8.45
  -7   5  14    3.84    2.61
  -7   5  13   73.92   10.33
  -7   5  12   44.21    7.48
  -7   5  11   71.34    9.74
  -7   5  10   53.54    8.33
   7   5  -9   33.92    6.40
  -7   5   9   40.62    6.77
   7   5  -8   78.66    9.58
  -7   5   8   83.40    9.40
   7   5  -7   86.64    9.69
  -7   5   7  131.22   11.22
   7   5  -6   26.63    5.07
  -7   5   6   44.05    6.40
   7   5  -5   28.19    5.41
  -7   5   5   26.31    4.56
   7   5  -4   40.81    6.17
  -7   5   4   27.74    4.40
   7   5  -3   17.53    3.99
  -7   5   3   13.66    2.91
   7   5  -2  140.97   11.23
  -7   5   2  136.53    8.89
   7   5  -1  365.69   18.79
   7   5  -1  365.61   17.46
  -7   5   1  290.17   12.12
   7   5   0  295.35   16.14
  -7   5   0  388.81   13.04
   7   5   1   81.00    8.56
  -7   5  -1  120.61    6.68
   7   5   2  180.01   12.44
  -7   5  -2  166.49    6.90
  -7   5  -3   25.62    2.27
   7   5   3   16.24    3.72
   7   5   4   42.02    6.06
   7   5   5   95.47    9.03
   7   5   6  143.51   11.34
  -7   5  -7   24.55    2.68
   7   5   7   32.12    5.30
  -7   5  -8   78.01    5.28
   7   5   8  127.19   11.32
  -7   5  -9  161.48    8.21
   7   5   9  158.05   12.67
  -7   5 -10   77.86    6.07
   7   5  10  129.73   12.24
  -7   5 -11   89.88    7.00
   7   5  11   97.34   10.82
   7   5  12   75.90   10.38
   7   5  12   70.31    8.22
  -7   5 -12   43.16    5.28
   7   5  13   65.21    9.51
  -7   5 -13   48.00    5.68
   7   5  13   61.31    7.92
  -7   5 -14    5.82    2.08
   7   5  14   13.32    4.36
   7   5  14    7.92    2.94
   7   5  15   93.96   12.09
  -7   5 -15   69.91    7.85
   7   5  15   95.08   10.61
  -7   5 -16    9.65    3.27
   7   5  16   16.81    4.53
  -7   5 -17   37.49    6.42
   7   5  17   54.94    8.70
   7   5  18   48.82    8.18
   7   5  19    1.45    1.49
   7   5  20   22.53    5.92
   7   5  21    4.13    2.54
   7   5  22    5.17    2.78
  -7   6  21   23.03    7.31
  -7   6  20    3.68    2.57
  -7   6  19   14.09    5.16
  -7   6  18   45.15    9.59
  -7   6  17   73.86   11.51
  -7   6  16   13.32    4.68
  -7   6  15   95.17   12.46
  -7   6  14   62.91   10.01
  -7   6  13   59.67    9.67
  -7   6  12   56.00    8.73
  -7   6  11  211.58   16.79
  -7   6  10   45.27    7.30
  -7   6   9  169.45   13.70
   7   6  -8   11.86    3.91
  -7   6   8   14.16    3.94
   7   6  -7  103.73   11.03
  -7   6   7  106.96   10.44
   7   6  -6   21.82    4.97
  -7   6   6   17.49    4.15
   7   6  -5   95.06    9.96
  -7   6   5  119.06   10.21
   7   6  -4  117.86   11.21
  -7   6   4   95.89    8.92
   7   6  -3   45.15    6.72
  -7   6   3   70.80    7.09
   7   6  -2    9.62    3.17
   7   6  -2    7.80    2.59
  -7   6   2   13.78    3.00
   7   6  -1    9.32    3.32
  -7   6   1   10.27    2.50
   7   6   0   55.88    7.74
  -7   6   0   48.77    5.10
   7   6   1   25.50    4.77
  -7   6  -1   38.84    4.13
   7   6   2   67.17    7.85
  -7   6  -2   56.68    4.53
   7   6   3   12.53    3.27
  -7   6  -3   21.20    2.53
   7   6   4  118.61   10.61
  -7   6  -4  132.15    5.45
   7   6   5    9.78    3.07
  -7   6  -5    1.89    0.26
  -7   6  -5    4.91    0.81
   7   6   6   29.76    5.32
  -7   6  -7   46.56    2.93
   7   6   7   52.65    7.18
  -7   6  -8   71.64    4.31
   7   6   8   53.90    7.52
  -7   6  -9   12.53    1.98
   7   6   9   23.18    5.04
  -7   6 -10   14.69    2.43
   7   6  10   18.62    4.88
  -7   6 -11    4.20    1.47
   7   6  11   10.02    3.74
  -7   6 -12    3.85    1.57
   7   6  12    3.85    2.51
   7   6  12    1.60    1.21
  -7   6 -13    8.34    2.23
   7   6  13   17.83    4.52
   7   6  13   16.49    4.92
  -7   6 -14   15.61    3.36
   7   6  14   20.20    5.55
   7   6  14   19.47    4.99
   7   6  15    5.34    2.77
   7   6  15    4.50    2.59
  -7   6 -15    7.54    2.63
  -7   6 -16   10.51    3.17
   7   6  16   13.09    4.25
   7   6  17   25.47    6.07
   7   6  18   14.42    4.85
   7   6  19   14.17    4.68
   7   6  20    8.15    3.59
   7   6  21   19.16    5.85
   7   6  22    3.25    2.50
   7   6  23    0.49    1.49
  -7   7  20    3.62    3.44
  -7   7  19    2.18    1.97
  -7   7  18    2.82    2.71
  -7   7  17    7.20    3.77
  -7   7  16    3.88    2.35
  -7   7  15   75.40   11.68
  -7   7  14   28.73    7.00
  -7   7  13   28.91    6.74
  -7   7  12    3.05    1.56
  -7   7  11   36.83    7.10
  -7   7  10   19.05    5.32
  -7   7   9   56.73    8.52
  -7   7   8   83.93   10.03
  -7   7   7   39.07    6.50
   7   7  -6   39.57    6.77
  -7   7   6   49.42    7.21
   7   7  -5   54.06    7.94
  -7   7   5   40.63    6.09
   7   7  -4   23.86    5.23
  -7   7   4   29.50    4.92
   7   7  -3   91.86   10.45
   7   7  -3   90.28    9.92
  -7   7   3   61.17    6.86
   7   7  -2   61.84    8.32
  -7   7   2   93.82    8.31
   7   7  -1  163.00   13.10
  -7   7   1  149.68   10.10
   7   7   0  354.07   19.87
  -7   7   0  541.30   18.52
   7   7   1  343.86   19.03
  -7   7  -1  322.77   12.96
   7   7   2  103.91   10.37
  -7   7  -2   96.39    6.71
   7   7   3    7.89    2.62
  -7   7  -3    6.52    1.53
   7   7   4   28.70    5.48
  -7   7  -4   29.69    2.98
   7   7   5    1.81    1.41
  -7   7  -5    1.73    0.73
   7   7   6  202.03   14.48
  -7   7  -6  168.76    5.97
  -7   7  -6  185.43    6.50
   7   7   7   19.69    4.49
  -7   7  -7    6.98    1.02
  -7   7  -7    8.99    1.09
  -7   7  -8   34.09    2.23
   7   7   8   89.46   10.19
  -7   7  -9   47.39    3.42
   7   7   9   41.94    7.12
  -7   7 -10  122.42    6.24
   7   7  10  240.27   17.98
  -7   7 -11    4.09    1.31
   7   7  11    5.68    2.82
  -7   7 -12    9.54    2.16
   7   7  12   16.44    4.80
  -7   7 -12    4.69    0.92
  -7   7 -13    5.62    1.76
   7   7  13    6.06    2.71
  -7   7 -13    1.97    0.64
   7   7  13    4.86    2.64
   7   7  14  136.00   14.78
   7   7  14  129.54   13.32
  -7   7 -14  108.74    8.70
  -7   7 -14   98.61    5.66
   7   7  15   15.53    5.34
  -7   7 -15   15.57    3.47
   7   7  15   16.64    4.64
   7   7  16   17.23    5.05
   7   7  17    4.44    2.63
   7   7  18   66.66   10.35
   7   7  19    2.56    2.10
   7   7  20   15.14    5.04
   7   7  21   15.88    5.47
   7   7  22    3.45    2.85
   7   7  23    1.50    1.78
  -7   8  19   54.78   10.67
  -7   8  18   22.36    6.58
  -7   8  17   68.26   12.04
  -7   8  16    8.99    4.12
  -7   8  15   28.25    7.09
  -7   8  14   38.53    8.03
  -7   8  13   47.42    8.77
  -7   8  12   22.16    5.78
  -7   8  11   25.24    5.98
  -7   8  10   13.31    4.25
  -7   8   9   84.18   10.41
  -7   8   8   26.34    5.89
  -7   8   7  140.08   12.70
  -7   8   6   30.17    5.59
  -7   8   5   19.98    4.43
   7   8  -4   12.03    3.84
  -7   8   4   10.31    3.17
   7   8  -3    8.05    3.09
   7   8  -3   10.52    3.61
  -7   8   3   10.83    3.06
   7   8  -2    5.18    2.55
  -7   8   2    6.38    2.21
   7   8  -1   10.11    3.67
  -7   8   1   12.80    3.19
   7   8   0   44.71    6.83
  -7   8   0   68.22    6.98
   7   8   1   89.01    9.89
  -7   8  -1   87.66    7.21
   7   8   2   11.45    3.72
  -7   8  -2   14.37    2.89
   7   8   3   17.28    4.22
  -7   8  -3   23.66    3.31
   7   8   4   21.98    4.91
  -7   8  -4   24.09    3.29
   7   8   5   16.49    4.14
  -7   8  -5   20.91    2.65
   7   8   6   10.65    3.55
  -7   8  -6   11.01    1.78
  -7   8  -6   13.50    2.12
   7   8   7   36.72    6.34
  -7   8  -7   38.99    3.42
   7   8   8   33.03    6.42
  -7   8  -8   44.03    3.29
   7   8   9   24.38    5.49
  -7   8  -9   16.20    1.38
  -7   8  -9   31.82    2.73
  -7   8 -10   16.02    2.00
   7   8  10   24.46    5.98
  -7   8 -10   12.81    1.63
   7   8  11   17.24    4.93
  -7   8 -11   19.82    2.63
  -7   8 -11   18.76    2.17
  -7   8 -12    9.66    2.23
   7   8  12   12.11    4.28
  -7   8 -12    6.76    1.24
  -7   8 -13   42.24    4.73
   7   8  13   62.75   10.44
   7   8  13   48.94    8.20
  -7   8 -13   39.28    3.69
   7   8  14   13.85    4.81
   7   8  14   14.88    5.45
   7   8  15    2.92    2.33
   7   8  15    1.21    1.67
   7   8  16   13.96    5.05
   7   8  16    8.48    3.56
   7   8  17   15.32    5.01
   7   8  18    3.97    2.83
   7   8  19    0.10    0.74
   7   8  20    0.55    1.96
   7   8  21    6.42    3.59
   7   8  22    3.97    3.10
  -7   9  19   15.55    6.22
  -7   9  18    5.41    3.75
  -7   9  17   47.51    9.66
  -7   9  16   54.34   10.08
  -7   9  15   35.54    8.18
  -7   9  14    3.47    2.34
  -7   9  13   19.13    5.83
  -7   9  12   24.75    6.13
  -7   9  11   32.30    7.01
  -7   9  10   16.46    4.83
  -7   9   9   11.83    3.89
  -7   9   8   72.73    9.79
  -7   9   7   34.28    6.50
  -7   9   6   21.13    5.34
   7   9  -5   22.34    5.75
  -7   9   5   34.80    6.29
   7   9  -4   33.10    6.61
  -7   9   4   44.26    6.71
   7   9  -3    8.13    3.46
  -7   9   3    7.45    2.79
   7   9  -2   37.41    6.95
  -7   9   2   29.18    5.17
   7   9  -1    5.39    2.22
  -7   9   1    4.81    1.98
   7   9   0   21.50    5.12
  -7   9   0   20.17    3.95
   7   9   1    4.36    2.06
  -7   9  -1    2.90    1.29
   7   9   2   28.15    5.76
  -7   9  -2   20.28    3.70
  -7   9  -3   10.87    2.35
   7   9   3   10.57    3.55
  -7   9  -4   26.03    3.73
   7   9   4   20.61    4.79
  -7   9  -5   12.96    2.29
   7   9   5   15.59    4.05
   7   9   6  174.87   14.73
   7   9   7   45.98    7.42
  -7   9  -7   48.70    4.40
   7   9   8   78.74   10.18
  -7   9  -8   38.46    3.89
   7   9   9    1.58    1.69
  -7   9  -9    1.00    0.67
   7   9  10   60.79    9.60
  -7   9 -10   19.12    2.71
  -7   9 -11    2.85    0.65
   7   9  11   10.91    4.22
  -7   9 -11    8.36    1.15
   7   9  12   69.74   10.56
   7   9  13   30.18    7.41
   7   9  14   72.17   11.53
   7   9  14   62.06    9.80
   7   9  15    9.78    3.81
   7   9  15   10.66    4.66
   7   9  16   19.99    6.17
   7   9  16   15.27    5.24
   7   9  17    1.17    1.00
   7   9  18   16.75    5.54
   7   9  19    3.95    2.99
   7   9  20   10.09    4.82
   7   9  21    0.93    2.05
  -7  10  18    8.90    4.66
  -7  10  17    7.93    4.37
  -7  10  16    5.55    3.47
  -7  10  15   47.85    9.81
  -7  10  14   46.45    9.16
  -7  10  13   23.52    6.76
  -7  10  12   34.30    7.69
  -7  10  11   80.36   11.37
  -7  10  10   77.88   11.09
  -7  10   9   52.27    8.63
  -7  10   8   72.69   10.05
  -7  10   7  186.45   15.93
   7  10  -6  113.95   13.31
  -7  10   6  118.44   12.38
   7  10  -5    6.49    2.25
  -7  10   5   11.12    3.67
   7  10  -4    9.62    3.54
  -7  10   4    9.04    3.20
   7  10  -3   13.38    4.23
  -7  10   3   12.35    3.51
   7  10  -2    5.26    2.34
  -7  10   2    5.73    2.49
   7  10  -1  134.38   13.11
  -7  10   1  140.84   11.67
   7  10   0   98.21   11.12
  -7  10   0  117.60   10.06
   7  10   1   61.29    8.96
  -7  10  -1   66.04    7.41
   7  10   2   14.75    4.17
  -7  10  -2   22.62    3.93
  -7  10  -3   31.42    4.72
   7  10   3   25.92    5.74
  -7  10  -4   15.38    3.10
   7  10   4    7.89    3.15
   7  10   5    4.82    1.96
   7  10   6   10.88    3.96
  -7  10  -7    4.86    1.64
   7  10   7    3.74    2.36
   7  10   8   71.24   10.01
  -7  10  -8  100.72    7.14
   7  10   9   25.32    5.83
  -7  10  -9   32.72    3.68
   7  10  10   25.11    6.46
  -7  10 -10   38.42    4.15
   7  10  11    5.45    2.82
   7  10  12   32.09    7.37
   7  10  13    2.23    2.28
   7  10  14   19.55    5.59
   7  10  14   20.73    6.31
   7  10  15   10.59    4.54
   7  10  15   11.34    4.79
   7  10  16    9.07    4.30
   7  10  16    7.95    3.41
   7  10  17   14.29    5.17
   7  10  18   32.66    8.56
   7  10  19    3.42    2.75
   7  10  20   12.68    5.54
  -7  11  17    3.93    2.94
  -7  11  16    6.21    3.90
  -7  11  15   12.31    5.50
  -7  11  14    5.43    3.07
  -7  11  13   15.17    5.30
  -7  11  12    1.76    1.35
  -7  11  11   39.41    8.36
  -7  11  10    7.02    3.22
  -7  11   9   42.18    8.05
  -7  11   8   13.01    4.70
   7  11  -7   20.13    5.79
  -7  11   7   21.31    5.33
   7  11  -6   20.24    5.47
  -7  11   6   29.67    6.37
   7  11  -5    8.16    3.57
  -7  11   5    7.80    3.16
   7  11  -4   13.32    4.14
  -7  11   4   23.81    5.44
   7  11  -3    4.44    2.41
  -7  11   3    2.68    1.50
   7  11  -2   41.16    7.63
  -7  11   2   36.62    6.30
   7  11  -1   25.29    5.73
  -7  11   1   26.88    5.07
   7  11   0   18.16    4.89
  -7  11   0   34.90    5.83
  -7  11  -1    1.74    1.58
   7  11   1    1.87    1.55
  -7  11  -2   39.22    5.81
   7  11   2   47.17    8.08
  -7  11  -3    8.78    2.58
   7  11   3    4.66    2.31
  -7  11  -4   10.31    2.36
   7  11   4   12.02    3.86
   7  11   5    0.64    1.44
   7  11   6   42.82    7.68
  -7  11  -7    2.19    1.00
   7  11   7    2.76    2.05
   7  11   8   70.74   10.43
  -7  11  -8   36.14    4.67
   7  11   9    3.71    2.41
   7  11  10  110.59   13.71
   7  11  11    2.52    2.37
   7  11  12   26.76    6.82
   7  11  13    2.43    2.50
   7  11  14   73.99   12.27
   7  11  14   74.20   11.38
   7  11  15   14.67    5.13
   7  11  15   10.30    4.21
   7  11  16   26.92    7.28
   7  11  16   27.23    7.60
   7  11  17    7.93    3.80
   7  11  18    7.00    4.08
   7  11  19    0.96    1.36
  -7  12  16   28.90    7.90
  -7  12  15   26.58    7.47
  -7  12  14   58.35   10.92
  -7  12  13   45.88    9.84
  -7  12  12    8.66    4.09
  -7  12  11   18.29    5.46
  -7  12  10   15.21    5.21
  -7  12   9   48.59    8.96
   7  12  -8    8.43    4.19
  -7  12   8   10.29    4.12
   7  12  -7   23.02    6.54
  -7  12   7   20.65    5.30
   7  12  -6    3.47    2.33
  -7  12   6    3.67    2.65
   7  12  -5   34.71    7.39
  -7  12   5   28.64    6.35
   7  12  -4    8.38    3.72
  -7  12   4    9.75    3.56
   7  12  -3   37.16    7.49
  -7  12   3   35.67    6.58
   7  12  -2    8.06    3.47
  -7  12   2    9.00    3.40
   7  12  -1    2.13    2.08
  -7  12   1    6.71    3.01
   7  12   0    9.33    3.77
  -7  12   0   12.69    3.71
   7  12   1   67.42    9.81
  -7  12  -1   72.56    8.64
   7  12   2   28.19    6.58
  -7  12  -2   25.35    4.95
   7  12   3    8.72    3.38
  -7  12  -3   11.37    3.02
   7  12   4    5.74    2.38
   7  12   5   17.52    4.78
   7  12   6    5.06    2.55
   7  12   7   30.21    6.76
   7  12   8    8.33    3.57
   7  12   9   12.08    4.34
   7  12  10    3.61    2.08
   7  12  11   20.68    6.33
   7  12  12    8.60    4.32
   7  12  13   18.38    6.68
   7  12  14    2.71    2.50
   7  12  14    3.17    2.82
   7  12  15    6.74    3.76
   7  12  15    6.76    4.01
   7  12  16    6.00    3.68
   7  12  17    3.81    3.01
  -7  13  14   13.55    5.63
  -7  13  13   32.21    8.27
  -7  13  12    8.66    4.51
  -7  13  11   39.42    8.50
   7  13 -10    5.29    3.14
  -7  13  10    6.16    3.58
   7  13  -9   16.94    5.49
  -7  13   9   15.43    5.15
   7  13  -8    6.38    3.90
  -7  13   8    7.44    3.15
   7  13  -7    9.41    4.08
  -7  13   7    9.99    3.96
   7  13  -6    9.06    3.94
  -7  13   6   14.61    4.74
   7  13  -5    1.08    1.56
  -7  13   5    3.91    3.04
   7  13  -4   27.70    6.85
  -7  13   4   40.05    7.68
   7  13  -3   -0.14    1.00
  -7  13   3   -0.61    0.66
   7  13  -2   16.48    4.98
  -7  13   2   14.72    4.15
   7  13  -1    0.82    1.27
  -7  13   1    3.21    2.38
   7  13   0    5.99    2.49
  -7  13   0    5.44    2.17
   7  13   1   14.21    4.62
  -7  13  -1   16.49    4.15
   7  13   2    8.26    3.67
  -7  13  -2    7.21    2.72
   7  13   3    0.00    1.04
  -7  13  -3    0.84    0.80
   7  13   4   24.37    6.41
   7  13   5    5.97    2.93
   7  13   6   86.01   11.80
   7  13   7    1.50    1.03
   7  13   8   35.48    8.08
   7  13   9    2.69    1.92
   7  13  10   43.49    9.23
   7  13  11    6.32    3.69
   7  13  12   40.77    9.20
   7  13  13    3.08    2.69
   7  13  14   64.66   11.53
   7  13  15    2.05    2.26
  -7  14  13   11.87    5.03
   7  14 -12   10.70    4.34
  -7  14  12   16.85    6.06
   7  14 -11   12.22    5.10
  -7  14  11   17.89    6.28
   7  14 -10   45.76    9.79
  -7  14  10   63.67   11.43
   7  14  -9   14.86    5.54
  -7  14   9    9.36    3.88
   7  14  -8    6.44    3.66
  -7  14   8   12.24    5.19
   7  14  -7   22.60    6.42
  -7  14   7   20.07    5.79
   7  14  -6   20.95    5.91
  -7  14   6   33.88    8.11
   7  14  -5   59.08   10.27
  -7  14   5   50.95    8.95
   7  14  -4    4.27    2.86
  -7  14   4    6.65    3.47
   7  14  -3   35.75    7.57
  -7  14   3   29.78    6.65
   7  14  -2    3.69    1.95
  -7  14   2    5.92    2.57
   7  14  -1   46.25    8.66
  -7  14   1   44.32    7.71
   7  14   0    1.87    0.23
  -7  14   0    5.13    2.65
   7  14   1   30.63    7.02
  -7  14  -1   28.64    5.87
   7  14   2    4.89    2.34
  -7  14  -2   12.35    3.80
   7  14   3   31.63    7.15
  -7  14  -3   42.36    6.80
   7  14   4   11.97    4.27
   7  14   5   29.37    6.85
   7  14   6    4.48    2.43
   7  14   7   35.00    7.65
   7  14   8   10.65    4.59
   7  14   9   10.34    4.67
   7  14  10    9.38    4.67
   7  14  11   23.07    7.10
   7  14  12   10.11    4.92
   7  15 -13   12.62    6.11
   7  15 -12    6.39    3.81
   7  15 -11   18.56    6.56
  -7  15  11   16.83    6.18
   7  15 -10   20.32    6.49
  -7  15  10   18.66    6.30
   7  15  -9   18.66    6.31
  -7  15   9   12.98    4.82
   7  15  -8    9.44    4.24
  -7  15   8   18.38    6.09
   7  15  -7    6.85    3.53
  -7  15   7    6.86    3.53
   7  15  -6    4.39    2.74
  -7  15   6    5.02    3.26
   7  15  -5    7.63    4.21
  -7  15   5    6.38    3.43
   7  15  -4   10.12    3.74
  -7  15   4   12.89    4.93
   7  15  -3   21.73    6.05
  -7  15   3   23.01    5.72
   7  15  -2   22.48    6.53
  -7  15   2   16.36    5.12
   7  15  -1    3.31    1.40
  -7  15   1    7.73    3.61
   7  15   0    7.08    3.36
  -7  15   0    9.11    3.69
   7  15   1   11.81    4.33
  -7  15  -1   13.97    4.10
   7  15   2    8.37    3.34
  -7  15  -2    9.50    3.54
   7  15   3    3.88    1.92
  -7  15  -3    5.01    2.60
   7  15   4    0.69    1.63
  -7  15  -4    1.58    1.59
   7  15   5   11.95    4.51
   7  15   6   24.50    7.09
   7  15   7    9.61    4.10
   7  15   8    8.16    4.03
   7  15   9   11.24    4.87
   7  15  10   43.21    9.77
   7  16 -11    6.62    4.32
   7  16 -10   14.67    5.56
  -7  16  10   13.87    5.81
   7  16  -9   18.60    6.82
  -7  16   9   19.69    6.42
   7  16  -8    5.31    3.30
  -7  16   8    3.86    2.01
   7  16  -7    6.20    3.09
  -7  16   7    4.25    3.33
   7  16  -6    6.54    3.55
  -7  16   6   11.16    4.59
   7  16  -5   10.00    4.45
  -7  16   5   10.32    4.42
   7  16  -4    3.47    2.13
  -7  16   4    7.48    3.74
   7  16  -3   20.14    6.18
  -7  16   3   22.65    6.30
   7  16  -2    2.41    1.93
  -7  16   2    1.40    2.01
   7  16  -1   10.40    4.27
  -7  16   1   12.02    4.50
   7  16   0    3.34    2.27
  -7  16   0    2.84    2.50
   7  16   1    2.94    2.22
  -7  16  -1    5.47    2.83
   7  16   2    0.30    0.79
  -7  16  -2    2.41    1.66
   7  16   3   10.75    4.54
  -7  16  -3   18.05    4.73
   7  16   4    2.20    2.12
   7  16   5    9.09    4.06
   7  16   6    2.25    1.13
   7  16   7   21.51    6.26
   7  16   8    2.63    2.60
   7  17  -8    1.87    2.74
  -7  17   8    4.40    2.36
   7  17  -7    7.45    4.49
  -7  17   7    8.85    5.12
   7  17  -6    1.89    2.18
  -7  17   6    5.63    4.00
  -7  17   5   -2.53    2.80
   7  17  -5    1.31    1.73
  -7  17   4    7.15    3.95
   7  17  -4    4.28    2.62
  -7  17   3    0.29    0.84
   7  17  -3    0.04    1.59
  -7  17   2   -0.84    1.08
   7  17  -2    1.20    1.88
  -7  17   1    0.77    2.23
   7  17  -1    2.28    1.89
  -7  17   0    6.34    3.07
   7  17   0    4.96    2.68
  -7  17  -1    1.09    1.18
   7  17   1    1.32    2.07
   7  17   2   17.68    6.15
   7  17   3    0.44    1.97
   7  17   4    3.46    2.66
  -7  18   5   -1.88    2.83
  -7  18   4    5.70    3.93
  -7  18   3    4.90    2.59
  -7  18   2    4.35    3.40
  -7  18   1   16.61    5.78
   8 -11  -9    6.35    2.58
   8 -11  -8   21.42    4.16
   8 -11  -7   56.38    6.53
   8 -11  -6    2.56    1.40
   8 -11  -5    6.30    1.65
   8 -11  -4   16.20    2.78
   8 -11  -3    0.95    0.48
   8 -10 -10   24.09    5.15
   8 -10  -9   17.60    4.01
   8 -10  -8   10.37    2.92
   8 -10  -7   17.78    3.51
   8 -10  -6   13.66    3.17
   8 -10  -5   36.61    4.48
   8 -10  -4   28.71    3.72
   8 -10  -3    3.17    0.95
   8 -10  -2   13.79    1.78
   8  -9 -11   24.59    5.49
   8  -9 -10   18.87    4.41
   8  -9  -9    9.92    3.08
   8  -9  -8    4.24    1.91
   8  -9  -7   15.62    3.51
   8  -9  -6   10.94    2.77
   8  -9  -5   39.62    4.74
   8  -9  -4    9.01    2.14
   8  -9  -3   92.28    5.87
   8  -9  -2   11.02    1.60
   8  -8 -11   17.23    4.83
   8  -8 -10   21.37    4.96
   8  -8  -9   29.24    5.33
   8  -8  -8   54.96    7.02
   8  -8  -7   29.88    5.20
   8  -8  -6   43.05    5.63
   8  -8  -5   34.99    4.85
   8  -8  -4   33.43    4.05
   8  -8  -3   51.87    4.60
   8  -8  -2   92.37    5.07
   8  -8  -1   82.22    3.38
   8  -7  -4   67.97    6.06
   8  -7  -3    6.05    1.55
   8  -7  -2   21.56    2.63
   8  -7  -1    6.05    1.13
  -8  -6  20   24.12    7.38
  -8  -6  19    4.15    3.47
  -8  -6  18   64.22   11.36
  -8  -6  17   18.57    6.43
  -8  -6  16   66.87   11.01
  -8  -6  15    7.94    3.68
   8  -6  -9    9.52    3.55
   8  -6  -8  245.49   16.63
   8  -6  -7   13.08    3.83
   8  -6  -6    2.76    1.61
   8  -6   0   61.64    3.28
  -8  -6  -5   98.96   10.91
  -8  -6  -6   34.71    6.91
  -8  -5  21    8.12    4.58
  -8  -5  20   -0.81    0.84
  -8  -5  19    4.60    3.21
  -8  -5  18    4.74    3.17
  -8  -5  17    4.40    2.36
  -8  -5  16   25.81    6.85
  -8  -5  15   18.24    5.57
  -8  -5  14   26.46    6.47
  -8  -5  13   58.46    9.45
  -8  -5  12   12.81    4.45
  -8  -5  11   37.55    7.23
   8  -5  -9   35.18    6.64
   8  -5  -8  258.55   16.92
   8  -5  -7  208.11   14.65
   8  -5  -6   92.14    9.38
   8  -5  -5   95.96    9.07
   8  -5  -4  286.95   15.05
   8  -5  -3  287.54   14.11
   8  -5  -2  130.86    8.77
   8  -5   1   67.80    3.67
   8  -5   2   64.27    2.90
   8  -5   3    1.93    0.95
  -8  -5  -5   60.22    8.52
  -8  -5  -6    8.95    3.21
  -8  -5  -7   32.19    6.33
  -8  -5  -8   27.84    6.05
  -8  -4  21   50.06   10.91
  -8  -4  20   42.36    9.78
  -8  -4  19   71.01   12.22
  -8  -4  18   22.03    6.82
  -8  -4  17   17.20    5.60
  -8  -4  16   23.96    6.49
  -8  -4  15   32.93    7.46
  -8  -4  14   13.77    4.76
  -8  -4  13   51.58    9.10
  -8  -4  12   26.43    6.26
  -8  -4  11   11.32    3.73
   8  -4 -10    7.71    3.39
  -8  -4  10    7.18    3.04
  -8  -4   9   43.03    7.14
   8  -4  -9   42.57    6.92
  -8  -4   8  157.30   13.52
   8  -4  -8  140.17   12.23
   8  -4  -7   35.95    6.08
   8  -4  -6   49.32    6.72
   8  -4  -5   28.43    5.01
   8  -4  -4  108.69    9.23
   8  -4  -3   43.03    5.63
   8  -4  -2  261.56   12.47
   8  -4  -1  123.92    8.24
   8  -4   0  491.81   14.72
   8  -4   1   74.82    4.89
   8  -4   2  243.38    7.71
   8  -4   3   56.80    3.51
   8  -4   4  115.28    5.69
   8  -4   5   24.34    2.69
  -8  -4  -5   39.26    6.26
  -8  -4  -6  142.80   12.39
  -8  -4  -7   18.63    4.47
  -8  -4  -8   48.71    7.77
  -8  -4  -9   38.59    6.40
  -8  -3  21   10.22    5.02
  -8  -3  20    0.70    1.19
  -8  -3  19   24.57    6.90
  -8  -3  18   12.70    5.16
  -8  -3  17   -0.20    0.82
  -8  -3  16    9.41    3.97
  -8  -3  15   21.53    5.79
  -8  -3  14   20.65    5.41
  -8  -3  13   11.66    4.24
  -8  -3  12   87.10   10.99
  -8  -3  11   58.34    8.85
  -8  -3  10   58.65    8.66
   8  -3 -10   50.88    7.95
  -8  -3   9  102.28   11.30
   8  -3  -9  155.69   13.82
  -8  -3   8  229.32   16.41
   8  -3  -8  246.20   16.80
  -8  -3   7   95.70   10.21
   8  -3  -7   73.96    8.88
  -8  -3   6   38.89    6.09
   8  -3  -6   45.90    6.51
   8  -3  -5   49.52    6.61
   8  -3  -4  307.97   15.65
   8  -3  -3  168.62   11.05
   8  -3  -2   55.69    5.79
   8  -3  -1   48.30    5.12
   8  -3   0  276.76   11.08
   8  -3   1   28.76    3.29
   8  -3   1   28.04    3.26
   8  -3   2   19.00    2.42
   8  -3   2   21.83    2.32
   8  -3   3    6.17    1.36
   8  -3   4   28.91    3.13
   8  -3   5    4.88    1.33
  -8  -3  -5    6.81    2.67
   8  -3   6    2.35    1.10
  -8  -3  -6    2.85    1.74
   8  -3   7    6.41    1.71
  -8  -3  -7   14.79    3.93
  -8  -3  -8   67.31    8.15
  -8  -3  -9   34.25    6.02
  -8  -3 -10   72.67    8.60
  -8  -3 -11   32.83    6.09
   8  -3  15   30.97    3.12
   8  -3  16    3.82    1.35
  -8  -2  22   38.67    9.69
  -8  -2  21   56.69   11.39
  -8  -2  20   77.03   12.84
  -8  -2  19   38.34    8.77
  -8  -2  18   16.66    5.69
  -8  -2  17   24.71    6.70
  -8  -2  16   61.12   10.12
  -8  -2  15    7.67    3.66
  -8  -2  14   10.32    4.30
  -8  -2  13    5.53    3.09
  -8  -2  12  165.75   15.43
  -8  -2  11    9.40    3.83
  -8  -2  10  152.97   13.75
   8  -2 -10  182.21   14.91
  -8  -2   9   15.10    4.35
   8  -2  -9    9.54    3.28
  -8  -2   8   61.36    8.01
   8  -2  -8   62.57    8.15
  -8  -2   7   36.77    6.10
   8  -2  -7   39.51    6.14
  -8  -2   6    6.74    2.62
   8  -2  -6    4.08    1.99
  -8  -2   5    7.16    2.56
   8  -2  -5    6.32    2.25
  -8  -2   4   97.43    8.93
   8  -2  -4  108.11    9.17
   8  -2  -3   29.94    4.70
   8  -2  -2   51.99    5.69
   8  -2  -1  118.75    8.00
   8  -2   0 1130.05   22.70
   8  -2   1  135.21    7.86
   8  -2   1  108.69    6.30
   8  -2   2  236.19   10.09
   8  -2   2  212.83    7.77
   8  -2   3   49.98    4.47
   8  -2   3   55.92    3.50
   8  -2   4  225.77    9.69
   8  -2   4   88.57    3.22
   8  -2   5   20.51    3.03
  -8  -2  -5   22.22    4.36
   8  -2   6   22.40    3.36
  -8  -2  -6   30.57    4.97
   8  -2   7    4.85    1.57
  -8  -2  -7    8.28    2.95
   8  -2   8  185.65   10.72
  -8  -2  -8  209.75   13.56
   8  -2   9   37.16    5.05
  -8  -2  -9   35.87    5.84
  -8  -2 -10   43.30    6.45
  -8  -2 -11   15.82    4.09
   8  -2  11    1.66    0.60
  -8  -2 -12   28.96    5.66
   8  -2  12    6.83    1.15
   8  -2  13   11.50    1.80
   8  -2  14   24.46    3.04
   8  -2  15    9.87    2.34
   8  -2  16    1.99    1.22
   8  -2  17    7.37    1.89
  -8  -1  22    2.77    2.69
  -8  -1  21    9.24    4.22
  -8  -1  20   10.01    4.35
  -8  -1  19   16.71    5.63
  -8  -1  18    1.91    1.17
  -8  -1  17    6.48    3.32
  -8  -1  16   14.55    4.92
  -8  -1  15   82.32   11.52
  -8  -1  14    4.19    2.66
  -8  -1  13   20.42    5.26
  -8  -1  12  125.14   13.07
  -8  -1  11   42.21    7.33
  -8  -1  10    9.92    3.81
   8  -1 -10   11.74    3.87
  -8  -1   9   88.39   10.02
   8  -1  -9   67.02    8.75
  -8  -1   8  152.55   12.84
   8  -1  -8  215.38   15.13
  -8  -1   7   47.51    6.86
   8  -1  -7   43.36    6.60
  -8  -1   6   13.65    3.63
   8  -1  -6    7.80    2.60
  -8  -1   5  102.23    9.18
   8  -1  -5   74.50    7.83
  -8  -1   4  580.45   21.70
   8  -1  -4  617.99   21.47
  -8  -1   3  166.94   11.10
   8  -1  -3  120.26    9.36
   8  -1  -2   58.01    5.93
   8  -1  -1   36.59    4.61
   8  -1   0  390.49   15.18
   8  -1   0  380.75   13.72
   8  -1   1   56.70    5.37
   8  -1   1   70.59    5.47
   8  -1   2   17.94    2.99
   8  -1   2   10.41    1.85
   8  -1   3  159.34    7.01
   8  -1   3  129.52    8.00
   8  -1   4   59.06    3.31
   8  -1   4  163.33    8.92
   8  -1   5   70.19    6.03
   8  -1   5   73.56    3.71
  -8  -1  -5   58.78    6.89
   8  -1   6   33.80    4.31
  -8  -1  -6   28.81    4.75
   8  -1   6   18.24    1.49
   8  -1   7   26.61    4.15
  -8  -1  -7   33.11    5.35
   8  -1   7   10.05    1.09
   8  -1   7    8.31    0.94
  -8  -1  -8   80.36    8.01
   8  -1   8   61.75    6.33
  -8  -1  -9   50.03    6.65
   8  -1   9   68.62    7.23
   8  -1   9   10.13    1.23
  -8  -1 -10  115.66   10.27
   8  -1  10  107.72    9.41
   8  -1  10   40.15    2.55
  -8  -1 -11   24.32    4.85
   8  -1  11   10.76    1.64
  -8  -1 -12    7.05    2.65
   8  -1  12    4.09    1.31
  -8  -1 -13   47.48    7.12
   8  -1  13   14.65    2.19
   8  -1  14   66.34    5.91
   8  -1  15    2.87    1.49
   8  -1  16   13.72    3.12
   8  -1  17   47.52    5.90
   8  -1  18    1.78    1.61
  -8   0  22    5.55    3.59
  -8   0  21   99.80   14.72
  -8   0  20   17.27    6.10
  -8   0  19   93.54   13.56
  -8   0  18    6.08    3.71
  -8   0  17   59.34   10.17
  -8   0  16    7.94    3.50
  -8   0  15   21.36    5.76
  -8   0  14    9.41    4.19
  -8   0  13    9.55    3.68
  -8   0  12  181.08   15.30
  -8   0  11    3.88    2.16
  -8   0  10   63.98    8.53
   8   0 -10   62.98    8.48
  -8   0   9   12.67    3.67
   8   0  -9   14.16    3.95
  -8   0   8   59.03    7.57
   8   0  -8   57.67    7.64
  -8   0   7    4.27    1.87
   8   0  -7    4.76    2.12
  -8   0   6  262.04   15.33
   8   0  -6  257.36   14.97
  -8   0   5   58.79    7.18
   8   0  -5   49.83    6.62
  -8   0   4  612.30   21.61
   8   0  -4  583.59   21.00
  -8   0   3  133.80    9.67
   8   0  -3  129.41    9.65
   8   0  -2  580.21   19.49
  -8   0   2  588.41   19.47
   8   0  -1  153.92    9.58
  -8   0   1  150.21    9.17
   8   0   0  648.81   18.27
   8   0   0  630.07   20.62
   8   0   1  152.93    8.57
   8   0   1  144.14    9.24
   8   0   2  439.03   13.52
   8   0   2  414.20   15.44
   8   0   3   64.14    4.90
   8   0   3   90.62    7.33
   8   0   4  583.40   14.38
   8   0   4  714.60   20.10
   8   0   5   76.15    6.67
   8   0   5   84.21    5.39
  -8   0  -5   82.36    7.70
  -8   0  -6  205.17   11.98
   8   0   6  187.45   10.75
  -8   0  -7    2.47    1.45
   8   0   7    3.87    1.66
  -8   0  -8    0.61    0.89
   8   0   8    0.96    0.92
   8   0   8    0.67    0.48
  -8   0  -9    4.52    1.98
   8   0   9    2.56    1.42
   8   0   9    1.87    0.68
  -8   0 -10    4.28    1.94
   8   0  10    4.93    2.13
   8   0  10    2.84    1.02
  -8   0 -11    0.74    0.71
   8   0  11    0.44    0.45
   8   0  11    1.20    0.77
  -8   0 -12   14.12    3.70
   8   0  12   12.84    2.70
  -8   0 -13   15.52    4.06
   8   0  13    8.91    2.07
   8   0  14    1.43    0.99
   8   0  15    1.15    1.04
   8   0  16    3.32    1.28
   8   0  17   16.06    3.59
   8   0  18    4.30    1.82
   8   0  19    2.32    1.30
  -8   1  22    3.35    3.18
  -8   1  21    5.45    3.80
  -8   1  20   10.32    4.26
  -8   1  19   13.12    5.17
  -8   1  18    1.52    1.95
  -8   1  17    5.84    3.48
  -8   1  16   24.40    6.15
  -8   1  15   88.93   11.95
  -8   1  14    6.61    3.21
  -8   1  13   14.83    4.60
  -8   1  12  131.52   13.10
  -8   1  11   31.91    6.47
  -8   1  10   12.33    3.95
   8   1 -10    7.02    3.10
  -8   1   9   68.96    8.81
   8   1  -9   83.84    9.67
  -8   1   8  210.46   14.87
   8   1  -8  143.21   12.39
   8   1  -7   50.86    7.10
  -8   1   7   44.05    6.51
  -8   1   6    7.35    2.57
   8   1  -6   11.72    3.43
   8   1  -5  111.93    9.91
  -8   1   5   77.18    8.00
  -8   1   4  613.04   20.85
   8   1  -4  573.26   21.61
  -8   1   3  125.11    9.27
   8   1  -3  164.34   10.95
   8   1  -2   47.74    5.70
  -8   1   2   59.37    5.94
   8   1  -1   47.00    5.44
  -8   1   1   37.14    4.51
   8   1   0  419.02   15.51
  -8   1   0  412.87   13.88
   8   1   0  401.45   17.31
   8   1   1   36.18    4.47
   8   1   1   44.40    5.58
   8   1   2   18.77    3.02
   8   1   2   15.80    3.18
   8   1   3  106.95    7.29
   8   1   3  101.52    8.23
   8   1   4  220.30    9.84
   8   1   4  199.11   11.33
   8   1   5   55.03    6.04
  -8   1  -5   76.53    6.83
  -8   1  -6   43.08    5.25
   8   1   6   28.65    4.49
  -8   1  -7   26.24    4.31
   8   1   7   25.42    4.26
  -8   1  -8   57.48    6.38
   8   1   8   73.61    7.52
  -8   1  -9   64.77    6.75
   8   1   9   44.43    4.67
   8   1   9   44.62    6.22
  -8   1 -10  111.87    9.36
   8   1  10  121.94   10.82
   8   1  10   98.91    7.12
  -8   1 -11   20.00    3.94
   8   1  11   24.17    4.95
   8   1  11   16.92    3.05
  -8   1 -12    5.58    2.24
   8   1  12    8.82    3.08
   8   1  12    4.66    1.72
  -8   1 -13   42.27    6.34
   8   1  13   38.52    4.89
  -8   1 -14   63.89    7.90
   8   1  14   66.72    6.92
   8   1  15   15.91    3.43
   8   1  16   40.19    5.90
   8   1  17   45.25    6.30
   8   1  18   19.92    4.28
   8   1  19    4.66    1.91
  -8   2  21   70.07   12.44
  -8   2  20   59.34   11.11
  -8   2  19   48.44    9.59
  -8   2  18   10.08    4.57
  -8   2  17   32.38    7.54
  -8   2  16   65.28   10.35
  -8   2  15    7.55    3.35
  -8   2  14    9.36    3.95
  -8   2  13    4.84    2.55
  -8   2  12  159.34   14.41
  -8   2  11   13.26    4.15
  -8   2  10  174.37   14.13
   8   2 -10  156.22   14.08
  -8   2   9   11.57    3.47
   8   2  -9   12.73    3.76
  -8   2   8   64.44    8.01
   8   2  -8   62.50    8.23
   8   2  -7   38.99    6.46
  -8   2   7   38.88    5.99
   8   2  -6    5.08    2.31
  -8   2   6    4.40    2.03
   8   2  -5    7.36    2.67
  -8   2   5    5.99    2.23
  -8   2   4  109.39    8.95
   8   2  -4   97.80    9.19
  -8   2   3   31.61    4.67
   8   2  -3   39.54    5.64
   8   2  -2   40.51    5.46
  -8   2   2   53.68    5.54
  -8   2   1  115.95    7.75
   8   2  -1   88.81    7.98
  -8   2   0 1094.71   21.82
   8   2   0 1041.43   26.41
   8   2   0 1020.39   28.73
   8   2   1  195.76   11.05
   8   2   1  185.88   11.81
   8   2   2  270.26   12.98
   8   2   2  241.49   13.24
   8   2   3   38.97    5.46
   8   2   4  237.34   12.94
   8   2   5   19.64    3.71
  -8   2  -6   26.59    3.91
   8   2   6   26.99    4.41
  -8   2  -7    5.35    1.81
   8   2   7    6.22    2.47
  -8   2  -8  184.25   10.65
   8   2   8  196.16   12.81
  -8   2  -9   43.30    5.25
   8   2   9   37.98    6.08
  -8   2 -10   41.01    5.36
   8   2  10   42.31    6.37
   8   2  10   43.24    5.12
  -8   2 -11    9.00    2.78
   8   2  11   14.82    3.98
   8   2  11   15.66    3.23
  -8   2 -12   31.37    5.12
   8   2  12   27.98    5.71
   8   2  12   20.54    3.99
  -8   2 -13   19.13    3.89
   8   2  13   29.01    5.94
   8   2  13   32.50    5.03
  -8   2 -14   25.10    4.82
   8   2  14   17.24    4.06
  -8   2 -15   15.51    4.01
   8   2  15   13.60    3.46
   8   2  16    4.51    2.02
   8   2  17    4.88    1.98
   8   2  18    2.07    1.59
   8   2  19    5.32    2.39
   8   2  20    5.36    2.68
  -8   3  21   18.82    6.28
  -8   3  20    4.54    2.80
  -8   3  19   18.16    6.14
  -8   3  18   19.44    6.16
  -8   3  17    0.81    2.10
  -8   3  16    8.70    3.88
  -8   3  15   15.07    4.76
  -8   3  14   25.62    6.12
  -8   3  13   14.66    4.77
  -8   3  12  109.99   12.31
  -8   3  11   60.42    9.12
  -8   3  10   53.33    7.98
  -8   3   9  151.90   13.15
   8   3  -9   91.57   10.55
  -8   3   8  249.78   16.15
   8   3  -8  221.71   15.81
  -8   3   7   83.27    9.15
   8   3  -7   96.23   10.15
  -8   3   6   47.67    6.41
   8   3  -6   39.32    6.24
   8   3  -5   76.79    8.62
  -8   3   5   52.95    6.60
   8   3  -4  256.60   15.15
  -8   3   4  296.67   14.55
   8   3  -3  219.90   13.69
  -8   3   3  164.61   10.35
   8   3  -2   37.09    5.51
  -8   3   2   55.68    5.65
   8   3  -1   69.43    7.14
  -8   3   1   56.62    5.47
   8   3  -1   62.87    7.52
  -8   3   0  288.49   10.98
   8   3   0  249.73   13.74
   8   3   0  233.77   14.23
  -8   3  -1   38.50    3.74
   8   3   1   22.86    4.08
   8   3   1   26.98    4.96
  -8   3  -2   21.07    2.28
   8   3   2   14.38    3.46
   8   3   3   13.71    3.50
   8   3   4   31.31    4.86
   8   3   5    5.76    2.16
   8   3   6    4.14    1.86
  -8   3  -6    1.47    0.70
  -8   3  -7   11.08    2.38
   8   3   7    9.02    2.80
  -8   3  -8   64.39    5.83
   8   3   8   55.28    7.03
  -8   3  -9   35.32    4.55
   8   3   9   28.76    5.31
  -8   3 -10   48.72    5.59
   8   3  10   74.58    8.88
  -8   3 -11   34.74    4.84
   8   3  11   31.72    5.89
   8   3  11   40.68    5.64
  -8   3 -12    2.64    1.59
   8   3  12    2.36    1.84
   8   3  12    3.03    1.68
  -8   3 -13   35.60    5.30
   8   3  13   34.96    6.53
   8   3  13   37.59    5.95
  -8   3 -14   35.41    5.60
   8   3  14   29.34    6.32
   8   3  14   23.22    4.66
  -8   3 -15   44.05    6.57
   8   3  15   27.34    5.14
  -8   3 -16    4.43    2.14
   8   3  16    6.32    2.58
   8   3  17   23.54    5.39
   8   3  18   19.02    4.67
   8   3  19   12.55    3.81
   8   3  20   -0.69    1.36
  -8   4  21   49.77   10.57
  -8   4  20   22.77    7.02
  -8   4  19   79.34   12.70
  -8   4  18   13.05    5.44
  -8   4  17   18.49    5.73
  -8   4  16   14.47    5.12
  -8   4  15   40.17    8.15
  -8   4  14    9.65    3.93
  -8   4  13   42.63    7.90
  -8   4  12   15.18    4.43
  -8   4  11   15.76    4.26
  -8   4  10    8.23    3.32
  -8   4   9   42.17    6.82
  -8   4   8  140.12   12.06
   8   4  -8  161.48   13.81
   8   4  -7   52.60    7.91
  -8   4   7   43.62    6.76
  -8   4   6   49.13    6.58
   8   4  -6   46.10    6.96
   8   4  -5   43.74    6.65
  -8   4   5   30.73    5.15
  -8   4   4  113.30    9.21
   8   4  -4   85.77    9.17
   8   4  -3   69.04    8.16
  -8   4   3   48.32    5.74
   8   4  -2  204.11   13.25
  -8   4   2  288.44   13.22
  -8   4   1  146.70    9.09
   8   4  -1  193.48   12.96
   8   4  -1  182.18   13.53
  -8   4   0  530.91   15.11
   8   4   0  434.31   18.85
   8   4   0  428.24   19.87
  -8   4  -1   60.41    4.66
   8   4   1  114.19   10.56
  -8   4  -2  319.60    9.13
   8   4   2  271.16   15.48
  -8   4  -3   38.96    2.32
   8   4   3  108.04    9.77
   8   4   4   96.66    9.07
   8   4   5   33.41    5.30
   8   4   6  122.12   10.47
   8   4   7   13.01    3.45
  -8   4  -7    9.63    2.10
  -8   4  -8   67.16    5.73
   8   4   8   46.46    6.77
  -8   4  -9   32.54    4.09
   8   4   9   36.95    6.11
  -8   4 -10    5.15    1.65
   8   4  10    5.44    2.21
  -8   4 -11    2.04    1.08
   8   4  11    3.71    1.95
   8   4  11    3.49    2.01
  -8   4 -12    1.19    1.09
   8   4  12    0.62    0.64
   8   4  12    1.63    1.73
  -8   4 -13    1.68    0.97
   8   4  13    1.13    1.63
   8   4  13    0.90    0.89
  -8   4 -14    6.91    2.40
   8   4  14   11.38    3.60
   8   4  14    9.55    3.74
  -8   4 -15   23.06    4.58
   8   4  15   21.47    5.76
   8   4  15   15.32    4.17
  -8   4 -16   -0.43    0.75
   8   4  16    2.89    1.93
   8   4  17    5.32    2.72
   8   4  18    2.70    1.76
   8   4  19    6.46    3.00
   8   4  20    4.83    2.60
   8   4  21   12.14    4.10
  -8   5  20    4.16    3.52
  -8   5  19    3.04    2.53
  -8   5  18    1.70    2.07
  -8   5  17    2.98    2.09
  -8   5  16   45.22    9.14
  -8   5  15   21.97    6.00
  -8   5  14   19.44    5.74
  -8   5  13   51.21    8.62
  -8   5  12   22.55    5.95
  -8   5  11   36.78    7.09
  -8   5  10   16.87    4.52
  -8   5   9   36.56    6.53
  -8   5   8  246.77   16.15
   8   5  -7  288.71   18.37
  -8   5   7  210.63   14.46
   8   5  -6   64.20    8.44
  -8   5   6   99.26    9.45
   8   5  -5  128.68   11.81
  -8   5   5   97.39    9.05
   8   5  -4  204.52   14.74
  -8   5   4  303.40   15.23
   8   5  -3  349.65   18.38
  -8   5   3  303.90   14.45
   8   5  -2  132.54   11.90
   8   5  -2  133.76   11.49
  -8   5   2  154.44    9.71
   8   5  -1   30.08    5.77
   8   5  -1   31.46    5.45
  -8   5   1   49.79    5.18
  -8   5   0   98.86    6.93
   8   5   0   88.52    8.82
   8   5   0   85.19    9.05
  -8   5  -1   78.83    5.59
   8   5   1   86.06    9.15
  -8   5  -2   96.09    5.49
   8   5   2   67.80    7.98
  -8   5  -3  103.04    4.51
   8   5   3   65.56    8.04
   8   5   4  139.17   11.37
   8   5   5   50.29    6.82
   8   5   6   11.06    3.25
   8   5   7   28.39    5.44
  -8   5  -8   26.11    3.21
   8   5   8   25.14    5.07
  -8   5  -9   72.20    5.65
   8   5   9   55.92    7.81
  -8   5 -10   20.57    3.12
   8   5  10   19.42    4.73
  -8   5 -11   24.83    3.69
   8   5  11   28.89    6.08
  -8   5 -12   18.85    3.57
   8   5  12   39.00    7.20
   8   5  12   33.69    5.84
  -8   5 -13   30.05    4.45
   8   5  13   24.58    5.08
   8   5  13   29.16    6.49
  -8   5 -14   54.33    6.71
   8   5  14   94.86   11.83
   8   5  14   90.61    9.92
  -8   5 -15   11.64    3.08
   8   5  15    6.95    3.41
   8   5  15    7.31    3.17
  -8   5 -16    3.12    1.77
   8   5  16    6.38    2.83
   8   5  17    9.17    3.48
   8   5  18   44.87    7.74
   8   5  19    3.96    2.42
   8   5  20   10.00    3.97
   8   5  21   18.25    5.44
  -8   6  20   22.80    7.18
  -8   6  19    9.35    4.52
  -8   6  18   46.05    9.92
  -8   6  17   37.37    8.51
  -8   6  16   69.84   11.22
  -8   6  15   11.58    4.40
  -8   6  14    9.80    4.08
  -8   6  13   39.97    7.75
  -8   6  12   13.33    4.54
  -8   6  11   27.37    6.06
  -8   6  10   33.05    6.73
  -8   6   9    7.82    3.25
  -8   6   8  242.96   16.57
  -8   6   7   15.27    4.22
   8   6  -6    3.95    2.39
  -8   6   6    4.09    2.24
   8   6  -5    7.46    2.80
  -8   6   5   10.28    3.13
   8   6  -4   56.79    7.78
  -8   6   4   62.96    7.14
   8   6  -3   20.87    4.93
  -8   6   3   21.96    4.19
   8   6  -2   12.76    3.87
   8   6  -2   11.97    3.75
  -8   6   2   19.91    3.61
   8   6  -1   89.65   10.07
   8   6  -1   87.97    9.30
  -8   6   1   69.78    6.46
   8   6   0   62.75    8.45
  -8   6   0   99.45    7.22
   8   6   1   66.94    8.39
  -8   6  -1   52.39    4.94
   8   6   2   67.49    8.17
  -8   6  -2   94.49    5.88
  -8   6  -3   85.94    4.66
   8   6   3  109.55   10.61
  -8   6  -4   23.99    1.97
   8   6   4   20.71    4.54
   8   6   5   80.53    8.91
   8   6   6   28.05    5.38
   8   6   7  131.54   11.96
  -8   6  -8   36.44    2.89
   8   6   8   45.61    7.14
  -8   6  -9   29.25    3.24
   8   6   9   48.00    7.50
  -8   6 -10   32.69    3.67
   8   6  10   25.84    5.70
  -8   6 -11   23.21    3.21
   8   6  11   24.49    5.77
  -8   6 -12   13.09    2.74
   8   6  12    7.91    3.26
  -8   6 -13    1.44    0.91
   8   6  13    1.91    1.60
   8   6  13    3.98    2.07
  -8   6 -14   15.83    3.40
   8   6  14   11.66    3.76
   8   6  14   14.26    5.00
  -8   6 -15    3.97    1.70
   8   6  15    6.68    2.80
   8   6  15    7.67    3.49
   8   6  16    8.14    3.75
   8   6  16    4.75    2.52
   8   6  17    3.68    2.01
   8   6  18    4.28    2.21
   8   6  19    5.98    3.24
   8   6  20   14.99    4.98
   8   6  21   14.19    4.81
  -8   7  19    8.29    4.26
  -8   7  18    4.89    3.04
  -8   7  17    1.58    1.96
  -8   7  16    5.59    3.32
  -8   7  15   21.99    6.08
  -8   7  14   28.43    6.92
  -8   7  13   11.69    4.47
  -8   7  12   62.98    9.73
  -8   7  11   15.45    4.85
  -8   7  10   12.06    4.18
  -8   7   9   43.62    7.27
  -8   7   8  111.04   11.19
  -8   7   7   58.84    8.08
  -8   7   6   67.95    8.37
  -8   7   5   32.03    5.65
   8   7  -4   57.24    8.37
  -8   7   4   82.00    8.58
   8   7  -3   10.73    3.76
   8   7  -3   11.38    3.70
  -8   7   3    8.97    2.71
   8   7  -2   21.12    4.83
   8   7  -2   20.20    4.64
  -8   7   2   33.26    5.09
   8   7  -1    7.39    2.89
  -8   7   1    9.48    2.65
   8   7   0   83.43   10.02
  -8   7   0  111.83    8.27
   8   7   1   47.54    7.36
  -8   7  -1   42.74    4.69
   8   7   2    5.96    2.61
  -8   7  -2    8.69    1.87
   8   7   3   13.74    3.80
  -8   7  -3   20.75    2.65
   8   7   4   14.85    4.07
  -8   7  -4   11.96    1.79
   8   7   5    1.70    1.56
  -8   7  -5    1.88    0.44
   8   7   6   17.57    4.33
   8   7   7   17.00    4.54
   8   7   8   54.58    8.13
  -8   7  -9   16.17    1.74
   8   7   9   12.72    3.86
  -8   7 -10    4.17    1.06
   8   7  10   12.41    3.99
  -8   7 -11    5.46    1.49
   8   7  11    6.94    3.35
  -8   7 -12    0.38    0.64
   8   7  12    3.74    2.59
  -8   7 -13   20.83    3.25
   8   7  13   23.22    6.43
   8   7  13   14.56    4.47
   8   7  14   16.72    4.59
   8   7  14   21.59    6.17
   8   7  15    9.94    4.38
   8   7  15    9.51    3.83
   8   7  16    6.43    3.42
   8   7  16    6.31    3.06
   8   7  17   23.95    6.14
   8   7  18   10.67    4.30
   8   7  19    6.44    3.82
   8   7  20    7.93    3.87
   8   7  21   14.96    5.27
   8   7  22    7.83    3.79
  -8   8  19    9.63    4.60
  -8   8  18   25.41    7.22
  -8   8  17   13.51    5.26
  -8   8  16   20.23    6.13
  -8   8  15   11.13    4.63
  -8   8  14   25.48    6.80
  -8   8  13   16.79    5.29
  -8   8  12    7.44    3.31
  -8   8  11   17.24    5.08
  -8   8  10   18.54    4.99
  -8   8   9   30.23    6.33
  -8   8   8   59.45    8.60
  -8   8   7   39.18    7.07
  -8   8   6   53.83    7.90
  -8   8   5   38.66    6.26
   8   8  -4   30.32    6.52
  -8   8   4   46.98    6.78
   8   8  -3   79.52   10.59
  -8   8   3   69.79    8.00
   8   8  -2   75.30    9.68
  -8   8   2  129.61   10.37
   8   8  -1  148.29   14.21
  -8   8   1  132.73    9.83
   8   8   0   41.68    6.97
  -8   8   0   73.75    6.97
   8   8   1   54.20    8.04
  -8   8  -1   53.82    5.68
   8   8   2   74.96    9.51
  -8   8  -2  130.40    8.40
   8   8   3  146.66   13.05
  -8   8  -3  148.14    8.45
   8   8   4   15.57    4.41
  -8   8  -4   23.99    3.16
   8   8   5    1.57    1.11
  -8   8  -5    2.52    0.80
   8   8   6   41.86    7.15
  -8   8  -6   55.63    3.33
  -8   8  -6   55.49    3.53
   8   8   7  102.61   11.30
   8   8   8   33.36    6.68
   8   8   9    0.13    0.73
   8   8  10   12.32    3.93
  -8   8 -11    8.65    1.33
   8   8  11   14.59    4.67
   8   8  12   12.24    4.44
   8   8  13    3.07    2.90
   8   8  14    1.65    1.53
   8   8  14    3.92    2.68
   8   8  15    7.14    3.16
   8   8  15   12.49    4.68
   8   8  16   20.57    6.05
   8   8  16   19.56    5.44
   8   8  17    8.39    4.01
   8   8  18    2.39    2.10
   8   8  19    3.89    2.79
   8   8  20    3.50    2.89
   8   8  21   -1.27    1.42
   8   8  22    2.08    2.30
  -8   9  18    7.00    3.84
  -8   9  17    0.58    2.09
  -8   9  16   22.65    6.94
  -8   9  15   15.48    5.77
  -8   9  14   18.53    5.61
  -8   9  13    8.08    3.86
  -8   9  12    5.47    3.51
  -8   9  11   24.42    6.21
  -8   9  10   20.30    5.59
  -8   9   9   10.18    3.76
  -8   9   8    4.12    1.95
  -8   9   7   15.82    4.30
  -8   9   6   14.27    4.17
   8   9  -5   46.54    8.30
  -8   9   5   46.67    7.14
   8   9  -4    9.61    3.85
  -8   9   4   15.41    4.14
   8   9  -3   96.28   11.79
  -8   9   3  113.95   10.47
   8   9  -2   13.13    4.23
  -8   9   2   20.60    4.57
   8   9  -1    2.04    1.64
  -8   9   1    3.76    1.80
   8   9   0   40.95    7.37
  -8   9   0   42.48    5.85
   8   9   1   66.00    9.15
  -8   9  -1   67.21    6.84
   8   9   2   57.44    8.60
  -8   9  -2   57.02    6.08
   8   9   3   10.03    3.56
  -8   9  -3   18.03    3.34
   8   9   4  118.98   12.19
  -8   9  -4  122.26    7.98
   8   9   5   10.97    3.79
  -8   9  -5   18.35    2.63
   8   9   6    4.63    2.45
  -8   9  -6    3.58    1.11
  -8   9  -6    3.90    0.98
   8   9   7   10.64    3.70
  -8   9  -7   21.44    2.42
  -8   9  -7   18.66    2.15
   8   9   8   15.45    4.53
  -8   9  -8    8.39    1.20
  -8   9  -8    8.41    1.13
   8   9   9   10.93    3.91
  -8   9  -9    8.18    1.04
  -8   9  -9    8.60    1.02
   8   9  10    4.60    2.27
   8   9  11    5.11    3.25
   8   9  12    4.59    2.82
   8   9  13   33.87    8.21
   8   9  14   43.32    9.06
   8   9  14   33.20    7.22
   8   9  15   10.76    4.32
   8   9  15   14.99    5.75
   8   9  16    5.06    3.14
   8   9  16    5.36    3.00
   8   9  17    6.80    4.11
   8   9  17    4.13    2.93
   8   9  18   18.15    6.13
   8   9  19    2.33    2.21
   8   9  20    4.17    3.00
   8   9  21    5.31    4.07
  -8  10  17    0.90    1.88
  -8  10  16   16.04    5.97
  -8  10  15   10.08    3.82
  -8  10  14    9.28    3.93
  -8  10  13   13.40    5.08
  -8  10  12   11.72    4.51
  -8  10  11    4.67    3.11
  -8  10  10   29.92    7.13
  -8  10   9   18.39    5.13
  -8  10   8   11.61    4.07
  -8  10   7   24.26    5.47
   8  10  -6    8.65    3.85
  -8  10   6   17.08    4.68
   8  10  -5   60.33    9.99
  -8  10   5   45.21    7.32
   8  10  -4   26.25    6.16
  -8  10   4   41.34    6.88
   8  10  -3    6.54    2.99
  -8  10   3   12.09    4.01
   8  10  -2   37.02    7.59
  -8  10   2   25.98    5.11
   8  10  -1   78.67   10.41
  -8  10   1   86.86    9.16
   8  10   0   22.20    5.41
  -8  10   0   45.71    6.39
   8  10   1    8.55    3.33
  -8  10  -1   13.39    3.28
   8  10   2    6.40    2.55
  -8  10  -2    9.97    2.59
   8  10   3  105.54   12.02
  -8  10  -3  112.01    8.93
   8  10   4   13.24    4.05
  -8  10  -4   30.74    4.34
   8  10   5   52.78    8.55
  -8  10  -5   46.83    4.95
   8  10   6   11.26    3.76
  -8  10  -6   12.18    2.27
   8  10   7   20.47    5.25
  -8  10  -7   16.98    2.27
  -8  10  -7   23.89    3.21
   8  10   8    5.72    2.85
  -8  10  -8    4.81    1.35
  -8  10  -8    5.65    1.27
   8  10   9   35.96    8.43
  -8  10  -9   27.46    2.68
   8  10  10    2.27    2.27
   8  10  11   11.36    4.35
   8  10  12   24.85    6.82
   8  10  13   -0.38    1.51
   8  10  14   14.38    5.14
   8  10  14   18.43    6.44
   8  10  15    0.09    0.69
   8  10  15    1.38    1.79
   8  10  16    4.18    2.81
   8  10  16    0.94    1.46
   8  10  17    2.60    1.94
   8  10  18    4.00    2.87
   8  10  19   13.91    6.01
   8  10  20    4.27    3.39
  -8  11  16    2.48    2.80
  -8  11  15    8.90    3.90
  -8  11  14    6.61    3.72
  -8  11  13    2.35    1.90
  -8  11  12    6.23    3.83
  -8  11  11   28.60    7.05
  -8  11  10   14.12    4.92
  -8  11   9   11.54    4.37
  -8  11   8   34.07    7.25
   8  11  -7   60.61   10.52
  -8  11   7   60.36    9.19
   8  11  -6    6.95    3.91
  -8  11   6    6.45    3.18
   8  11  -5    7.16    3.42
  -8  11   5    7.53    3.24
   8  11  -4   20.77    5.61
  -8  11   4   20.71    5.00
   8  11  -3   -0.93    1.64
  -8  11   3    2.76    2.24
   8  11  -2    1.99    0.63
  -8  11   2    2.45    1.48
   8  11  -1  104.95   12.44
  -8  11   1  121.18   11.33
   8  11   0   36.63    7.20
  -8  11   0   48.04    6.78
   8  11   1    3.40    2.06
  -8  11  -1    6.78    2.82
   8  11   2    2.01    1.50
  -8  11  -2    3.89    1.86
   8  11   3    3.94    2.66
  -8  11  -3    6.06    2.26
   8  11   4    2.33    1.69
  -8  11  -4    1.87    0.77
   8  11   5    4.51    2.85
  -8  11  -5    5.53    2.07
   8  11   6    4.16    2.51
  -8  11  -6    2.51    1.04
   8  11   7    1.87    2.05
  -8  11  -7    3.46    1.23
  -8  11  -8    9.38    2.14
   8  11   8   12.63    4.34
   8  11   9    2.65    2.21
   8  11  10    2.76    2.42
   8  11  11    5.76    3.68
   8  11  12    1.44    2.04
   8  11  13    5.90    3.56
   8  11  14    8.66    4.04
   8  11  14   13.11    5.50
   8  11  15    3.83    2.82
   8  11  15    7.47    4.59
   8  11  16    2.09    1.71
   8  11  17   23.19    7.08
   8  11  18   12.32    5.34
  -8  12  15    6.27    4.39
  -8  12  14   11.55    4.93
  -8  12  13    5.30    3.05
  -8  12  12    1.45    2.15
  -8  12  11    4.57    2.75
  -8  12  10    0.25    0.63
   8  12  -9   40.32    8.87
  -8  12   9   30.23    7.09
   8  12  -8    6.82    3.69
  -8  12   8   11.11    3.97
   8  12  -7   19.51    6.31
  -8  12   7   15.15    4.87
   8  12  -6    8.98    4.15
  -8  12   6    7.03    3.37
   8  12  -5   14.44    4.80
  -8  12   5   14.05    4.71
   8  12  -4   24.86    6.91
  -8  12   4   16.97    4.70
   8  12  -3   12.50    4.66
  -8  12   3   12.27    3.91
   8  12  -2   17.27    5.30
  -8  12   2   25.84    5.79
   8  12  -1   80.56   11.12
  -8  12   1   91.58   10.03
   8  12   0    2.78    2.00
  -8  12   0   13.58    3.96
   8  12   1   10.65    4.04
  -8  12  -1   10.76    3.35
   8  12   2   15.43    4.85
  -8  12  -2   25.61    4.73
   8  12   3   45.01    8.14
  -8  12  -3   47.67    6.49
   8  12   4    5.45    2.93
  -8  12  -4    6.99    2.45
   8  12   5    5.37    2.49
  -8  12  -5    8.37    2.25
   8  12   6    5.25    3.04
  -8  12  -6    6.58    1.81
   8  12   7   25.68    6.38
  -8  12  -7   22.28    4.02
   8  12   8   10.80    4.08
   8  12   9   -0.34    1.04
   8  12  10    6.90    3.43
   8  12  11   -1.08    1.63
   8  12  12    3.68    3.00
   8  12  13   10.94    4.85
   8  12  14    4.01    2.56
   8  12  14    4.68    3.42
   8  12  15    1.89    1.65
   8  12  16    7.44    3.83
  -8  13  14    6.99    4.06
  -8  13  13    3.61    1.75
  -8  13  12    5.24    3.15
   8  13 -11   16.12    5.55
  -8  13  11   17.21    5.64
   8  13 -10    3.60    2.79
  -8  13  10    3.05    3.23
   8  13  -9    8.60    4.21
  -8  13   9    4.04    2.61
   8  13  -8    6.82    3.76
  -8  13   8   13.70    5.08
   8  13  -7   50.08    9.66
  -8  13   7   59.61   10.15
   8  13  -6    3.63    2.62
  -8  13   6    5.33    3.27
   8  13  -5   14.70    5.03
  -8  13   5   21.41    5.58
   8  13  -4    2.43    2.21
  -8  13   4    4.72    2.76
   8  13  -3   10.45    3.95
  -8  13   3   13.73    4.26
   8  13  -2   42.30    8.41
  -8  13   2   34.00    6.54
   8  13  -1    9.05    3.57
  -8  13   1    9.43    3.38
   8  13   0    8.81    3.55
  -8  13   0    9.86    3.24
   8  13   1   26.12    6.62
  -8  13  -1   33.52    6.02
   8  13   2    4.81    2.92
  -8  13  -2    5.14    2.14
   8  13   3    4.85    2.79
  -8  13  -3    5.69    2.71
   8  13   4   18.16    5.64
  -8  13  -4   13.57    3.54
   8  13   5    6.77    3.19
  -8  13  -5    6.39    2.21
   8  13   6   49.83    9.06
  -8  13  -6   48.55    6.40
   8  13   7    8.60    3.72
   8  13   8    7.77    3.65
   8  13   9    6.29    3.29
   8  13  10    9.97    4.56
   8  13  11    5.53    3.68
   8  13  12    4.48    2.97
   8  13  14   14.34    5.89
   8  14 -13    3.74    3.00
  -8  14  13    1.25    2.46
   8  14 -12    7.23    4.25
  -8  14  12    8.11    4.53
   8  14 -11   -1.06    1.32
  -8  14  11    2.65    2.64
   8  14 -10   10.87    4.79
  -8  14  10    4.74    3.23
   8  14  -9    3.22    2.33
  -8  14   9    5.80    2.87
   8  14  -8    2.35    2.66
  -8  14   8    4.88    3.00
   8  14  -7    7.82    4.05
  -8  14   7    6.21    3.10
   8  14  -6   10.98    4.58
  -8  14   6   11.90    4.63
   8  14  -5    2.86    2.23
  -8  14   5    8.46    3.88
   8  14  -4    6.01    3.54
  -8  14   4    8.87    3.71
   8  14  -3    0.84    1.49
  -8  14   3    1.70    1.50
   8  14  -2    8.00    4.02
  -8  14   2   12.99    4.17
   8  14  -1    4.87    2.91
  -8  14   1    3.11    2.20
   8  14   0    9.53    3.96
  -8  14   0   12.18    4.00
   8  14   1    0.83    1.18
  -8  14  -1    1.71    0.66
   8  14   2   10.68    4.02
  -8  14  -2   11.73    3.36
   8  14   3    5.04    2.81
  -8  14  -3    7.11    2.76
   8  14   4    2.00    1.45
  -8  14  -4    2.59    1.47
   8  14   5    1.12    0.93
   8  14   6    3.69    1.93
   8  14   7    9.71    4.41
   8  14   8   -0.25    0.79
   8  14   9    5.37    3.16
   8  14  10    3.29    2.81
   8  15 -11    6.34    4.45
  -8  15  11    8.47    4.12
   8  15 -10    2.08    2.18
  -8  15  10    5.61    3.29
   8  15  -9    4.12    3.19
  -8  15   9    0.89    1.65
   8  15  -8    0.72    1.73
  -8  15   8    5.28    3.46
   8  15  -7   21.57    6.64
  -8  15   7   25.57    7.01
   8  15  -6    2.21    2.55
  -8  15   6    1.76    1.67
   8  15  -5    4.93    3.25
  -8  15   5    6.49    3.50
   8  15  -4    3.99    2.85
  -8  15   4    1.92    0.92
   8  15  -3    3.67    2.79
  -8  15   3    9.98    4.21
   8  15  -2    4.22    3.09
  -8  15   2    6.28    3.27
   8  15  -1    7.34    3.58
  -8  15   1   13.73    4.54
   8  15   0   -0.75    1.84
  -8  15   0    3.53    2.46
   8  15   1    2.88    2.16
  -8  15  -1    0.34    0.49
   8  15   2    7.22    4.11
  -8  15  -2    5.24    3.02
   8  15   3    1.72    1.33
  -8  15  -3    6.95    3.00
   8  15   4    3.76    3.40
   8  15   5    7.47    3.52
   8  15   6    5.00    3.13
   8  15   7    2.89    2.84
   8  15   8    8.84    4.34
   8  16  -9    0.80    1.61
  -8  16   9    2.13    2.00
   8  16  -8    6.95    3.81
  -8  16   8    7.44    4.32
   8  16  -7    1.91    2.23
  -8  16   7    0.92    1.35
   8  16  -6    6.36    2.93
  -8  16   6    8.12    3.73
   8  16  -5    9.70    4.48
  -8  16   5    7.25    4.13
   8  16  -4    5.49    3.39
  -8  16   4    2.27    0.99
   8  16  -3    1.99    2.18
  -8  16   3    2.48    2.47
   8  16  -2    5.62    3.60
  -8  16   2    9.68    4.22
   8  16  -1    7.10    3.37
  -8  16   1    9.70    4.22
   8  16   0    7.40    3.98
  -8  16   0   10.18    4.08
   8  16   1    4.88    3.33
  -8  16  -1    1.62    1.34
   8  16   2    2.99    1.78
   8  16   3    6.44    3.33
   8  16   4    0.21    0.55
   8  16   5    0.98    1.39
  -8  17   7    9.38    4.62
  -8  17   6    2.74    2.22
  -8  17   5    3.76    2.58
  -8  17   4    3.68    3.26
   8  17  -3    7.07    3.65
  -8  17   3    7.62    3.60
   8  17  -2    6.18    3.38
  -8  17   2    7.41    4.47
   8  17  -1    5.03    3.30
  -8  17   1    4.14    2.71
   8  17   0    1.95    2.05
  -8  18   5    2.07    2.96
  -8  18   4    0.54    2.26
   9 -10  -9   21.09    4.53
   9 -10  -8    6.24    2.20
   9 -10  -7   24.49    4.24
   9 -10  -6    1.72    1.25
   9 -10  -5   18.46    3.05
   9 -10  -4    2.00    0.74
   9 -10  -3   27.22    3.11
   9  -9 -10    9.49    3.47
   9  -9  -9   44.09    6.99
   9  -9  -8   16.48    3.97
   9  -9  -7   21.41    4.08
   9  -9  -6    2.25    1.10
   9  -9  -5   29.04    4.16
   9  -9  -4   18.82    3.02
   9  -9  -3    5.06    1.17
   9  -9  -2   55.67    3.43
   9  -8 -10   26.53    5.38
   9  -8  -9   31.94    5.64
   9  -8  -8    0.33    0.59
   9  -8  -7   47.80    6.17
   9  -8  -6   36.70    5.10
   9  -8  -5   78.20    7.11
   9  -8  -4    5.41    1.85
   9  -8  -3   84.74    5.89
   9  -8  -2    5.55    1.13
   9  -8  -1    1.10    0.28
   9  -7  -1    4.47    1.03
  -9  -6  19   33.75    8.76
  -9  -6  18    9.29    4.36
  -9  -6  17   27.22    7.71
   9  -6  -8   49.93    7.67
   9  -6  -7  182.38   14.14
   9  -6  -6    5.32    2.15
   9  -6  -5    8.05    2.65
   9  -6   0   29.94    2.58
   9  -6   1    0.48    0.25
  -9  -5  20   -0.37    0.98
  -9  -5  19    6.71    3.48
  -9  -5  18    1.87    1.54
  -9  -5  17   17.04    5.87
  -9  -5  16    1.97    2.37
  -9  -5  15   11.62    4.67
  -9  -5  14   25.24    6.37
  -9  -5  13    4.58    2.73
  -9  -5  12   11.97    4.12
   9  -5  -9   42.74    7.31
   9  -5  -8   95.84   10.45
   9  -5  -7   43.97    7.03
   9  -5  -6   37.66    6.31
   9  -5  -5   74.16    8.19
   9  -5  -4   45.72    6.19
   9  -5  -3   58.76    6.54
   9  -5  -2   14.16    2.88
   9  -5   0   38.10    3.62
   9  -5   1    4.98    1.13
   9  -5   2   14.55    1.82
   9  -5   3    8.03    1.09
   9  -5   4   60.83    3.71
  -9  -5  -6   87.21   10.41
  -9  -4  20    4.14    3.07
  -9  -4  19   17.26    6.16
  -9  -4  18    9.82    4.49
  -9  -4  17   28.72    7.47
  -9  -4  16    2.14    2.64
  -9  -4  15   32.84    7.79
  -9  -4  14   20.43    6.11
  -9  -4  13   75.21   11.00
  -9  -4  12   51.19    9.07
  -9  -4  11  184.42   16.56
  -9  -4  10   22.00    5.70
  -9  -4   9   52.53    8.19
   9  -4  -9   71.85    9.46
   9  -4  -8   16.88    4.75
   9  -4  -7  221.54   15.52
   9  -4  -6    2.06    1.49
   9  -4  -5   39.28    5.77
   9  -4  -4   18.10    3.85
   9  -4  -3   25.26    4.38
   9  -4  -2   32.63    4.69
   9  -4  -1   22.28    3.62
   9  -4   0  186.54    9.21
   9  -4   0  173.41    9.10
   9  -4   1   20.05    2.64
   9  -4   1   22.91    2.95
   9  -4   2   64.70    4.51
   9  -4   3   11.23    1.73
   9  -4   4   30.49    3.15
   9  -4   5   12.79    2.10
   9  -4   6   32.32    3.52
  -9  -4  -6   31.92    6.14
  -9  -4  -7   58.11    8.23
  -9  -4  -8   50.14    7.48
  -9  -3  20    3.69    2.45
  -9  -3  19   15.28    5.56
  -9  -3  18   11.87    5.09
  -9  -3  17   33.24    7.94
  -9  -3  16   22.26    6.17
  -9  -3  15   16.10    5.55
  -9  -3  14    1.92    2.45
  -9  -3  13   64.37   10.07
  -9  -3  12   24.22    6.01
  -9  -3  11   37.98    7.52
  -9  -3  10   51.88    8.53
  -9  -3   9   11.54    4.30
   9  -3  -9    9.12    3.55
  -9  -3   8   80.33    9.96
   9  -3  -8   61.67    8.61
  -9  -3   7   24.67    5.32
   9  -3  -7   33.30    6.08
   9  -3  -6   39.03    6.27
   9  -3  -5    8.43    2.74
   9  -3  -4   18.13    3.98
   9  -3  -3   25.30    4.23
   9  -3  -2    1.51    0.99
   9  -3  -1   25.86    3.88
   9  -3   0  134.80    8.55
   9  -3   0  137.94    8.37
   9  -3   1    1.89    1.03
   9  -3   1    2.10    0.88
   9  -3   2   15.07    2.53
   9  -3   2   10.93    1.95
   9  -3   3   40.90    4.08
   9  -3   3   34.84    2.55
   9  -3   4   38.68    3.95
   9  -3   5   95.22    6.43
   9  -3   6   17.97    2.98
  -9  -3  -6   40.30    6.54
   9  -3   7   22.49    3.45
  -9  -3  -7   41.03    6.50
   9  -3   8   69.50    6.28
  -9  -3  -8  130.04   11.67
  -9  -3  -9  178.43   14.63
  -9  -2  21   41.99    9.80
  -9  -2  20    4.00    2.76
  -9  -2  19   43.91    9.74
  -9  -2  18   16.14    5.75
  -9  -2  17   31.88    7.84
  -9  -2  16    6.35    3.04
  -9  -2  15   51.01    9.36
  -9  -2  14    9.91    3.92
  -9  -2  13   32.24    7.03
  -9  -2  12    1.88    1.60
  -9  -2  11   74.20   10.00
  -9  -2  10    6.06    2.68
  -9  -2   9   81.09    9.87
   9  -2  -9   70.44    9.27
  -9  -2   8   15.82    4.26
   9  -2  -8   11.92    3.68
  -9  -2   7   24.84    5.43
   9  -2  -7   19.53    4.65
  -9  -2   6    3.22    2.10
   9  -2  -6    2.47    1.66
  -9  -2   5    6.44    2.59
   9  -2  -5    8.63    2.79
   9  -2  -4    6.19    2.39
   9  -2  -3   40.64    5.50
   9  -2  -2   40.97    5.24
   9  -2  -1   44.34    5.17
   9  -2   0  155.41    9.75
   9  -2   0  166.40    9.25
   9  -2   1   43.86    4.84
   9  -2   1   46.80    4.65
   9  -2   2   64.49    5.63
   9  -2   2   54.17    4.54
   9  -2   3    2.89    1.10
   9  -2   3    4.37    1.06
   9  -2   4   39.51    4.50
   9  -2   4   20.09    1.84
   9  -2   5    4.58    1.48
   9  -2   6    7.62    2.00
  -9  -2  -6    7.11    2.67
   9  -2   7   71.87    6.63
  -9  -2  -7   76.89    8.79
   9  -2   8   34.22    4.92
  -9  -2  -8   25.19    5.07
   9  -2   9    5.92    1.99
  -9  -2  -9   10.74    3.31
  -9  -2 -10   21.26    4.72
  -9  -2 -11    4.36    2.38
   9  -2  14    3.78    0.94
   9  -2  15    2.10    0.88
  -9  -1  21    0.46    1.19
  -9  -1  20    8.25    4.67
  -9  -1  19    7.46    4.42
  -9  -1  18    7.03    3.72
  -9  -1  17    1.32    1.12
  -9  -1  16    8.80    3.87
  -9  -1  15    8.31    3.94
  -9  -1  14   42.88    8.40
  -9  -1  13   41.58    7.89
  -9  -1  12   48.71    8.58
  -9  -1  11   15.45    4.96
  -9  -1  10   24.48    5.73
  -9  -1   9   17.22    4.81
   9  -1  -9   12.66    4.03
  -9  -1   8   98.51   10.51
   9  -1  -8   82.30    9.68
  -9  -1   7   47.14    7.11
   9  -1  -7   52.00    7.42
  -9  -1   6   53.92    7.18
   9  -1  -6   30.98    5.31
  -9  -1   5   14.73    3.80
   9  -1  -5   11.01    3.15
  -9  -1   4   43.30    6.17
   9  -1  -4   32.06    5.18
  -9  -1   3    8.77    2.59
   9  -1  -3    8.73    2.57
   9  -1  -2    2.54    1.31
   9  -1  -1    9.89    2.54
   9  -1   0   17.65    3.52
   9  -1   0   11.63    2.68
   9  -1   1  134.70    8.07
   9  -1   1  132.98    8.93
   9  -1   2   44.25    4.42
   9  -1   2   50.00    5.47
   9  -1   3   60.91    4.52
   9  -1   3   66.18    6.09
   9  -1   4   44.80    3.64
   9  -1   4   51.27    5.24
   9  -1   5   53.68    5.49
   9  -1   5   40.00    2.88
   9  -1   6   30.12    4.46
  -9  -1  -6   39.35    6.00
   9  -1   6   11.09    1.33
   9  -1   7  147.54    9.75
  -9  -1  -7  161.22   12.12
   9  -1   7   76.68    3.10
   9  -1   7   75.79    3.11
   9  -1   8   62.85    6.86
  -9  -1  -8   82.55    8.66
   9  -1   8   22.76    1.73
   9  -1   9  250.53   14.87
  -9  -1  -9  235.49   15.25
   9  -1   9  152.68    4.76
  -9  -1 -10   68.21    8.18
   9  -1  10   43.81    6.11
   9  -1  10    8.53    1.22
   9  -1  11  132.01   11.16
  -9  -1 -11  107.39   10.60
   9  -1  11   95.59    4.71
  -9  -1 -12   83.01    9.44
   9  -1  12   15.73    2.15
   9  -1  13  103.12    6.02
   9  -1  14    1.55    0.74
   9  -1  15   76.61    5.99
   9  -1  16    2.45    1.29
  -9   0  21   21.44    6.83
  -9   0  20    0.43    1.48
  -9   0  19   29.12    7.47
  -9   0  18   23.79    6.77
  -9   0  17   91.90   12.79
  -9   0  16    8.87    4.07
  -9   0  15    5.36    3.04
  -9   0  14   41.67    8.12
  -9   0  13   96.34   11.83
  -9   0  12    3.63    2.64
  -9   0  11  207.63   16.50
  -9   0  10    3.67    2.12
  -9   0   9  155.61   13.50
   9   0  -9  157.41   13.69
  -9   0   8   25.14    5.49
   9   0  -8   20.24    4.95
  -9   0   7  502.83   22.90
   9   0  -7  527.90   24.45
  -9   0   6   39.99    6.41
   9   0  -6   37.74    6.11
  -9   0   5   97.08    9.32
   9   0  -5   96.72    9.28
  -9   0   4    1.27    1.21
   9   0  -4   -0.06    0.60
  -9   0   3    5.25    2.32
   9   0  -3    5.13    2.09
   9   0  -2   25.85    4.40
  -9   0   2   26.38    4.39
   9   0  -1  320.58   14.69
   9   0   0    3.59    1.44
   9   0   0    3.28    1.31
   9   0   1  128.62    8.30
   9   0   1  118.32    9.00
   9   0   2    6.59    1.73
   9   0   2    6.98    2.04
   9   0   3   16.60    2.55
   9   0   3   23.05    3.86
   9   0   4    1.51    0.60
   9   0   4    3.77    1.62
   9   0   5  245.20   12.78
   9   0   5  240.42    9.98
   9   0   6   25.00    4.07
   9   0   6   18.82    2.39
  -9   0  -6   29.50    4.96
   9   0   7  250.94   13.44
   9   0   7  211.36    8.54
  -9   0  -7  270.41   14.97
  -9   0  -8    3.19    1.69
   9   0   8    1.81    0.86
   9   0   8    2.87    1.60
  -9   0  -9    2.56    1.51
   9   0   9    1.62    1.43
   9   0   9    1.58    0.79
  -9   0 -10    4.64    2.03
   9   0  10    4.55    1.99
   9   0  10    1.16    0.41
  -9   0 -11    4.75    2.25
   9   0  11    4.02    1.94
   9   0  11    3.00    1.24
  -9   0 -12   26.30    5.18
   9   0  12   26.22    5.28
   9   0  12   20.44    3.08
  -9   0 -13   34.72    6.19
   9   0  13   24.56    3.47
   9   0  14   23.41    3.16
   9   0  15    1.46    0.83
   9   0  16   12.52    3.10
   9   0  17   14.75    3.09
  -9   1  21    2.28    2.20
  -9   1  20   12.60    4.95
  -9   1  19    9.34    3.92
  -9   1  18   13.01    4.63
  -9   1  17    2.21    2.55
  -9   1  16    3.71    2.83
  -9   1  15   11.35    4.56
  -9   1  14   60.68    9.88
  -9   1  13   46.26    8.26
  -9   1  12   46.26    7.99
  -9   1  11   11.13    4.05
  -9   1  10   29.91    6.23
  -9   1   9   10.64    3.73
   9   1  -9   14.45    4.25
  -9   1   8   77.87    9.17
   9   1  -8   98.50   10.57
   9   1  -7   41.71    6.72
  -9   1   7   51.13    7.28
   9   1  -6   56.27    7.56
  -9   1   6   37.87    6.09
  -9   1   5    9.62    2.92
   9   1  -5   13.57    3.63
   9   1  -4   45.47    6.35
  -9   1   4   36.05    5.53
   9   1  -3    8.89    2.64
  -9   1   3    9.62    2.66
  -9   1   2    4.78    1.91
   9   1  -2    8.33    2.62
  -9   1   1   11.04    2.60
   9   1  -1   12.94    2.92
   9   1   0   24.78    3.95
   9   1   0   24.73    4.60
   9   1   1  142.16    9.20
   9   1   1  126.95    9.72
   9   1   2   87.95    7.14
   9   1   2   74.19    7.37
   9   1   3   63.33    5.81
   9   1   3   61.01    6.67
   9   1   4   42.23    4.72
   9   1   4   45.94    5.74
   9   1   5   47.32    4.73
   9   1   5   51.75    6.02
  -9   1  -6   31.11    4.82
   9   1   6   37.80    5.46
  -9   1  -7  167.37   11.27
   9   1   7  142.36   10.61
  -9   1  -8   64.48    7.09
   9   1   8   72.95    7.83
  -9   1  -9  233.22   13.86
   9   1   9  208.97    9.76
   9   1   9  233.52   14.77
  -9   1 -10   39.16    5.84
   9   1  10   67.05    8.07
   9   1  10   67.06    5.84
  -9   1 -11  131.85   10.72
   9   1  11  104.38   10.70
   9   1  11   76.30    6.65
  -9   1 -12   63.58    7.87
   9   1  12   85.25    9.58
   9   1  12   76.09    6.64
  -9   1 -13  121.05   11.03
   9   1  13  123.01   12.21
   9   1  13   97.19    7.80
  -9   1 -14    6.17    2.61
   9   1  14    1.53    1.26
   9   1  15   76.89    7.64
   9   1  16   15.44    3.52
   9   1  17   40.45    5.86
  -9   2  21   46.60   10.10
  -9   2  20    6.18    4.07
  -9   2  19   61.76   11.39
  -9   2  18   11.37    4.91
  -9   2  17   38.75    8.07
  -9   2  16    6.53    3.72
  -9   2  15   38.05    8.10
  -9   2  14   14.14    4.70
  -9   2  13   40.90    7.71
  -9   2  12    2.53    1.96
  -9   2  11   94.89   11.19
  -9   2  10    3.34    1.97
  -9   2   9   70.04    9.05
   9   2  -9   81.55    9.99
  -9   2   8   11.04    3.41
   9   2  -8   14.30    3.96
  -9   2   7   20.44    4.63
   9   2  -7   20.17    4.86
  -9   2   6    4.10    2.01
   9   2  -6    3.72    2.06
  -9   2   5    7.24    2.46
   9   2  -5    5.78    2.40
  -9   2   4    4.48    1.97
   9   2  -4    9.61    3.03
  -9   2   3   41.97    5.47
   9   2  -3   69.76    7.82
  -9   2   2   46.48    5.44
   9   2  -2   38.40    5.53
  -9   2   1   47.56    5.28
   9   2  -1   67.09    7.08
   9   2  -1   60.64    7.45
   9   2   0  150.39   10.40
  -9   2   0  170.23    9.35
   9   2   0  144.04   11.28
   9   2   1   22.13    3.87
   9   2   1   30.62    5.34
   9   2   2   52.35    5.76
   9   2   2   52.39    6.49
   9   2   3    4.97    1.80
   9   2   3    5.02    1.93
   9   2   4   57.83    5.80
   9   2   4   53.75    6.50
   9   2   5    2.92    1.44
   9   2   6    6.26    2.36
  -9   2  -7   78.48    7.29
   9   2   7   62.62    7.21
  -9   2  -8   34.90    4.73
   9   2   8   19.15    4.13
  -9   2  -9    7.02    2.37
   9   2   9    8.63    2.86
  -9   2 -10   13.50    3.16
   9   2  10   14.92    2.85
   9   2  10   19.33    4.42
  -9   2 -11    6.04    2.21
   9   2  11    2.90    1.78
   9   2  11    2.65    1.39
  -9   2 -12    3.64    1.67
   9   2  12    1.06    0.75
   9   2  12    2.56    1.83
  -9   2 -13    3.15    1.88
   9   2  13    4.34    2.36
   9   2  13    2.95    1.77
  -9   2 -14    7.65    2.65
   9   2  14    9.77    3.40
   9   2  14    4.88    2.19
  -9   2 -15    6.87    2.69
   9   2  15    8.11    2.59
   9   2  16    5.32    2.07
   9   2  17    3.20    2.07
   9   2  18    1.06    1.15
  -9   3  20    2.67    2.38
  -9   3  19    7.92    3.97
  -9   3  18    8.01    4.19
  -9   3  17   18.04    6.29
  -9   3  16   19.42    6.35
  -9   3  15   12.96    4.84
  -9   3  14    2.59    1.73
  -9   3  13   40.41    7.90
  -9   3  12   16.48    4.77
  -9   3  11   31.14    6.56
  -9   3  10   54.94    8.35
  -9   3   9    9.23    3.48
  -9   3   8   58.04    7.97
   9   3  -8   83.22   10.25
  -9   3   7   31.97    5.55
   9   3  -7   20.71    4.79
   9   3  -6   25.12    5.38
  -9   3   6   39.59    6.13
   9   3  -5   10.71    3.27
  -9   3   5    9.90    2.87
  -9   3   4   18.65    3.96
   9   3  -4   28.80    5.18
   9   3  -3   21.52    4.46
  -9   3   3   29.12    4.53
  -9   3   2    0.56    0.50
   9   3  -2    1.44    1.01
   9   3  -1   24.82    4.57
  -9   3   1   30.26    4.06
   9   3  -1   28.27    5.30
   9   3   0  156.00   11.02
  -9   3   0  147.04    8.63
   9   3   0  151.39   12.18
   9   3   1    1.37    0.80
  -9   3  -1    3.07    1.21
   9   3   1    2.53    1.86
   9   3   2   26.50    4.43
   9   3   2   27.82    4.94
   9   3   3   51.22    6.02
   9   3   3   48.01    6.52
   9   3   4   32.33    5.36
   9   3   5  111.92    9.67
   9   3   6   30.76    5.43
  -9   3  -7   24.73    3.91
   9   3   7   31.65    5.30
  -9   3  -8   83.35    7.46
   9   3   8  120.51   10.85
  -9   3  -9  173.18   11.01
   9   3   9  156.49   12.57
  -9   3 -10   46.00    5.74
   9   3  10   67.34    8.86
  -9   3 -11  133.14    9.98
   9   3  11  161.61   13.77
   9   3  11  161.67   11.01
  -9   3 -12   49.95    6.30
   9   3  12   42.58    7.84
   9   3  12   33.83    5.23
  -9   3 -13   98.14    9.14
   9   3  13  133.82   13.48
   9   3  13  142.54   11.17
  -9   3 -14    4.31    1.96
   9   3  14    2.74    1.44
   9   3  14    3.47    1.68
  -9   3 -15    8.28    2.98
   9   3  15    7.21    2.55
   9   3  16   18.87    4.29
   9   3  17   48.16    7.22
   9   3  18    5.19    2.41
   9   3  19    2.72    1.75
  -9   4  20    5.62    3.29
  -9   4  19   19.21    6.04
  -9   4  18    6.44    3.68
  -9   4  17   26.28    6.84
  -9   4  16    3.24    2.63
  -9   4  15   52.26    9.45
  -9   4  14   19.82    5.92
  -9   4  13  108.88   13.13
  -9   4  12   41.62    8.04
  -9   4  11  237.09   18.08
  -9   4  10   14.96    4.57
  -9   4   9   73.75    9.28
  -9   4   8   20.46    4.85
   9   4  -7  168.12   14.36
  -9   4   7  222.63   15.26
   9   4  -6    4.04    2.25
  -9   4   6    5.30    2.42
  -9   4   5   46.08    6.29
   9   4  -5   28.21    5.43
   9   4  -4   18.43    4.34
  -9   4   4   17.36    3.71
   9   4  -3   29.76    5.41
  -9   4   3   24.71    4.19
   9   4  -2   31.42    5.43
  -9   4   2   38.66    4.88
   9   4  -2   32.90    5.97
  -9   4   1   22.72    3.65
   9   4  -1   35.18    5.55
   9   4  -1   35.11    6.19
  -9   4   0  206.82    9.99
   9   4   0  209.11   13.80
   9   4   0  181.49   13.25
  -9   4  -1   28.86    3.23
   9   4   1   18.99    4.05
   9   4   1   19.83    4.51
   9   4   2   80.99    8.18
  -9   4  -2   74.09    4.58
   9   4   2   78.79    8.76
   9   4   3   18.74    4.26
   9   4   4   35.12    5.72
   9   4   5   17.29    4.08
   9   4   6   27.93    5.21
   9   4   7   56.55    7.59
  -9   4  -8   47.09    5.07
   9   4   8   50.06    7.28
  -9   4  -9    3.39    1.45
   9   4   9    2.61    1.85
  -9   4 -10   27.06    3.96
   9   4  10   17.41    4.47
  -9   4 -11   34.24    4.84
   9   4  11   28.78    5.94
  -9   4 -12    4.21    1.83
   9   4  12    6.09    2.41
   9   4  12    7.50    3.17
  -9   4 -13   16.46    3.50
   9   4  13   11.29    4.27
   9   4  13   11.81    3.54
  -9   4 -14    0.94    0.78
   9   4  14    2.13    1.76
   9   4  14    2.95    1.66
  -9   4 -15    3.79    2.11
   9   4  15    1.66    1.66
   9   4  15    0.58    0.96
   9   4  16    9.70    3.35
   9   4  17    1.61    1.44
   9   4  18   18.73    4.84
   9   4  19    3.66    2.35
  -9   5  20    0.59    0.82
  -9   5  19    6.87    4.26
  -9   5  18    4.01    3.31
  -9   5  17   20.32    6.34
  -9   5  16    1.36    2.30
  -9   5  15   15.84    5.12
  -9   5  14   39.08    7.97
  -9   5  13    8.20    3.66
  -9   5  12    9.06    3.90
  -9   5  11   49.77    8.29
  -9   5  10   55.55    8.66
  -9   5   9   43.42    7.33
  -9   5   8  104.19   10.79
  -9   5   7   46.13    7.00
  -9   5   6   38.12    6.18
   9   5  -6   46.34    7.56
   9   5  -5  113.90   11.48
  -9   5   5   79.89    8.50
   9   5  -4   49.13    7.48
  -9   5   4   57.45    6.89
   9   5  -3   85.63    9.73
  -9   5   3   62.82    6.80
   9   5  -2    8.48    3.27
   9   5  -2    9.63    3.21
  -9   5   2   14.84    3.01
  -9   5   1   39.03    4.89
   9   5  -1   62.36    7.99
   9   5  -1   54.69    7.91
  -9   5   0   43.76    4.56
   9   5   0   26.34    5.04
   9   5   0   25.06    5.12
  -9   5  -1    6.64    1.71
   9   5   1    9.94    3.03
   9   5   1    7.53    2.55
  -9   5  -2   10.53    1.61
   9   5   2   36.44    6.20
  -9   5  -3    7.41    1.06
   9   5   3   18.16    4.30
   9   5   4   41.36    6.49
   9   5   5   41.44    6.38
   9   5   6   80.09    9.35
   9   5   7   60.42    8.16
   9   5   8  139.75   12.58
  -9   5  -9    3.23    1.06
   9   5   9    6.88    2.85
  -9   5 -10   40.87    4.85
   9   5  10   69.85    9.19
  -9   5 -11   46.31    5.19
   9   5  11   43.01    7.61
  -9   5 -12    7.05    2.31
   9   5  12   14.26    3.69
   9   5  12   14.19    4.37
  -9   5 -13   21.20    4.04
   9   5  13   29.97    6.86
   9   5  13   25.15    5.15
  -9   5 -14   23.10    4.26
   9   5  14   43.24    8.26
   9   5  14   43.52    6.97
   9   5  15   11.74    4.36
   9   5  15    9.19    3.24
   9   5  16   43.66    8.68
   9   5  16   36.14    6.73
   9   5  17   10.55    3.42
   9   5  18   31.90    6.90
   9   5  19    4.35    2.71
  -9   6  19   53.66   10.68
  -9   6  18    7.90    4.05
  -9   6  17   42.30    9.08
  -9   6  16    5.07    3.57
  -9   6  15   65.62   10.70
  -9   6  14    9.68    3.85
  -9   6  13   34.42    7.39
  -9   6  12    2.36    1.42
  -9   6  11   37.41    7.25
  -9   6  10   19.43    4.94
  -9   6   9   10.56    3.55
  -9   6   8   45.30    7.14
  -9   6   7  181.82   13.91
  -9   6   6    4.95    2.24
  -9   6   5   12.03    3.42
   9   6  -4   20.60    4.90
  -9   6   4   16.61    3.83
   9   6  -3   16.40    4.69
   9   6  -3   14.12    4.01
  -9   6   3   15.15    3.31
   9   6  -2    7.51    2.98
   9   6  -2    8.95    3.11
  -9   6   2    9.60    2.58
   9   6  -1    5.92    2.41
   9   6  -1    4.57    2.00
  -9   6   1    4.77    1.47
   9   6   0   39.85    7.02
  -9   6   0   38.99    4.61
   9   6   0   36.95    6.09
   9   6   1    2.05    1.49
  -9   6  -1    2.23    0.99
  -9   6  -2    8.26    1.65
   9   6   2   10.56    3.26
  -9   6  -3    1.83    0.52
   9   6   3    5.19    2.34
   9   6   4    8.17    2.98
   9   6   5   42.46    6.66
   9   6   6   20.82    4.83
   9   6   7    6.26    2.75
   9   6   8   31.06    6.13
   9   6   9    9.98    3.41
  -9   6 -10   12.78    2.10
   9   6  10   12.84    3.97
  -9   6 -11    1.77    0.96
   9   6  11    2.46    1.90
  -9   6 -12    2.99    1.25
   9   6  12    4.14    2.11
  -9   6 -13   -0.10    0.30
   9   6  13    1.84    1.21
   9   6  13    1.70    1.62
   9   6  14    3.44    2.09
   9   6  14    6.04    3.27
   9   6  15    2.50    2.14
   9   6  15    1.41    1.47
   9   6  16    3.15    2.51
   9   6  16    5.49    3.32
   9   6  17    2.11    2.00
   9   6  18    1.98    1.63
   9   6  19    1.08    1.85
   9   6  20    3.26    2.49
  -9   7  19    6.69    3.37
  -9   7  18    9.07    4.32
  -9   7  17   35.07    8.67
  -9   7  16   31.79    7.50
  -9   7  15   44.99    9.41
  -9   7  14   11.63    5.36
  -9   7  13   20.41    5.97
  -9   7  12    9.88    4.38
  -9   7  11   35.60    7.08
  -9   7  10    3.28    2.28
  -9   7   9   13.08    4.29
  -9   7   8   17.58    4.85
  -9   7   7   87.03   10.09
  -9   7   6   10.63    3.51
  -9   7   5   10.12    3.30
   9   7  -4   32.91    6.68
  -9   7   4   48.01    6.70
   9   7  -3   17.90    5.00
  -9   7   3   15.69    3.60
   9   7  -2   21.96    5.53
   9   7  -2   26.17    5.73
  -9   7   2   17.90    3.79
   9   7  -1    5.54    2.43
   9   7  -1    9.28    3.36
  -9   7   1    7.07    2.27
   9   7   0    9.44    3.56
  -9   7   0    8.55    2.11
   9   7   1   10.65    3.52
  -9   7  -1    7.23    1.91
   9   7   2   26.56    5.65
  -9   7  -2   17.10    2.73
   9   7   3    1.72    0.70
  -9   7  -3    1.79    0.69
  -9   7  -4   11.44    1.42
   9   7   4   12.00    3.77
   9   7   5   49.87    7.51
   9   7   6  130.49   12.87
   9   7   7   32.33    6.31
   9   7   8   93.67   10.95
   9   7   9    5.18    2.47
   9   7  10   89.21   11.06
  -9   7 -11   21.15    2.74
   9   7  11   22.33    5.95
   9   7  12   61.88    9.73
   9   7  13   44.36    8.37
   9   7  13   41.31    7.05
   9   7  14   36.12    8.11
   9   7  14   39.25    7.29
   9   7  15   11.50    4.66
   9   7  15   10.39    3.98
   9   7  16   22.17    6.53
   9   7  16   24.52    5.98
   9   7  17    4.88    3.04
   9   7  17    5.54    3.34
   9   7  18   18.85    5.58
   9   7  19    3.31    2.78
   9   7  20    7.23    3.88
  -9   8  18   10.93    4.98
  -9   8  17   10.44    4.61
  -9   8  16    8.75    3.87
  -9   8  15   80.66   12.17
  -9   8  14   34.50    7.90
  -9   8  13   48.54    9.38
  -9   8  12    4.50    2.90
  -9   8  11   44.56    8.28
  -9   8  10   29.85    6.54
  -9   8   9   39.84    7.41
  -9   8   8    1.21    1.81
  -9   8   7   53.75    7.85
  -9   8   6   34.23    6.00
  -9   8   5   83.37    9.40
   9   8  -4    3.89    2.73
  -9   8   4    5.61    2.47
   9   8  -3   93.57   11.64
  -9   8   3  109.92   10.07
   9   8  -2    6.54    2.57
  -9   8   2   11.79    3.11
   9   8  -1    3.47    2.61
  -9   8   1    7.56    2.59
   9   8   0   22.09    5.28
  -9   8   0   28.46    4.51
   9   8   1   71.45    9.57
  -9   8  -1   64.01    6.21
   9   8   2   58.11    8.64
  -9   8  -2   71.26    5.92
   9   8   3   10.86    3.50
  -9   8  -3   15.94    2.48
   9   8   4  123.49   12.62
  -9   8  -4  118.18    6.14
   9   8   5    4.74    2.56
  -9   8  -5    3.23    0.71
   9   8   6   18.32    4.92
   9   8   7   18.24    5.05
   9   8   8    4.69    2.50
   9   8   9    8.20    3.31
   9   8  10   33.75    7.07
   9   8  11    7.99    3.81
   9   8  12   24.71    6.36
   9   8  13   10.80    4.32
   9   8  14   29.44    7.64
   9   8  14   24.90    5.92
   9   8  15   12.72    4.69
   9   8  15   17.40    6.20
   9   8  16   18.74    6.17
   9   8  16   20.65    5.58
   9   8  17    2.76    2.38
   9   8  17    7.40    3.98
   9   8  18    7.38    4.04
   9   8  19    3.77    2.75
   9   8  20    5.98    3.40
  -9   9  17    1.16    1.47
  -9   9  16   11.13    4.31
  -9   9  15   36.35    8.61
  -9   9  14   12.16    5.29
  -9   9  13   13.15    4.74
  -9   9  12   10.85    4.67
  -9   9  11   48.56    8.81
  -9   9  10   10.02    3.68
  -9   9   9   49.08    8.38
  -9   9   8   18.12    4.73
  -9   9   7   28.06    6.17
  -9   9   6    4.67    2.63
   9   9  -5   44.96    8.87
  -9   9   5   35.45    6.45
   9   9  -4   16.52    4.99
  -9   9   4   23.60    4.80
   9   9  -3    9.02    3.63
  -9   9   3    8.73    2.86
   9   9  -2  167.29   16.32
  -9   9   2  118.57   10.56
   9   9  -1  335.11   22.15
  -9   9   1  352.43   17.16
   9   9   0  214.60   17.56
  -9   9   0  377.47   17.00
   9   9   1    7.69    3.42
  -9   9  -1   28.63    4.82
   9   9   2   85.15   11.01
  -9   9  -2   63.33    6.40
   9   9   3    1.52    1.48
  -9   9  -3    1.24    0.89
   9   9   4   63.20    9.28
  -9   9  -4   49.83    4.57
   9   9   5    6.14    2.95
  -9   9  -5   12.22    1.86
   9   9   6   74.71   10.24
  -9   9  -6   38.28    2.78
  -9   9  -6   38.82    2.80
   9   9   7    9.45    3.70
   9   9   8   28.12    6.40
   9   9   9   19.87    5.53
   9   9  10   52.49    9.16
   9   9  11    2.37    2.42
   9   9  12   55.59    9.67
   9   9  13    0.09    0.97
   9   9  14  128.21   16.62
   9   9  14  102.34   12.69
   9   9  15    4.01    2.40
   9   9  15    5.98    3.52
   9   9  16   18.01    5.85
   9   9  16   16.68    5.46
   9   9  17    3.61    2.87
   9   9  17    2.00    2.12
   9   9  18   19.23    6.59
   9   9  19    1.95    2.39
   9   9  20   15.44    6.18
  -9  10  17   25.73    7.58
  -9  10  16    9.92    5.04
  -9  10  15   72.72   12.30
  -9  10  14   18.69    5.58
  -9  10  13   24.35    6.73
  -9  10  12    5.39    3.08
  -9  10  11   55.54    9.33
  -9  10  10   17.70    5.19
  -9  10   9   29.55    6.77
  -9  10   8    6.43    3.29
   9  10  -7   31.80    7.72
  -9  10   7   28.95    6.37
   9  10  -6    2.22    1.55
  -9  10   6    3.10    1.85
   9  10  -5   29.71    7.34
  -9  10   5   21.55    4.85
   9  10  -4    2.17    1.68
  -9  10   4    1.54    1.45
   9  10  -3   43.70    8.16
  -9  10   3   49.10    7.24
   9  10  -2   24.97    6.36
  -9  10   2   30.20    5.45
   9  10  -1    8.56    3.67
  -9  10   1   19.11    4.47
   9  10   0   29.72    6.49
  -9  10   0   47.18    6.41
   9  10   1  154.33   15.16
  -9  10  -1  173.31   11.58
   9  10   2   12.02    4.31
  -9  10  -2   12.86    3.11
   9  10   3    3.29    2.53
  -9  10  -3    5.97    2.12
   9  10   4    7.88    3.49
  -9  10  -4   14.22    2.77
   9  10   5    4.10    2.55
  -9  10  -5    4.76    1.29
   9  10   6   16.38    4.86
  -9  10  -6   22.92    2.45
  -9  10  -6   22.79    2.44
   9  10   7    4.44    4.01
  -9  10  -7    3.45    0.86
   9  10   8   20.44    5.64
   9  10   9   15.20    4.90
   9  10  10    4.68    2.82
   9  10  11   21.39    6.59
   9  10  12    6.85    3.64
   9  10  13    3.65    3.22
   9  10  14    6.60    4.12
   9  10  14    6.63    3.43
   9  10  15    5.34    2.99
   9  10  15    2.57    1.67
   9  10  16    0.29    1.09
   9  10  16   -0.17    1.69
   9  10  17    1.95    1.98
   9  10  18    0.00    0.96
   9  10  19    2.50    2.31
  -9  11  16    2.71    2.96
  -9  11  15   40.20    9.35
  -9  11  14    6.93    4.50
  -9  11  13   26.98    6.90
  -9  11  12    9.17    4.56
  -9  11  11   20.87    6.11
  -9  11  10    2.04    2.15
  -9  11   9   24.98    6.30
   9  11  -8   21.49    6.47
  -9  11   8   32.55    7.00
   9  11  -7   17.83    5.97
  -9  11   7   17.53    4.92
   9  11  -6   16.84    5.91
  -9  11   6   13.61    4.58
   9  11  -5    4.46    3.26
  -9  11   5    4.97    2.20
   9  11  -4    4.85    2.65
  -9  11   4    7.37    3.30
   9  11  -3   -0.26    0.77
  -9  11   3    0.28    1.07
   9  11  -2   16.83    5.15
  -9  11   2   15.28    4.19
   9  11  -1    1.21    0.69
  -9  11   1    3.03    1.64
   9  11   0   22.24    5.62
  -9  11   0   41.60    6.27
   9  11   1    6.46    2.88
  -9  11  -1    5.30    2.25
   9  11   2   38.31    7.67
  -9  11  -2   35.54    5.28
   9  11   3    2.25    1.90
  -9  11  -3    2.44    1.27
   9  11   4   13.29    4.33
  -9  11  -4    7.91    2.27
   9  11   5    3.48    1.64
  -9  11  -5    6.22    1.72
   9  11   6   93.00   12.16
  -9  11  -6   62.95    5.57
   9  11   7    6.52    3.25
   9  11   8   44.84    8.65
   9  11   9   16.40    5.29
   9  11  10  114.04   14.08
   9  11  11    4.98    3.02
   9  11  12   39.41    8.72
   9  11  13   -1.01    1.35
   9  11  14   64.51   10.76
   9  11  14   66.86   12.43
   9  11  15    2.32    2.12
   9  11  16    6.50    3.80
   9  11  17    0.33    2.11
   9  11  18   18.28    6.31
  -9  12  15   15.89    6.04
  -9  12  14   34.73    8.57
  -9  12  13   29.36    7.68
  -9  12  12   11.11    4.78
  -9  12  11   20.13    6.23
  -9  12  10   29.54    7.11
   9  12  -9   36.53    8.82
  -9  12   9   36.40    7.63
   9  12  -8   21.61    6.25
  -9  12   8   30.71    7.06
   9  12  -7   18.08    5.87
  -9  12   7   18.41    5.09
   9  12  -6   10.89    4.19
  -9  12   6   15.34    4.62
   9  12  -5   27.97    7.06
  -9  12   5   29.82    6.36
   9  12  -4    5.75    3.46
  -9  12   4    4.69    2.82
   9  12  -3   64.61   10.50
  -9  12   3   68.07    9.51
   9  12  -2   10.06    3.59
  -9  12   2   18.04    4.91
   9  12  -1   72.41   10.86
  -9  12   1   78.14    9.59
   9  12   0   -2.30    2.41
  -9  12   0    2.58    1.42
   9  12   1   25.37    6.23
  -9  12  -1   29.51    5.46
   9  12   2   13.85    4.68
  -9  12  -2   31.58    5.74
   9  12   3   34.45    7.24
  -9  12  -3   41.92    5.92
   9  12   4   30.73    7.06
  -9  12  -4   47.14    5.95
   9  12   5    3.61    2.33
  -9  12  -5    5.52    1.92
   9  12   6   19.60    5.68
   9  12   7   11.25    4.35
   9  12   8   10.44    4.12
   9  12   9    7.87    3.72
   9  12  10   11.51    4.77
   9  12  11   11.53    5.17
   9  12  12    4.80    3.14
   9  12  13    2.54    2.62
   9  12  15   10.77    4.55
   9  12  16   10.96    4.48
  -9  13  13    5.90    3.15
  -9  13  12    0.43    2.28
   9  13 -11   34.36    8.95
  -9  13  11   24.62    7.01
   9  13 -10   10.52    5.25
  -9  13  10   13.95    5.27
   9  13  -9   16.21    6.15
  -9  13   9   13.14    5.17
   9  13  -8    9.86    4.52
  -9  13   8    9.81    3.79
   9  13  -7   33.06    8.26
  -9  13   7   22.57    5.83
   9  13  -6   22.45    6.60
  -9  13   6   20.53    5.45
   9  13  -5   35.21    8.45
  -9  13   5   29.96    6.56
   9  13  -4    5.68    2.81
  -9  13   4   16.28    5.22
   9  13  -3   16.49    5.41
  -9  13   3   14.53    4.38
   9  13  -2    7.20    3.53
  -9  13   2    9.40    3.57
   9  13  -1   -0.07    1.35
  -9  13   1    1.26    1.17
   9  13   0    7.38    3.28
  -9  13   0   16.64    4.41
   9  13   1   15.57    4.93
  -9  13  -1   24.79    5.21
   9  13   2   16.61    5.23
  -9  13  -2   14.73    3.65
   9  13   3    6.04    3.06
  -9  13  -3    9.96    2.97
   9  13   4    8.93    4.05
  -9  13  -4   18.35    4.01
   9  13   5    3.31    2.39
   9  13   6   26.99    6.82
   9  13   7    0.94    1.19
   9  13   8    8.20    3.79
   9  13   9    2.93    2.49
   9  13  10   25.67    7.38
   9  13  11   14.87    5.72
  -9  14  12    7.10    4.05
   9  14 -11   23.13    7.57
  -9  14  11   20.59    6.96
   9  14 -10    8.85    4.24
  -9  14  10   12.84    5.31
   9  14  -9   13.35    5.85
  -9  14   9   16.79    5.66
   9  14  -8    0.72    2.14
  -9  14   8    2.68    2.70
   9  14  -7   25.11    7.42
  -9  14   7   26.87    6.65
   9  14  -6    2.34    2.49
  -9  14   6    2.94    1.89
   9  14  -5   26.12    7.12
  -9  14   5   32.46    7.53
   9  14  -4    3.05    2.12
  -9  14   4    4.02    2.80
   9  14  -3   10.33    4.62
  -9  14   3    4.93    2.82
   9  14  -2    2.99    2.65
  -9  14   2   -0.55    1.55
   9  14  -1    7.97    3.94
  -9  14   1    7.71    3.54
   9  14   0   -0.42    1.76
  -9  14   0    1.12    1.21
   9  14   1    2.65    1.58
  -9  14  -1    4.60    2.32
   9  14   2    6.50    3.21
  -9  14  -2    8.41    2.95
   9  14   3   17.38    5.70
   9  14   4    4.66    3.16
   9  14   5   15.13    5.28
   9  14   6    2.98    2.34
   9  14   7   12.16    4.96
   9  14   8    2.51    2.35
   9  14   9   15.93    5.58
  -9  15  11   14.00    5.85
  -9  15  10   10.16    5.41
   9  15  -9    5.61    3.95
  -9  15   9    6.88    3.54
   9  15  -8    2.18    2.09
  -9  15   8    8.93    3.83
   9  15  -7   16.84    6.37
  -9  15   7   12.62    4.97
   9  15  -6   10.41    4.32
  -9  15   6    9.97    3.92
   9  15  -5   -1.76    1.92
  -9  15   5    0.12    1.64
   9  15  -4    8.72    3.74
  -9  15   4   10.81    4.25
   9  15  -3    8.07    3.80
  -9  15   3   11.26    4.17
   9  15  -2   18.48    6.41
  -9  15   2   12.89    4.62
   9  15  -1    2.65    1.55
  -9  15   1    4.24    2.87
   9  15   0    3.41    2.24
  -9  15   0    9.70    3.05
   9  15   1    0.91    1.25
   9  15   2   13.02    5.18
   9  15   3    1.07    1.98
   9  15   4    2.42    2.49
   9  15   5    0.91    2.11
   9  15   6   25.80    7.30
  -9  16   9   13.23    5.47
  -9  16   8    2.30    2.83
  -9  16   7    5.17    3.51
  -9  16   6   24.94    7.00
  -9  16   5    4.85    3.22
   9  16  -4    1.19    1.37
  -9  16   4    4.04    3.05
   9  16  -3    2.49    1.59
  -9  16   3    5.68    3.40
   9  16  -2    1.69    2.10
  -9  16   2    3.38    2.34
   9  16  -1   22.74    6.66
   9  16   0    0.29    0.58
   9  16   1    6.23    3.45
  -9  17   7    4.25    4.14
  -9  17   6    3.98    1.89
  -9  17   5   10.77    5.47
  -9  17   4    5.58    4.10
  10  -9  -9    7.01    2.74
  10  -9  -8   18.09    4.11
  10  -9  -7   45.29    6.27
  10  -9  -6    9.35    2.43
  10  -9  -5   20.27    3.35
  10  -9  -4   26.07    3.38
  10  -9  -3   17.59    2.19
  10  -9  -2   38.33    2.51
  10  -8 -10   18.37    4.71
  10  -8  -9    4.45    2.40
  10  -8  -8   16.54    3.94
  10  -8  -7    6.83    2.33
  10  -8  -6    4.16    1.90
  10  -8  -5   31.15    4.38
  10  -8  -4   42.82    4.92
  10  -8  -3    1.61    0.96
  10  -8  -2    8.07    1.39
  10  -8  -1   25.97    1.86
  10  -8  -1   30.65    1.97
  10  -7  -1   49.26    3.41
  10  -7   0  116.61    4.46
  10  -7   0  127.05    4.03
  10  -6  -7   11.08    3.96
  10  -6  -6    9.75    3.09
  10  -6  -5   58.02    7.44
  10  -6  -4   68.36    7.79
  10  -6   0  102.19    5.48
  10  -6   1   39.73    2.96
  10  -6   2   83.90    3.31
 -10  -5  19   12.71    5.30
 -10  -5  18    4.60    2.71
 -10  -5  17   -2.09    1.86
 -10  -5  16   23.75    7.08
 -10  -5  15    5.39    2.94
 -10  -5  14    2.60    2.07
 -10  -5  13   -0.20    1.22
  10  -5  -8  218.10   16.36
  10  -5  -7   66.10    8.70
  10  -5  -6   95.92    9.97
  10  -5  -5   47.27    6.90
  10  -5  -4   61.98    7.30
  10  -5  -3   23.66    4.26
  10  -5  -2   18.32    3.56
  10  -5  -1    5.71    1.82
  10  -5   0  143.26    7.62
  10  -5   1   10.04    1.86
  10  -5   2    5.55    1.14
  10  -5   3    5.18    0.99
  10  -5   4    0.98    0.43
  10  -5   5    2.56    0.64
 -10  -4  19   14.74    6.00
 -10  -4  18   30.72    8.21
 -10  -4  17    5.00    2.72
 -10  -4  16   40.93    9.11
 -10  -4  15   14.74    5.20
 -10  -4  14   20.20    5.99
 -10  -4  13    4.55    2.86
 -10  -4  12   85.58   11.88
 -10  -4  11    7.28    3.24
 -10  -4  10   28.03    6.32
  10  -4  -8    0.55    0.89
  10  -4  -7   15.62    4.50
  10  -4  -6   28.12    5.60
  10  -4  -5   20.79    4.56
  10  -4  -4   35.69    5.50
  10  -4  -3   44.25    6.10
  10  -4  -2   61.88    6.79
  10  -4  -1  114.65    8.45
  10  -4   0   73.28    6.08
  10  -4   0   74.27    6.22
  10  -4   1   56.33    4.92
  10  -4   1   47.72    4.58
  10  -4   2  148.93    7.71
  10  -4   3   37.17    3.96
  10  -4   4   34.30    3.67
  10  -4   5   43.17    4.25
  10  -4   6  147.60    8.30
  10  -4   7   64.33    5.50
 -10  -3  20    8.05    4.40
 -10  -3  19    4.73    3.02
 -10  -3  18    5.25    3.37
 -10  -3  17    0.73    2.08
 -10  -3  16   12.23    4.65
 -10  -3  15    1.33    1.17
 -10  -3  14    2.68    2.76
 -10  -3  13    1.32    0.92
 -10  -3  12   34.27    7.50
 -10  -3  11   96.29   12.26
 -10  -3  10   72.09   10.64
 -10  -3   9  177.32   15.74
 -10  -3   8  140.96   13.26
  10  -3  -8  205.62   16.30
 -10  -3   7   68.53    9.22
  10  -3  -7   60.42    8.54
  10  -3  -6   64.58    8.31
  10  -3  -5   66.07    8.24
  10  -3  -4  224.89   14.22
  10  -3  -3   21.95    4.43
  10  -3  -2   27.31    4.38
  10  -3  -1   22.24    3.87
  10  -3   0  167.80   10.17
  10  -3   0  161.84    9.43
  10  -3   1   47.24    5.07
  10  -3   1   52.34    4.85
  10  -3   2   12.16    2.42
  10  -3   2   16.33    2.55
  10  -3   3    4.48    0.91
  10  -3   3    7.86    1.95
  10  -3   4   48.07    4.73
  10  -3   5  104.74    7.24
  10  -3   6   15.24    3.00
  10  -3   7   68.81    6.48
 -10  -3  -7   49.86    8.05
  10  -3   8   52.34    5.77
 -10  -3  -8   46.50    7.53
 -10  -2  20   29.29    8.04
 -10  -2  19   52.05   10.51
 -10  -2  18   12.80    5.30
 -10  -2  17   42.31    9.09
 -10  -2  16   34.02    7.88
 -10  -2  15   36.96    8.00
 -10  -2  14    7.21    3.67
 -10  -2  13   30.59    7.05
 -10  -2  12   10.93    4.12
 -10  -2  11    8.88    3.38
 -10  -2  10   13.72    4.51
 -10  -2   9   13.20    4.15
 -10  -2   8  288.16   19.17
  10  -2  -8  334.57   20.09
 -10  -2   7   54.13    8.38
  10  -2  -7   51.55    7.87
 -10  -2   6   49.42    7.33
  10  -2  -6   53.90    7.44
 -10  -2   5   63.39    8.20
  10  -2  -5   44.94    6.86
  10  -2  -4  135.20   11.18
  10  -2  -3  136.94   10.97
  10  -2  -2  303.60   15.17
  10  -2  -1  138.55    9.78
  10  -2   0  386.69   16.27
  10  -2   0  411.16   15.63
  10  -2   1  131.03    9.48
  10  -2   1  108.45    7.44
  10  -2   2  272.43   12.46
  10  -2   2  250.86   10.52
  10  -2   3   82.58    6.88
  10  -2   3   82.34    5.35
  10  -2   4  188.17   10.18
  10  -2   4  176.68    6.36
  10  -2   5   39.94    4.73
  10  -2   6   95.30    7.55
  10  -2   7   12.99    2.95
 -10  -2  -7   19.09    4.54
  10  -2   8    7.57    2.45
 -10  -2  -8   11.27    3.49
  10  -2   9   18.95    3.80
 -10  -2  -9   15.78    4.13
  10  -2  10    7.96    2.46
 -10  -2 -10   15.40    4.20
 -10  -1  20    3.81    3.44
 -10  -1  19    3.84    2.96
 -10  -1  18    1.29    2.05
 -10  -1  17    1.00    1.77
 -10  -1  16    5.57    3.33
 -10  -1  15   14.10    4.97
 -10  -1  14   43.36    8.61
 -10  -1  13   32.50    7.74
 -10  -1  12  118.27   13.55
 -10  -1  11   74.89   10.58
 -10  -1  10   14.92    4.42
 -10  -1   9   56.97    8.66
 -10  -1   8  130.92   12.28
  10  -1  -8  144.72   13.15
 -10  -1   7   83.06    9.99
  10  -1  -7  116.15   11.63
 -10  -1   6   32.14    5.94
  10  -1  -6   31.17    5.62
 -10  -1   5   94.90   10.08
  10  -1  -5   93.02    9.46
 -10  -1   4  745.82   25.98
  10  -1  -4  830.87   27.24
  10  -1  -3  169.66   11.90
  10  -1  -2   60.19    6.81
  10  -1  -1   28.78    4.59
  10  -1   0   64.74    7.04
  10  -1   0   65.45    6.26
  10  -1   1   14.66    3.36
  10  -1   1   12.15    2.61
  10  -1   2    9.00    2.38
  10  -1   2    7.24    1.78
  10  -1   3   53.79    5.85
  10  -1   3   61.12    5.16
  10  -1   4  161.97   10.10
  10  -1   4  172.75    7.87
  10  -1   5   12.24    2.78
  10  -1   5   10.29    1.59
  10  -1   6   14.52    3.23
  10  -1   6    5.87    0.80
  10  -1   7   11.25    2.90
  10  -1   7    3.23    0.69
  10  -1   7    2.88    0.48
 -10  -1  -7   17.24    4.11
  10  -1   8   17.09    3.74
 -10  -1  -8   21.07    4.69
  10  -1   9   26.38    4.69
 -10  -1  -9   18.37    4.50
  10  -1  10    4.73    2.27
 -10  -1 -10    8.16    3.22
  10  -1  11   33.02    5.60
 -10  -1 -11   49.82    7.61
  10  -1  12    3.12    0.67
  10  -1  13   58.91    3.39
  10  -1  14   28.45    2.54
 -10   0  20   59.86   11.31
 -10   0  19   22.94    6.95
 -10   0  18   34.12    8.53
 -10   0  17   14.56    5.55
 -10   0  16  119.22   14.78
 -10   0  15   28.29    7.02
 -10   0  14    5.34    3.65
 -10   0  13   39.56    7.90
 -10   0  12   88.32   11.60
 -10   0  11   10.40    4.11
 -10   0  10   52.15    8.27
 -10   0   9   35.48    6.94
 -10   0   8  296.21   18.96
  10   0  -8  289.50   18.72
 -10   0   7    9.03    3.28
  10   0  -7    6.99    3.07
 -10   0   6   90.96    9.54
  10   0  -6   95.08   10.09
 -10   0   5    5.38    2.38
  10   0  -5    7.82    3.01
 -10   0   4   33.45    5.55
  10   0  -4   26.90    4.90
  10   0  -3   35.08    5.57
 -10   0   3   40.02    5.90
  10   0  -2  180.48   11.96
 -10   0   2  172.44   11.39
  10   0  -1   75.38    7.53
  10   0   0  154.02   10.21
  10   0   0  136.67   10.69
  10   0   1   87.64    7.21
  10   0   1   98.08    9.12
  10   0   2  534.02   17.01
  10   0   2  487.00   19.10
  10   0   3   70.22    5.90
  10   0   3   83.80    7.90
  10   0   4  151.35    8.35
  10   0   4  142.39   10.09
  10   0   5   26.07    3.36
  10   0   5   30.46    4.65
  10   0   6   92.33    8.25
  10   0   6   72.36    5.35
  10   0   7    8.72    2.55
  10   0   7    4.75    1.15
 -10   0  -7    8.16    2.84
  10   0   8  138.35   10.59
  10   0   8  111.80    5.72
 -10   0  -8  158.71   12.48
  10   0   8  118.74    6.31
  10   0   9   61.84    7.49
 -10   0  -9   53.26    7.08
  10   0   9   38.70    3.49
  10   0   9   33.67    3.09
 -10   0 -10   32.70    5.96
  10   0  10   35.45    5.84
  10   0  10   19.27    2.24
 -10   0 -11   31.18    5.84
  10   0  11   27.05    5.41
  10   0  11   15.71    2.34
 -10   0 -12   39.39    6.56
  10   0  12   41.89    6.92
  10   0  12   31.42    3.52
  10   0  13   41.52    4.25
  10   0  14    9.53    2.12
  10   0  15    6.84    1.82
 -10   1  20    0.68    0.71
 -10   1  19    1.63    2.43
 -10   1  18    1.63    1.69
 -10   1  17    1.24    0.78
 -10   1  16    9.50    4.10
 -10   1  15   12.39    4.65
 -10   1  14   35.20    7.76
 -10   1  13   23.68    6.65
 -10   1  12  126.15   13.72
 -10   1  11   76.16   10.48
 -10   1  10   11.03    3.78
 -10   1   9   71.39    9.44
 -10   1   8  130.48   12.20
  10   1  -8  132.51   12.59
 -10   1   7  114.69   11.22
  10   1  -7   76.86    9.72
  10   1  -6   32.17    5.84
 -10   1   6   29.56    5.49
 -10   1   5  104.72   10.00
  10   1  -5   93.08    9.85
 -10   1   4  840.04   26.86
  10   1  -4  790.20   27.68
  10   1  -3  265.95   15.58
 -10   1   3  174.94   11.83
  10   1  -2   44.04    5.89
 -10   1   2   57.89    6.48
  10   1  -1   38.11    5.52
 -10   1   1   34.16    4.73
  10   1  -1   37.29    5.92
  10   1   0   51.84    6.10
  10   1   0   49.67    6.60
  10   1   1   19.75    3.61
  10   1   1   17.96    4.08
  10   1   2    9.27    2.42
  10   1   2    9.38    2.84
  10   1   3   28.36    4.16
  10   1   3   40.21    5.87
  10   1   4  210.35   11.07
  10   1   4  175.30   11.67
  10   1   5   18.71    3.14
  10   1   5   16.26    3.49
  10   1   6   21.69    4.25
  10   1   6   27.72    3.90
  10   1   7   15.34    2.74
  10   1   7   15.71    3.65
 -10   1  -8   21.74    4.39
  10   1   8   15.54    3.76
 -10   1  -9   23.48    4.45
  10   1   9   16.00    4.01
 -10   1 -10    5.14    2.08
  10   1  10    4.78    2.34
  10   1  10    3.43    1.38
 -10   1 -11   36.94    6.22
  10   1  11   55.49    8.02
  10   1  11   49.50    4.92
 -10   1 -12   10.86    3.33
  10   1  12   14.43    4.27
  10   1  12    6.35    1.69
 -10   1 -13   91.18    9.82
  10   1  13   64.12    9.06
  10   1  13   35.05    4.29
  10   1  14   18.43    3.10
  10   1  15   12.48    2.69
  10   1  16    8.35    2.52
 -10   2  20   19.89    6.50
 -10   2  19   51.62   10.51
 -10   2  18   15.16    5.71
 -10   2  17   41.36    9.05
 -10   2  16   22.74    6.72
 -10   2  15   25.57    6.83
 -10   2  14    7.22    3.85
 -10   2  13   35.58    7.53
 -10   2  12    8.66    3.61
 -10   2  11   19.57    5.33
 -10   2  10    9.79    3.75
 -10   2   9    6.13    2.81
 -10   2   8  317.69   18.98
  10   2  -7   55.64    8.31
 -10   2   7   48.64    7.34
  10   2  -6   55.65    7.98
 -10   2   6   53.97    7.34
 -10   2   5   53.64    7.20
  10   2  -5   63.90    8.26
 -10   2   4  136.61   10.86
  10   2  -4  118.55   10.76
  10   2  -3  154.96   12.35
 -10   2   3  152.79   11.22
 -10   2   2  309.67   14.51
  10   2  -2  238.81   14.92
  10   2  -1  196.54   12.82
 -10   2   1  144.19    9.60
  10   2  -1  182.56   13.81
  10   2   0  331.43   16.16
 -10   2   0  423.02   15.29
  10   2   0  348.99   18.72
  10   2   1  156.73   10.98
  10   2   1  154.25   12.48
  10   2   2  275.62   14.29
  10   2   2  249.33   15.03
  10   2   3  122.64    9.14
  10   2   3  108.62    9.91
  10   2   4  200.87   11.72
  10   2   4  171.98   12.10
  10   2   5   25.53    4.04
  10   2   5   34.24    5.42
  10   2   6   92.37    9.07
  10   2   7   16.98    3.81
 -10   2  -8    6.68    2.36
  10   2   8    7.83    2.72
 -10   2  -9   19.18    3.90
  10   2   9   18.01    4.16
 -10   2 -10   10.64    2.98
  10   2  10   12.56    2.60
  10   2  10   18.22    4.52
 -10   2 -11    7.48    2.49
  10   2  11    5.35    2.46
  10   2  11    5.93    1.82
 -10   2 -12    3.00    1.82
  10   2  12    2.68    1.14
  10   2  12    5.87    2.81
 -10   2 -13    8.65    3.11
  10   2  13   18.48    4.91
  10   2  13   15.77    3.26
 -10   2 -14    0.60    0.54
  10   2  14    3.82    2.09
  10   2  14    1.83    1.20
  10   2  15    1.84    1.43
  10   2  16    7.67    2.62
 -10   3  20    8.60    4.55
 -10   3  19    4.80    3.47
 -10   3  18    1.59    2.10
 -10   3  17    3.25    2.56
 -10   3  16   16.63    5.80
 -10   3  15    3.05    2.16
 -10   3  14    2.00    1.84
 -10   3  13    3.32    2.61
 -10   3  12   49.33    8.75
 -10   3  11   76.99   10.41
 -10   3  10   78.56   10.49
 -10   3   9  128.26   12.94
 -10   3   8  193.72   15.11
 -10   3   7   58.98    8.13
  10   3  -7   63.71    8.94
 -10   3   6   71.84    8.54
  10   3  -6   46.18    7.26
  10   3  -5   92.47   10.30
 -10   3   5   75.27    8.58
 -10   3   4  219.76   13.44
  10   3  -4  186.37   14.30
 -10   3   3   25.30    4.59
  10   3  -3   32.39    5.66
 -10   3   2   30.75    4.46
  10   3  -2   23.42    4.68
 -10   3   1   22.49    3.74
  10   3  -1   37.64    5.92
  10   3  -1   36.99    6.30
  10   3   0  177.79   12.63
 -10   3   0  165.92    9.17
  10   3   0  160.50   12.62
  10   3   1   40.25    5.75
 -10   3  -1   54.95    4.88
  10   3   1   37.27    6.24
  10   3   2   19.33    3.97
  10   3   2   19.67    4.34
  10   3   3    8.69    2.76
  10   3   3    8.68    2.99
  10   3   4   65.29    7.00
  10   3   4   59.10    7.38
  10   3   5   75.29    8.42
  10   3   6   21.14    4.73
  10   3   7   48.38    6.98
  10   3   8   47.00    6.93
 -10   3  -9   84.83    8.01
  10   3   9   68.92    8.73
 -10   3 -10   11.16    3.13
  10   3  10    8.13    3.34
 -10   3 -11   22.78    4.46
  10   3  11   18.20    3.59
  10   3  11   23.22    5.36
 -10   3 -12    8.33    2.61
  10   3  12    6.10    2.66
  10   3  12    5.38    2.05
 -10   3 -13   46.69    6.44
  10   3  13   36.82    7.23
  10   3  13   26.56    4.82
 -10   3 -14   23.51    4.89
  10   3  14   28.03    6.29
  10   3  14   29.79    5.09
 -10   3 -15   16.86    4.34
  10   3  15   13.50    4.30
  10   3  15    7.75    2.71
  10   3  16   11.33    3.35
  10   3  17   27.16    5.52
 -10   4  19   25.76    7.45
 -10   4  18   26.02    7.61
 -10   4  17   10.41    4.78
 -10   4  16   42.74    8.91
 -10   4  15    9.25    4.53
 -10   4  14   15.93    5.23
 -10   4  13   11.33    4.11
 -10   4  12   55.09    9.04
 -10   4  11    6.52    2.98
 -10   4  10   27.21    5.95
 -10   4   9   10.97    3.97
 -10   4   8    0.24    1.30
 -10   4   7   17.80    4.45
  10   4  -6   32.99    6.37
 -10   4   6   27.40    5.30
 -10   4   5   24.04    4.73
  10   4  -5   14.40    4.13
 -10   4   4   39.40    5.80
  10   4  -4   36.39    6.35
 -10   4   3   44.36    5.99
  10   4  -3   63.20    8.27
  10   4  -2   40.58    6.72
 -10   4   2   69.72    7.08
  10   4  -2   42.52    7.31
  10   4  -1  160.37   12.77
 -10   4   1  133.59    9.11
  10   4  -1  143.11   12.85
 -10   4   0   79.11    6.46
  10   4   0   60.38    7.51
  10   4   0   54.13    7.56
  10   4   1   39.17    6.11
 -10   4  -1   62.60    5.12
  10   4   1   38.46    6.51
 -10   4  -2  156.51    6.89
  10   4   2  182.92   12.95
  10   4   2  165.02   13.07
  10   4   3   66.16    7.54
  10   4   3   63.35    8.16
  10   4   4   22.23    4.86
  10   4   5   64.58    8.18
  10   4   6  106.77   10.52
  10   4   7  104.22   10.62
  10   4   8   28.66    5.55
 -10   4  -9   47.34    5.54
  10   4   9   31.50    6.09
 -10   4 -10   56.10    6.16
  10   4  10   60.70    8.43
 -10   4 -11    4.43    1.62
  10   4  11    4.15    2.32
 -10   4 -12    8.98    2.62
  10   4  12    8.64    2.68
  10   4  12    7.18    3.12
 -10   4 -13    6.21    2.44
  10   4  13   12.67    4.55
  10   4  13   10.82    3.15
 -10   4 -14    8.95    2.73
  10   4  14    9.00    3.82
  10   4  14    7.01    2.78
  10   4  15    2.48    1.93
  10   4  15    2.93    1.89
  10   4  16    8.25    3.05
  10   4  17    1.59    1.75
 -10   5  19   16.61    5.80
 -10   5  18    3.32    2.74
 -10   5  17    4.38    2.88
 -10   5  16   17.44    5.62
 -10   5  15    6.86    3.69
 -10   5  14    3.38    3.24
 -10   5  13    2.51    2.64
 -10   5  12   44.80    8.37
 -10   5  11    4.50    3.01
 -10   5  10    8.93    3.51
 -10   5   9   66.11    9.40
 -10   5   8  227.39   16.70
 -10   5   7   77.11    9.60
 -10   5   6   98.00   10.11
 -10   5   5   53.56    7.38
  10   5  -4   45.03    7.18
 -10   5   4   67.85    7.65
  10   5  -3   39.88    7.01
 -10   5   3   26.35    4.44
  10   5  -3   35.61    6.88
 -10   5   2   18.89    3.54
  10   5  -2   13.60    3.92
  10   5  -2   13.86    4.23
  10   5  -1    5.07    2.17
 -10   5   1    5.08    1.70
  10   5  -1    7.02    2.82
 -10   5   0  185.94   10.15
  10   5   0  152.83   12.83
  10   5   0  150.36   13.84
  10   5   1   19.62    4.54
 -10   5  -1   12.07    2.48
  10   5   1   17.08    4.43
 -10   5  -2    3.94    0.91
  10   5   2    6.05    2.48
  10   5   2    3.15    1.85
  10   5   3   10.19    3.40
  10   5   4    3.11    1.76
  10   5   5    6.98    2.62
  10   5   6    9.52    3.27
  10   5   7   10.17    3.69
  10   5   8  119.12   11.78
  10   5   9   15.75    4.36
 -10   5 -10   10.03    2.53
  10   5  10   27.12    5.87
 -10   5 -11    3.72    1.52
  10   5  11    3.77    2.38
 -10   5 -12    0.52    0.37
  10   5  12    2.65    2.10
 -10   5 -13   27.94    4.71
  10   5  13   28.76    6.89
  10   5  13   29.20    5.93
  10   5  14    2.92    2.54
  10   5  14    3.25    1.84
  10   5  15   29.32    7.12
  10   5  15   26.46    5.50
  10   5  16    2.13    2.04
  10   5  16    1.06    1.62
  10   5  17   18.99    4.84
  10   5  18    7.19    3.17
 -10   6  19   15.81    5.74
 -10   6  18   11.32    5.07
 -10   6  17   28.55    8.01
 -10   6  16    4.70    3.10
 -10   6  15   18.52    5.88
 -10   6  14   24.26    6.80
 -10   6  13    5.33    2.78
 -10   6  12    9.75    3.97
 -10   6  11    4.40    1.93
 -10   6  10   51.50    8.35
 -10   6   9    2.12    1.51
 -10   6   8   11.69    3.98
 -10   6   7    9.35    3.50
 -10   6   6   14.92    4.00
 -10   6   5   68.25    8.19
 -10   6   4   81.96    8.55
 -10   6   3  132.98   10.50
  10   6  -3  166.19   15.54
 -10   6   2  135.24   10.11
  10   6  -2   74.91    9.32
  10   6  -2   74.58   10.05
  10   6  -1  153.01   13.66
 -10   6   1  120.79    9.16
  10   6  -1  133.43   12.93
 -10   6   0  138.22    8.67
  10   6   0   97.91   10.73
  10   6   0   97.54   11.45
 -10   6  -1   47.32    4.79
  10   6   1   72.17    8.86
  10   6   1   67.44    9.21
 -10   6  -2  123.68    6.40
  10   6   2   98.28   10.69
 -10   6  -3   10.92    1.57
  10   6   3   35.01    6.43
  10   6   4   51.49    7.75
  10   6   5   17.80    4.50
  10   6   6   14.45    3.90
  10   6   7   15.98    4.36
  10   6   8   24.65    5.41
  10   6   9   13.89    4.26
  10   6  10    6.58    3.14
 -10   6 -11    2.87    1.17
  10   6  11    3.03    2.22
  10   6  12    0.45    1.25
  10   6  13    5.90    2.69
  10   6  13    4.90    2.74
  10   6  14   -0.15    0.74
  10   6  14    0.79    1.28
  10   6  15    0.39    0.63
  10   6  15    0.32    0.38
  10   6  16    6.60    3.36
  10   6  16    5.80    2.77
  10   6  17    6.46    3.83
  10   6  17    6.14    3.08
  10   6  18    2.94    2.28
 -10   7  18    2.90    2.53
 -10   7  17    3.06    3.06
 -10   7  16    7.23    3.91
 -10   7  15   14.95    5.04
 -10   7  14   12.66    5.01
 -10   7  13    3.44    2.84
 -10   7  12    8.97    4.03
 -10   7  11   46.41    8.55
 -10   7  10   19.83    5.57
 -10   7   9    6.40    3.17
 -10   7   8  157.88   14.08
 -10   7   7  176.53   14.48
 -10   7   6   35.18    6.13
 -10   7   5   15.15    3.91
  10   7  -4   28.82    6.59
 -10   7   4   25.80    4.77
  10   7  -3    9.64    3.94
 -10   7   3    7.57    2.55
  10   7  -2   41.99    7.59
 -10   7   2   52.56    6.49
  10   7  -1   92.96   11.49
 -10   7   1   80.08    7.72
  10   7   0  177.49   15.39
 -10   7   0  228.11   12.15
  10   7   1   16.37    4.68
 -10   7  -1   12.83    2.40
 -10   7  -2   14.74    2.19
  10   7   2   13.37    4.06
 -10   7  -3    3.69    0.85
  10   7   3    3.65    2.20
  10   7   4    4.15    2.23
  10   7   5    9.58    3.27
  10   7   6   11.31    3.84
  10   7   7   11.74    4.24
  10   7   8   98.17   11.33
  10   7   9   16.08    4.92
  10   7  10    6.78    3.22
  10   7  11    9.44    3.82
  10   7  12    9.49    3.93
  10   7  13   26.83    7.13
  10   7  14   26.76    7.15
  10   7  14   25.41    5.87
  10   7  15    4.04    2.59
  10   7  15    2.48    2.19
  10   7  16    0.82    0.88
  10   7  16    1.73    1.89
  10   7  17   17.19    6.08
  10   7  17   16.70    5.28
  10   7  18   26.60    6.87
 -10   8  17   12.23    5.22
 -10   8  16   14.36    5.37
 -10   8  15   26.98    6.81
 -10   8  14    7.31    4.10
 -10   8  13   10.97    4.34
 -10   8  12   43.52    8.54
 -10   8  11    5.05    2.78
 -10   8  10   20.04    5.54
 -10   8   9    6.52    3.37
 -10   8   8   18.18    5.03
 -10   8   7    9.47    3.58
 -10   8   6    4.88    2.81
  10   8  -5   56.78    9.62
 -10   8   5   41.16    6.99
  10   8  -4   35.38    7.52
 -10   8   4   45.95    7.01
  10   8  -3    6.07    3.20
 -10   8   3    6.04    2.52
  10   8  -2   18.32    5.03
 -10   8   2   18.03    4.08
  10   8  -1   68.28   10.32
 -10   8   1   59.54    6.84
  10   8   0   19.76    5.06
 -10   8   0   40.32    5.43
  10   8   1   25.07    5.86
 -10   8  -1   38.14    4.87
  10   8   2    7.80    3.22
 -10   8  -2    7.81    1.71
 -10   8  -3   77.38    5.13
  10   8   3   85.07   10.71
 -10   8  -4   21.78    2.14
  10   8   4   11.29    3.76
  10   8   5   40.55    7.27
  10   8   6   32.14    6.64
  10   8   7   18.04    5.16
  10   8   8    9.90    3.58
  10   8   9   22.69    5.75
  10   8  10    8.49    4.08
  10   8  11    8.91    4.00
  10   8  12   19.63    5.94
  10   8  13    0.63    0.97
  10   8  14    2.78    2.96
  10   8  14    0.07    1.00
  10   8  15    1.05    1.62
  10   8  15    0.83    1.42
  10   8  16    2.22    2.31
  10   8  16    3.72    2.47
  10   8  17    7.47    4.24
  10   8  17    4.10    3.12
  10   8  18    1.30    2.16
  10   8  19   12.87    5.17
 -10   9  17    3.00    3.33
 -10   9  16    7.56    4.65
 -10   9  15   18.59    6.21
 -10   9  14    1.35    0.34
 -10   9  13    8.39    4.34
 -10   9  12   36.69    7.92
 -10   9  11   15.07    5.34
 -10   9  10   16.96    5.14
 -10   9   9    7.38    3.29
 -10   9   8   22.42    5.69
 -10   9   7   47.68    8.05
  10   9  -6    7.04    3.57
 -10   9   6   13.14    4.35
  10   9  -5   29.05    7.32
 -10   9   5   25.80    5.46
  10   9  -4   20.26    5.49
 -10   9   4   34.97    6.04
  10   9  -3   32.79    7.04
 -10   9   3   28.48    5.21
  10   9  -2   46.57    8.75
 -10   9   2   56.65    6.98
  10   9  -1   13.43    4.31
 -10   9   1   22.96    4.44
  10   9   0   77.72   10.77
 -10   9   0   98.37    8.46
  10   9   1  101.84   12.21
 -10   9  -1  137.46    9.71
  10   9   2    6.74    2.82
 -10   9  -2    9.74    2.40
  10   9   3    2.78    2.04
 -10   9  -3    2.28    1.12
  10   9   4    4.18    2.53
 -10   9  -4    1.21    0.20
 -10   9  -5    1.11    0.51
  10   9   5   -0.01    0.62
  10   9   6    3.08    2.13
  10   9   7    2.01    1.20
  10   9   8   18.96    5.38
  10   9   9    6.67    3.69
  10   9  10    0.36    0.94
  10   9  11    5.63    3.44
  10   9  12    2.62    2.14
  10   9  13    6.98    3.78
  10   9  14    9.31    4.74
  10   9  14    7.18    3.68
  10   9  15   10.65    4.46
  10   9  15   13.15    5.58
  10   9  16    2.92    2.65
  10   9  16    3.07    2.97
  10   9  17   10.94    4.67
  10   9  18    6.40    3.79
  10   9  19    6.48    4.21
 -10  10  16    8.31    4.21
 -10  10  15    2.94    2.72
 -10  10  14   29.84    7.81
 -10  10  13    4.72    3.06
 -10  10  12    2.52    2.27
 -10  10  11    2.42    2.22
 -10  10  10    5.93    3.23
 -10  10   9   38.76    7.73
 -10  10   8    5.93    2.94
  10  10  -7   11.43    4.31
 -10  10   7   10.98    3.76
  10  10  -6   20.05    6.27
 -10  10   6   14.55    3.98
  10  10  -5   45.41    9.10
 -10  10   5   45.01    7.37
  10  10  -4   16.21    4.89
 -10  10   4   24.18    5.30
  10  10  -3    7.90    3.74
 -10  10   3   10.23    3.46
  10  10  -2   20.23    5.91
 -10  10   2   36.18    6.10
  10  10  -1   26.31    6.48
 -10  10   1   32.48    5.81
  10  10   0   56.08    9.34
 -10  10   0   99.25    9.18
  10  10   1  100.49   12.70
 -10  10  -1  105.64    8.94
  10  10   2   43.74    8.21
 -10  10  -2   39.88    5.17
  10  10   3   34.93    7.15
 -10  10  -3   42.56    4.67
  10  10   4    6.06    2.82
 -10  10  -4    9.57    1.98
  10  10   5   -0.72    1.10
 -10  10  -5    0.55    0.46
  10  10   6   30.07    6.85
  10  10   7    3.99    2.48
  10  10   8   16.48    5.03
  10  10   9    5.44    3.42
  10  10  10    2.49    2.38
  10  10  11    0.91    0.97
  10  10  12    2.93    2.49
  10  10  13    9.58    4.61
  10  10  14    0.56    1.45
  10  10  15    2.79    2.35
  10  10  16    0.49    0.71
  10  10  17   13.48    5.22
  10  10  18    0.93    2.35
 -10  11  15   12.48    5.33
 -10  11  14    4.47    3.27
 -10  11  13    3.57    2.28
 -10  11  12    9.60    4.22
 -10  11  11    6.69    3.32
 -10  11  10    1.23    0.38
 -10  11   9    2.35    1.76
  10  11  -8   13.36    5.43
 -10  11   8   16.28    5.01
  10  11  -7   60.53   10.94
 -10  11   7   62.29    9.60
  10  11  -6    8.56    3.98
 -10  11   6   15.22    4.72
  10  11  -5   52.65    9.78
 -10  11   5   60.06    8.84
  10  11  -4   -0.93    2.20
 -10  11   4    7.47    3.26
  10  11  -3   63.67   10.88
 -10  11   3   71.50    9.33
  10  11  -2   10.56    3.71
 -10  11   2   14.10    3.70
  10  11  -1   57.27    9.77
 -10  11   1   54.45    7.45
  10  11   0   27.80    6.63
 -10  11   0   36.62    5.64
  10  11   1   28.52    6.86
 -10  11  -1   31.29    5.00
  10  11   2   20.67    5.73
 -10  11  -2   23.18    3.93
  10  11   3    2.54    1.86
 -10  11  -3    7.08    2.23
  10  11   4   54.99    9.30
 -10  11  -4   52.36    5.34
  10  11   5    3.76    2.66
  10  11   6   30.73    7.12
  10  11   7    7.54    3.50
  10  11   8   17.43    5.52
  10  11   9    7.57    4.02
  10  11  10   13.75    5.11
  10  11  11    9.76    4.69
  10  11  12    8.49    4.20
  10  11  13   24.82    7.43
  10  11  15    2.50    2.18
  10  11  16    0.32    1.95
  10  11  17    5.74    3.89
 -10  12  14   -1.91    1.68
 -10  12  13    3.64    2.50
 -10  12  12    8.19    3.90
 -10  12  11   -0.70    1.62
  10  12 -10    9.35    4.91
 -10  12  10   12.80    4.52
  10  12  -9   12.43    5.33
 -10  12   9   10.96    4.28
  10  12  -8    7.75    3.59
 -10  12   8   18.33    5.62
  10  12  -7    4.59    3.12
 -10  12   7    5.81    3.42
  10  12  -6    8.60    4.23
 -10  12   6   10.71    4.21
  10  12  -5   -1.83    1.53
 -10  12   5    0.21    1.11
  10  12  -4    2.62    1.98
 -10  12   4    2.72    1.99
  10  12  -3    6.62    3.24
 -10  12   3    7.22    3.25
  10  12  -2    3.03    1.78
 -10  12   2    5.40    2.74
  10  12  -1    7.91    3.54
 -10  12   1    9.54    3.20
  10  12   0    8.43    3.78
 -10  12   0    8.39    2.73
  10  12   1    3.73    2.22
 -10  12  -1    1.80    1.40
  10  12   2    4.82    2.94
 -10  12  -2    3.50    1.63
  10  12   3   21.01    6.15
 -10  12  -3   16.13    3.19
  10  12   4    2.67    2.15
  10  12   5    3.87    2.58
  10  12   6    2.35    1.83
  10  12   7   11.97    4.71
  10  12   8    2.99    2.43
  10  12   9    3.37    2.90
  10  12  10    6.13    3.60
  10  12  11   13.06    5.00
  10  12  15    3.60    2.80
 -10  13  13    4.66    4.12
 -10  13  12    2.48    2.07
  10  13 -11    7.20    4.63
 -10  13  11    8.01    3.81
  10  13 -10    7.17    4.00
 -10  13  10    8.50    4.46
  10  13  -9    5.95    4.00
 -10  13   9    4.87    2.95
  10  13  -8    1.60    1.73
 -10  13   8    3.81    2.21
  10  13  -7   10.06    4.17
 -10  13   7   14.79    5.09
  10  13  -6    7.07    3.55
 -10  13   6   11.90    4.30
  10  13  -5    9.99    4.55
 -10  13   5   13.52    4.41
  10  13  -4    4.76    3.11
 -10  13   4    6.52    2.85
  10  13  -3   22.84    6.58
 -10  13   3   25.83    5.69
  10  13  -2   19.01    6.02
 -10  13   2   23.49    5.39
  10  13  -1    1.56    1.70
 -10  13   1    3.27    2.21
  10  13   0    6.89    3.34
 -10  13   0    9.03    2.77
  10  13   1    7.19    3.20
 -10  13  -1    7.96    2.74
  10  13   2    5.52    3.20
  10  13   3    5.43    3.06
  10  13   4    6.96    3.56
  10  13   5    5.10    2.97
  10  13   6   10.70    4.33
  10  13   7    3.27    2.36
  10  13   8    3.20    2.83
  10  13   9    6.06    3.22
 -10  14  12   -0.20    0.63
 -10  14  11   11.09    4.94
 -10  14  10    4.16    2.47
  10  14  -9    4.59    3.81
 -10  14   9    4.09    3.24
  10  14  -8    7.70    3.51
 -10  14   8    5.16    2.70
  10  14  -7    1.33    2.55
 -10  14   7    1.33    1.59
  10  14  -6    7.17    3.60
 -10  14   6   11.77    4.56
  10  14  -5    4.27    3.19
 -10  14   5    4.01    2.84
  10  14  -4    6.74    3.68
 -10  14   4    5.99    2.81
  10  14  -3   -2.11    2.63
 -10  14   3    3.81    2.47
  10  14  -2   23.22    7.07
 -10  14   2   19.88    5.23
  10  14  -1   28.78    7.47
 -10  14   1   27.94    5.83
  10  14   0    8.87    4.13
  10  14   1   -0.09    1.17
  10  14   2    4.96    2.82
  10  14   3    1.92    1.88
  10  14   4    6.59    3.99
  10  14   5   -0.53    1.91
  10  14   6    0.75    2.18
  10  14   7    5.19    3.55
 -10  15  10    3.49    2.52
 -10  15   9   -0.30    1.20
 -10  15   8    8.56    4.35
 -10  15   7   11.37    4.49
 -10  15   6    0.74    1.85
  10  15  -5   15.58    5.96
 -10  15   5    9.66    4.11
  10  15  -4    2.77    2.41
 -10  15   4    4.10    2.47
  10  15  -3    7.85    3.88
 -10  15   3   10.70    4.05
  10  15  -2   -0.14    1.32
  10  15  -1   23.28    6.73
  10  15   0    0.68    0.31
  10  15   1    1.79    1.15
  10  15   2    4.21    3.55
 -10  16   9   10.14    5.30
 -10  16   8    1.29    0.94
 -10  16   7    4.06    3.62
 -10  16   6   10.22    4.64
 -10  16   5    1.82    2.93
  11  -9  -2   19.21    1.68
  11  -8  -5    3.90    1.75
  11  -8  -4    8.77    2.15
  11  -8  -3    2.01    0.98
  11  -8  -2    2.85    0.93
  11  -8  -1   38.78    2.36
  11  -8  -1   42.01    2.44
  11  -7  -1   18.21    2.41
  11  -7   0   24.41    2.15
  11  -6  -7   11.19    3.65
  11  -6  -6    2.30    1.79
  11  -6  -5    7.77    2.63
  11  -6  -4    2.16    1.60
  11  -6  -1    4.33    1.60
  11  -6   0   15.63    2.22
  11  -6   1   15.51    2.11
  11  -6   2   11.34    1.55
  11  -6   3   14.13    1.46
 -11  -5  18    5.57    3.80
 -11  -5  17   20.79    6.66
 -11  -5  16   17.21    5.42
 -11  -5  15   12.37    5.41
  11  -5  -7   10.45    3.34
  11  -5  -6   16.62    4.42
  11  -5  -5   32.42    5.73
  11  -5  -4   49.92    6.93
  11  -5  -3    8.38    2.49
  11  -5  -2   34.16    5.14
  11  -5  -1    8.85    2.20
  11  -5  -1    8.50    2.09
  11  -5   0   11.17    2.44
  11  -5   1   15.99    2.42
  11  -5   2   51.50    4.27
  11  -5   3    9.75    1.66
  11  -5   4   27.69    3.34
  11  -5   5   67.70    4.78
 -11  -4  18   12.16    5.69
 -11  -4  17   18.03    6.40
 -11  -4  16   15.04    5.84
 -11  -4  15   33.23    8.04
 -11  -4  14    5.27    3.18
 -11  -4  13    5.96    3.10
 -11  -4  12   13.60    5.02
 -11  -4  11   29.15    6.73
  11  -4  -7   48.44    7.65
  11  -4  -6   58.51    8.12
  11  -4  -5    7.85    2.84
  11  -4  -4    4.10    1.87
  11  -4  -3   19.96    4.14
  11  -4  -2    4.02    1.75
  11  -4  -1    1.61    0.91
  11  -4  -1    0.94    0.63
  11  -4   0    1.55    0.90
  11  -4   0    1.63    0.98
  11  -4   1    4.98    1.60
  11  -4   1    4.72    1.56
  11  -4   2   48.94    4.74
  11  -4   3    2.38    1.23
  11  -4   4   11.49    2.24
  11  -4   5   17.17    2.74
  11  -4   6   21.05    3.43
  11  -4   7   15.13    2.93
 -11  -3  19    2.06    2.63
 -11  -3  18    3.38    3.14
 -11  -3  17    5.26    3.15
 -11  -3  16   12.72    5.20
 -11  -3  15    7.24    4.11
 -11  -3  14   12.85    5.47
 -11  -3  13   33.69    7.83
 -11  -3  12   27.58    6.83
 -11  -3  11   37.67    7.70
 -11  -3  10    2.67    1.33
 -11  -3   9   41.09    7.56
 -11  -3   8   80.86   10.70
  11  -3  -7   64.53    8.92
  11  -3  -6   34.39    6.30
  11  -3  -5   42.15    6.73
  11  -3  -4   48.03    6.81
  11  -3  -3   20.75    4.39
  11  -3  -2    6.66    2.21
  11  -3  -1   12.05    3.09
  11  -3  -1   12.22    3.03
  11  -3   0   16.07    3.11
  11  -3   0   18.48    3.27
  11  -3   1   23.77    3.87
  11  -3   1   21.76    3.35
  11  -3   2   27.84    4.10
  11  -3   2   29.80    3.60
  11  -3   3    3.60    1.00
  11  -3   3    4.86    1.75
  11  -3   4   35.79    4.34
  11  -3   5   39.33    4.66
  11  -3   6   19.44    3.43
  11  -3   7   12.03    2.72
  11  -3   8   61.52    6.57
  11  -3   9   33.56    5.05
 -11  -2  19   25.47    7.51
 -11  -2  18    8.70    4.70
 -11  -2  17   16.75    5.84
 -11  -2  16   21.99    6.93
 -11  -2  15   41.44    8.89
 -11  -2  14   19.42    5.62
 -11  -2  13   51.00    9.27
 -11  -2  12   58.37    9.93
 -11  -2  11   91.80   12.15
 -11  -2  10   23.46    6.09
 -11  -2   9   12.55    4.10
 -11  -2   8   19.62    4.95
  11  -2  -8   25.19    5.52
 -11  -2   7  128.62   12.52
  11  -2  -7  111.59   11.56
 -11  -2   6    4.55    2.60
  11  -2  -6    6.66    2.93
  11  -2  -5    1.93    1.51
  11  -2  -4    2.59    1.53
  11  -2  -3   18.39    4.15
  11  -2  -2   18.28    3.98
  11  -2  -1   94.56    8.69
  11  -2  -1  101.19    8.78
  11  -2   0   36.12    5.36
  11  -2   0   31.97    4.43
  11  -2   1   15.76    3.51
  11  -2   1   10.43    2.43
  11  -2   2    6.06    1.88
  11  -2   2    5.97    1.68
  11  -2   3   20.77    3.51
  11  -2   3   20.53    2.99
  11  -2   4    9.65    2.50
  11  -2   4    6.64    1.31
  11  -2   5   41.70    5.14
  11  -2   5   22.59    1.94
  11  -2   6   13.21    2.87
  11  -2   7   36.38    5.11
  11  -2   8   17.39    3.58
 -11  -2  -8   20.18    5.06
  11  -2   9   10.78    3.06
  11  -2  10   39.72    5.80
 -11  -1  19    2.73    2.03
 -11  -1  18    5.43    3.44
 -11  -1  17   11.00    4.85
 -11  -1  16    6.62    3.77
 -11  -1  15    5.12    3.35
 -11  -1  14   11.92    4.73
 -11  -1  13   71.06   11.01
 -11  -1  12   81.13   11.17
 -11  -1  11   13.84    4.96
 -11  -1  10   56.88    8.97
 -11  -1   9   12.44    4.08
 -11  -1   8   29.39    6.23
 -11  -1   7    8.50    3.63
  11  -1  -7   11.41    3.86
 -11  -1   6   27.11    5.77
  11  -1  -6   44.07    6.98
 -11  -1   5    3.19    1.63
  11  -1  -5    4.98    2.06
  11  -1  -4   16.00    3.81
  11  -1  -3    4.59    2.24
  11  -1  -2   44.19    5.89
  11  -1  -1   59.99    7.36
  11  -1  -1   60.46    6.87
  11  -1   0   35.21    5.42
  11  -1   0   37.49    5.14
  11  -1   1    3.86    1.71
  11  -1   1    5.93    1.94
  11  -1   2   22.77    4.22
  11  -1   2   20.45    3.34
  11  -1   3   17.34    3.43
  11  -1   3   17.57    2.80
  11  -1   4   21.11    2.86
  11  -1   4   26.39    4.29
  11  -1   5   34.56    4.91
  11  -1   5   28.70    2.89
  11  -1   6   22.92    4.32
  11  -1   6    6.44    1.23
  11  -1   7   24.91    2.38
  11  -1   7   38.90    2.45
  11  -1   8   30.54    5.14
 -11  -1  -8   27.19    5.59
  11  -1   9   30.84    5.23
 -11  -1  -9   54.94    7.90
  11  -1  10   35.12    5.95
 -11  -1 -10   21.93    5.27
  11  -1  11   49.14    6.88
  11  -1  12   71.84    8.95
 -11   0  19   39.81    9.44
 -11   0  18   41.47    9.52
 -11   0  17   18.31    5.95
 -11   0  16   13.21    5.28
 -11   0  15   74.19   11.75
 -11   0  14   68.67   11.32
 -11   0  13   50.79    9.35
 -11   0  12   10.41    3.85
 -11   0  11    2.06    1.85
 -11   0  10   13.28    4.38
 -11   0   9    7.40    3.14
 -11   0   8   12.25    3.86
 -11   0   7  172.73   14.11
  11   0  -7  169.56   14.38
 -11   0   6    0.59    1.34
  11   0  -6    0.69    1.37
 -11   0   5    1.69    1.40
  11   0  -5   -0.19    0.50
 -11   0   4    1.71    1.28
  11   0  -4    1.62    1.46
 -11   0   3    1.23    1.17
  11   0  -3    3.12    1.60
  11   0  -2    2.30    1.05
  11   0  -1   11.14    3.38
  11   0  -1   13.50    3.22
  11   0   0    2.16    1.12
  11   0   0    0.75    0.76
  11   0   1    1.25    0.94
  11   0   1    1.20    1.05
  11   0   2    4.80    1.74
  11   0   2    5.81    2.16
  11   0   3    0.77    0.82
  11   0   3    0.68    0.65
  11   0   4    0.14    0.21
  11   0   4    0.57    0.61
  11   0   5    3.02    1.08
  11   0   5    5.16    2.09
  11   0   6    0.55    0.50
  11   0   6   -1.32    1.49
  11   0   7  141.06   10.98
  11   0   7  118.75    6.68
  11   0   8   -1.01    0.85
  11   0   8   -0.05    0.26
  11   0   9    2.32    0.62
  11   0   9    2.88    1.84
 -11   0  -9    2.89    1.59
  11   0   9    0.77    0.41
  11   0  10    9.34    3.09
 -11   0 -10   11.24    3.55
  11   0  10    5.48    1.06
  11   0  10    5.25    0.98
  11   0  11    2.21    1.60
 -11   0 -11    1.69    1.49
  11   0  11    0.85    0.36
  11   0  11    1.59    0.71
  11   0  12    4.50    2.21
  11   0  12    1.39    0.41
  11   0  13    2.54    1.89
  11   0  13    1.43    0.74
 -11   1  19    5.24    2.52
 -11   1  18    5.72    3.54
 -11   1  17    3.20    2.66
 -11   1  16    4.75    3.11
 -11   1  15    3.84    3.38
 -11   1  14    8.72    3.34
 -11   1  13   45.20    8.73
 -11   1  12   59.50    9.64
 -11   1  11   10.85    4.16
 -11   1  10   53.08    8.78
 -11   1   9   16.02    4.59
 -11   1   8   31.56    6.47
 -11   1   7    9.76    3.46
  11   1  -7    7.43    2.96
 -11   1   6   40.64    6.66
  11   1  -6   27.03    5.79
 -11   1   5    5.85    2.55
  11   1  -5    7.72    2.96
 -11   1   4   16.50    3.78
  11   1  -4   12.28    3.54
 -11   1   3    5.44    2.29
  11   1  -3    2.01    1.27
 -11   1   2   47.39    6.07
  11   1  -2   51.99    6.90
  11   1  -1   53.88    6.65
  11   1  -1   53.21    7.38
  11   1   0   23.63    4.42
  11   1   0   24.34    4.78
  11   1   1    3.45    1.52
  11   1   1    3.30    1.76
  11   1   2   40.52    5.38
  11   1   2   32.90    5.39
  11   1   3   10.71    2.55
  11   1   3   15.22    3.56
  11   1   4   26.71    4.01
  11   1   4   29.44    5.05
  11   1   5   43.62    5.08
  11   1   5   37.31    5.59
  11   1   6   37.86    5.89
  11   1   6   43.56    4.93
  11   1   7   68.69    7.82
  11   1   7   64.00    5.73
  11   1   8   22.35    4.62
  11   1   8   20.49    3.42
  11   1   9   42.12    6.39
  11   1   9   43.69    4.60
 -11   1  -9   31.94    5.73
 -11   1 -10   37.47    6.27
  11   1  10   24.63    5.17
  11   1  10   13.98    2.33
 -11   1 -11   50.38    7.27
  11   1  11   60.45    8.36
  11   1  11   56.47    5.50
 -11   1 -12   70.63    9.14
  11   1  12   68.88    9.29
  11   1  12   44.65    4.87
  11   1  13   87.83   10.56
  11   1  13   47.81    6.11
  11   1  14    3.67    2.29
  11   1  14    2.18    1.24
 -11   2  19   37.89    9.08
 -11   2  18    9.55    5.04
 -11   2  17   21.15    6.17
 -11   2  16   23.85    6.83
 -11   2  15   58.71   10.12
 -11   2  14   18.50    5.91
 -11   2  13   52.78    9.11
 -11   2  12   34.96    7.34
 -11   2  11  122.80   13.24
 -11   2  10   14.87    4.30
 -11   2   9   17.45    4.76
 -11   2   8   26.10    5.60
 -11   2   7  108.14   11.05
 -11   2   6    5.50    2.52
  11   2  -6    2.85    2.04
 -11   2   5    3.35    1.85
  11   2  -5    4.41    2.45
 -11   2   4    1.68    1.32
  11   2  -4    2.65    1.53
 -11   2   3   22.65    4.40
  11   2  -3   31.64    5.63
  11   2  -2   34.18    5.82
 -11   2   2   20.99    4.06
  11   2  -2   25.00    5.23
 -11   2   1  108.05    8.63
  11   2  -1   81.32    8.82
  11   2  -1   77.85    9.28
  11   2   0   43.08    6.02
  11   2   0   40.96    6.32
  11   2   1   26.38    4.66
  11   2   1   25.33    5.11
  11   2   2    8.55    2.44
  11   2   2    8.13    2.69
  11   2   3   20.88    4.01
  11   2   3   22.46    4.67
  11   2   4   15.43    3.29
  11   2   4   13.66    3.55
  11   2   5   17.51    3.72
  11   2   5   25.62    4.89
  11   2   6    9.28    2.51
  11   2   6    9.89    3.04
  11   2   7   28.93    5.35
  11   2   7   27.11    4.13
  11   2   8   16.70    4.07
 -11   2  -9   15.38    3.79
  11   2   9   19.83    4.60
 -11   2 -10   42.93    6.34
  11   2  10   31.05    6.07
 -11   2 -11    1.56    1.41
  11   2  11    2.08    1.14
  11   2  11    2.89    1.98
 -11   2 -12    9.41    3.01
  11   2  12   12.72    4.13
  11   2  12   12.00    2.66
 -11   2 -13    4.86    2.35
  11   2  13    4.00    2.22
  11   2  13    2.93    1.42
  11   2  14   18.75    5.22
  11   2  14   15.38    3.41
 -11   3  19    0.08    1.29
 -11   3  18    6.27    3.65
 -11   3  17    6.08    3.81
 -11   3  16   16.91    6.02
 -11   3  15    8.73    4.31
 -11   3  14   11.81    4.69
 -11   3  13   26.61    6.82
 -11   3  12   20.52    5.81
 -11   3  11   29.00    6.63
 -11   3  10    5.16    3.31
 -11   3   9   25.21    5.86
 -11   3   8  105.39   11.50
 -11   3   7   64.92    8.52
 -11   3   6   34.08    5.97
  11   3  -5   57.08    8.23
 -11   3   5   46.84    6.86
  11   3  -4   45.38    7.18
 -11   3   4   45.97    6.36
 -11   3   3   25.73    4.75
  11   3  -3   41.74    6.78
  11   3  -2    6.05    2.54
 -11   3   2    5.59    2.04
  11   3  -2    5.74    2.82
 -11   3   1   10.90    2.74
  11   3  -1   23.60    4.80
  11   3  -1   20.47    4.88
 -11   3   0   18.85    3.13
  11   3   0   11.95    3.44
  11   3   0   15.80    4.12
  11   3   1   36.32    5.74
  11   3   1   32.92    5.91
  11   3   2   49.00    6.59
  11   3   2   47.38    7.08
  11   3   3    7.30    2.35
  11   3   3    4.77    1.99
  11   3   4   30.86    5.16
  11   3   4   28.91    5.48
  11   3   5   50.23    6.29
  11   3   5   47.47    6.86
  11   3   6   38.93    5.54
  11   3   6   30.34    5.74
  11   3   7   11.54    3.36
  11   3   8  117.47   11.60
  11   3   9   23.89    5.22
 -11   3 -10   14.87    3.59
  11   3  10   29.24    5.90
 -11   3 -11   12.57    3.35
  11   3  11    9.91    2.65
  11   3  11   11.19    3.70
 -11   3 -12   16.25    3.93
  11   3  12   18.17    3.63
  11   3  12   21.15    5.29
 -11   3 -13   26.75    5.34
  11   3  13   30.36    6.91
  11   3  13   26.85    4.70
  11   3  14   30.34    6.75
  11   3  14   19.59    4.06
  11   3  15   18.38    5.41
  11   3  15   12.81    3.26
 -11   4  19   25.95    7.42
 -11   4  18   13.40    5.71
 -11   4  17   24.09    7.25
 -11   4  16   10.16    4.00
 -11   4  15   59.20   10.52
 -11   4  14    6.14    3.05
 -11   4  13    9.51    3.95
 -11   4  12   13.97    4.88
 -11   4  11   38.27    7.49
 -11   4  10    2.68    1.64
 -11   4   9    2.91    2.38
 -11   4   8    2.29    1.20
 -11   4   7   53.49    7.83
 -11   4   6   58.74    7.86
 -11   4   5    7.95    3.06
 -11   4   4    3.43    1.86
  11   4  -4    6.72    2.81
  11   4  -3   30.86    6.06
 -11   4   3   23.24    4.44
  11   4  -3   30.78    6.43
 -11   4   2    2.75    1.62
  11   4  -2    3.70    2.17
  11   4  -2    1.53    1.40
 -11   4   1    2.19    1.18
  11   4  -1    1.03    1.16
  11   4  -1    3.37    2.37
 -11   4   0    1.20    0.85
  11   4   0    1.35    1.39
  11   4   0    2.04    1.60
 -11   4  -1    5.06    1.37
  11   4   1   10.45    3.08
  11   4   1    4.93    2.22
  11   4   2   34.09    5.87
  11   4   2   41.33    6.87
  11   4   3    1.86    1.46
  11   4   3    1.64    1.28
  11   4   4   13.57    3.48
  11   4   4   12.97    3.73
  11   4   5   22.62    4.91
  11   4   6   15.55    4.11
  11   4   7   29.22    5.81
  11   4   8    3.15    2.07
  11   4   9    1.49    1.64
  11   4  10    6.30    2.69
 -11   4 -11    4.92    1.96
  11   4  11    5.49    2.99
 -11   4 -12    4.94    2.00
  11   4  12    6.38    2.43
  11   4  12    6.27    3.07
  11   4  13    7.32    2.46
  11   4  13    8.69    3.68
  11   4  14    9.78    3.19
  11   4  14   14.55    4.73
  11   4  15    1.08    0.91
  11   4  15    3.14    2.08
  11   4  16    3.12    2.29
  11   4  16    1.53    1.16
 -11   5  18    0.38    1.57
 -11   5  17   15.73    6.04
 -11   5  16   13.95    5.08
 -11   5  15   10.54    4.90
 -11   5  14    4.44    2.83
 -11   5  13   21.80    6.23
 -11   5  12   38.22    7.55
 -11   5  11   17.28    4.89
 -11   5  10    4.52    3.15
 -11   5   9   13.83    4.18
 -11   5   8   12.27    3.64
 -11   5   7    8.48    2.68
 -11   5   6   18.34    4.63
 -11   5   5   35.65    5.88
 -11   5   4   50.83    6.87
 -11   5   3    8.08    2.54
  11   5  -3    4.98    2.43
  11   5  -2   30.64    6.07
 -11   5   2   41.65    5.78
  11   5  -2   32.32    6.80
 -11   5   1   10.93    2.61
  11   5  -1    9.51    3.31
  11   5  -1    6.35    2.45
 -11   5   0   10.39    2.42
  11   5   0   21.59    4.91
  11   5   0   22.95    5.59
 -11   5  -1   21.98    3.11
  11   5   1   18.39    4.54
  11   5   1   14.72    4.19
 -11   5  -2   42.30    3.63
  11   5   2   98.08   10.56
  11   5   2   91.87   10.49
  11   5   3   11.25    3.29
  11   5   3    8.55    3.06
  11   5   4   24.10    5.31
  11   5   5   72.13    9.16
  11   5   6   79.18    9.85
  11   5   7    3.46    2.06
  11   5   8   36.76    6.71
  11   5   9   44.29    7.54
  11   5  10   72.75    9.96
  11   5  11   19.91    5.56
  11   5  12   31.89    6.94
  11   5  13   32.51    7.08
  11   5  13   28.52    5.47
  11   5  14   33.15    7.77
  11   5  14   31.57    5.83
  11   5  15   16.96    5.54
  11   5  15   12.64    4.14
  11   5  16    7.81    3.89
  11   5  16   10.48    3.56
 -11   6  18    4.32    2.76
 -11   6  17   20.06    6.13
 -11   6  16    7.75    4.08
 -11   6  15   52.30    9.76
 -11   6  14   23.16    6.45
 -11   6  13   24.93    6.55
 -11   6  12   20.75    5.80
 -11   6  11  112.96   13.44
 -11   6  10   19.59    5.65
 -11   6   9   87.80   11.06
 -11   6   8    2.94    1.94
 -11   6   7   14.24    4.11
 -11   6   6    1.78    1.72
 -11   6   5    9.39    3.01
 -11   6   4    1.99    1.75
  11   6  -4    1.90    1.78
 -11   6   3   28.18    4.81
  11   6  -3   33.27    7.09
 -11   6   2   29.72    4.82
  11   6  -2   29.76    6.56
 -11   6   1    7.12    2.07
  11   6  -1    4.01    2.12
 -11   6   0   26.90    4.05
  11   6   0   27.30    5.88
  11   6   0   28.15    6.28
 -11   6  -1   17.43    3.06
  11   6   1   24.49    5.59
  11   6   1   28.64    6.21
 -11   6  -2   15.26    2.11
  11   6   2   27.28    5.54
  11   6   2   24.68    5.37
  11   6   3   20.12    4.92
  11   6   3   18.50    4.70
  11   6   4   22.82    5.38
  11   6   5    5.30    2.51
  11   6   6    4.55    2.25
  11   6   7   17.98    4.87
  11   6   8    4.69    2.73
  11   6   9    6.72    2.94
  11   6  10   30.97    6.65
  11   6  11    4.63    2.86
  11   6  12    3.42    2.75
  11   6  13    2.63    1.99
  11   6  13   -0.69    1.12
  11   6  14   23.23    5.29
  11   6  14   23.21    6.85
  11   6  15   -0.17    0.79
  11   6  15    1.75    1.45
  11   6  16   11.14    4.47
  11   6  16    7.25    3.35
  11   6  17    1.78    2.32
 -11   7  17    6.31    3.54
 -11   7  16   13.92    5.53
 -11   7  15   16.82    5.56
 -11   7  14    2.88    2.50
 -11   7  13   10.60    4.73
 -11   7  12    4.24    2.28
 -11   7  11   19.91    5.77
 -11   7  10   19.79    5.38
 -11   7   9   31.52    6.71
 -11   7   8   16.69    4.81
 -11   7   7   26.54    5.70
 -11   7   6    2.42    1.89
  11   7  -5    9.74    3.98
 -11   7   5    7.71    2.77
  11   7  -4    3.52    2.11
 -11   7   4    5.19    2.12
  11   7  -3    2.42    1.70
 -11   7   3    1.94    1.35
 -11   7   2   22.14    4.55
  11   7  -2   29.66    6.67
 -11   7   1   23.46    4.08
  11   7  -1   28.94    6.83
 -11   7   0   40.27    4.95
  11   7   0   22.40    5.52
 -11   7  -1    1.92    0.75
  11   7   1    0.44    0.58
 -11   7  -2   21.19    2.90
  11   7   2   45.12    7.89
 -11   7  -3    0.65    0.33
  11   7   3    1.52    1.23
  11   7   4    6.60    3.00
  11   7   5    7.02    3.03
  11   7   6   22.55    5.69
  11   7   7    3.39    2.27
  11   7   8   69.50    9.85
  11   7   9   13.28    4.52
  11   7  10   65.96   10.11
  11   7  11   10.00    4.06
  11   7  12   37.64    8.01
  11   7  13    3.71    2.29
  11   7  14   85.52   13.02
  11   7  14   68.86    9.63
  11   7  15    1.22    0.83
  11   7  15    3.86    3.14
  11   7  16   16.31    5.77
  11   7  16   16.53    4.86
  11   7  17   11.72    4.88
  11   7  17   12.12    4.63
 -11   8  17   14.66    5.47
 -11   8  16    4.38    3.16
 -11   8  15   38.58    8.58
 -11   8  14    5.80    3.57
 -11   8  13   15.75    5.25
 -11   8  12    1.31    1.87
 -11   8  11   57.44    9.72
 -11   8  10    4.46    2.94
 -11   8   9   20.19    5.44
 -11   8   8    5.74    2.65
 -11   8   7   54.37    8.41
  11   8  -6    0.56    1.14
 -11   8   6    1.31    0.86
  11   8  -5    5.02    2.95
 -11   8   5    4.83    2.30
  11   8  -4   16.41    5.43
 -11   8   4    9.50    3.23
  11   8  -3    1.72    1.08
 -11   8   3    0.67    0.43
  11   8  -2   -1.48    2.59
 -11   8   2    5.07    2.01
 -11   8   1   72.50    7.49
  11   8  -1   73.41   10.96
 -11   8   0   45.73    5.51
  11   8   0   37.58    7.46
 -11   8  -1   11.70    2.93
  11   8   1    8.26    3.77
 -11   8  -2    2.80    1.26
  11   8   2    3.80    1.98
 -11   8  -3    3.51    0.74
  11   8   3    2.95    2.11
  11   8   4    2.73    1.99
  11   8   5    1.28    1.19
  11   8   6   18.95    5.23
  11   8   7    3.38    2.61
  11   8   8   20.06    5.52
  11   8   9    6.97    3.11
  11   8  10   14.92    4.93
  11   8  11    4.91    3.09
  11   8  12    4.57    2.78
  11   8  13   10.04    4.05
  11   8  14    6.31    3.41
  11   8  14    9.51    4.76
  11   8  15   -1.48    1.17
  11   8  15    2.50    1.72
  11   8  16    3.95    3.14
  11   8  16    2.14    1.42
  11   8  17    8.41    3.98
 -11   9  16   26.79    7.49
 -11   9  15   23.30    7.04
 -11   9  14    4.31    3.43
 -11   9  13   24.79    6.41
 -11   9  12    0.79    1.80
 -11   9  11   23.20    6.51
 -11   9  10    4.18    2.64
 -11   9   9   22.07    6.03
 -11   9   8   36.10    7.36
  11   9  -7   13.69    5.07
 -11   9   7   14.64    4.74
  11   9  -6   16.73    5.65
 -11   9   6   13.56    4.22
  11   9  -5    3.98    2.38
 -11   9   5    4.02    2.38
  11   9  -4   -0.60    1.05
 -11   9   4    1.58    1.25
  11   9  -3   -1.19    2.40
 -11   9   3    0.33    0.93
  11   9  -2   38.80    8.37
 -11   9   2   39.65    6.07
  11   9  -1    0.63    0.94
 -11   9   1    1.95    1.73
  11   9   0   24.51    6.51
 -11   9   0   33.71    5.00
  11   9   1    7.35    3.10
 -11   9  -1    6.20    2.28
 -11   9  -2   21.88    3.18
  11   9   2   39.37    7.99
 -11   9  -3    0.22    0.77
  11   9   3    0.56    1.10
 -11   9  -4    5.68    1.10
  11   9   4   21.30    5.67
  11   9   5    0.56    0.54
  11   9   6   91.08   12.08
  11   9   7    6.14    3.09
  11   9   8   44.69    8.41
  11   9   9   28.28    6.81
  11   9  10   88.90   12.31
  11   9  11   11.24    4.72
  11   9  12   28.73    7.54
  11   9  13    3.53    2.97
  11   9  14   48.51    9.89
  11   9  14   42.76    8.15
  11   9  15    3.56    2.55
  11   9  15    4.25    3.52
  11   9  16    6.85    3.45
  11   9  17    1.31    1.03
 -11  10  15    9.92    4.86
 -11  10  14   42.24    9.20
 -11  10  13   24.94    6.87
 -11  10  12   13.18    5.08
 -11  10  11   56.38   10.07
 -11  10  10   21.67    5.98
 -11  10   9   43.58    8.52
  11  10  -8   22.57    7.04
 -11  10   8   29.22    6.59
  11  10  -7   59.96   11.31
 -11  10   7   61.82    9.59
  11  10  -6    9.44    4.58
 -11  10   6    8.91    3.64
  11  10  -5   37.27    8.44
 -11  10   5   40.30    7.12
  11  10  -4    1.83    2.33
 -11  10   4    5.30    2.62
  11  10  -3   56.79   10.67
 -11  10   3   59.29    7.99
  11  10  -2   16.67    5.10
 -11  10   2   15.79    4.01
  11  10  -1   39.36    8.43
 -11  10   1   42.34    6.27
  11  10   0   19.84    5.60
 -11  10   0   27.30    4.69
  11  10   1   35.31    7.77
 -11  10  -1   28.02    4.53
  11  10   2   14.81    4.78
 -11  10  -2   18.93    3.38
  11  10   3    3.11    2.42
 -11  10  -3    5.57    1.74
  11  10   4   47.68    8.81
  11  10   5   16.02    5.23
  11  10   6   38.03    7.95
  11  10   7    5.60    3.30
  11  10   8   24.67    6.67
  11  10   9    2.10    1.71
  11  10  10   16.13    5.54
  11  10  11    4.36    3.40
  11  10  12    3.20    2.60
  11  10  13   -1.11    1.56
  11  10  15    0.72    1.22
  11  10  16   -0.28    0.70
  11  10  17    5.55    3.47
 -11  11  14   11.51    5.51
 -11  11  13    4.25    3.11
 -11  11  12    2.39    1.82
 -11  11  11   35.33    8.30
 -11  11  10   14.26    4.83
  11  11  -9   43.16    9.86
 -11  11   9   31.61    6.97
  11  11  -8   12.94    5.13
 -11  11   8   21.72    5.80
  11  11  -7   48.36   10.44
 -11  11   7   38.79    7.74
  11  11  -6   34.81    8.62
 -11  11   6   28.79    6.63
  11  11  -5    0.43    0.94
 -11  11   5    2.73    1.56
  11  11  -4    5.98    3.36
 -11  11   4    7.60    2.78
  11  11  -3   14.01    5.45
 -11  11   3   10.06    3.06
  11  11  -2   19.00    5.91
 -11  11   2   17.55    4.17
  11  11  -1   25.90    6.73
 -11  11   1   33.02    5.55
  11  11   0   24.03    6.61
 -11  11   0   46.72    6.61
  11  11   1   12.99    4.44
 -11  11  -1   18.16    3.92
  11  11   2   15.33    5.28
 -11  11  -2   10.74    2.63
  11  11   3    0.70    1.56
  11  11   4   11.51    4.29
  11  11   5   10.20    4.30
  11  11   6   36.83    7.92
  11  11   7    7.83    3.84
  11  11   8   12.32    4.71
  11  11   9    3.19    2.43
  11  11  10   27.04    7.09
  11  11  11    2.70    2.09
  11  11  15    9.88    4.37
  11  11  16    5.41    3.50
 -11  12  13   12.45    5.68
 -11  12  12    2.27    2.86
  11  12 -11   12.30    5.47
 -11  12  11   18.90    6.09
  11  12 -10   17.14    6.26
 -11  12  10   19.44    5.73
  11  12  -9   11.38    5.24
 -11  12   9   11.32    4.40
  11  12  -8    3.70    3.98
 -11  12   8    5.12    3.38
  11  12  -7   11.04    4.63
 -11  12   7   13.77    4.00
  11  12  -6    4.42    3.23
 -11  12   6    4.21    2.54
  11  12  -5   13.74    5.92
 -11  12   5   11.70    3.68
  11  12  -4   -0.93    2.72
 -11  12   4    0.76    1.12
  11  12  -3   13.92    5.39
 -11  12   3   10.89    3.54
  11  12  -2    2.11    2.11
 -11  12   2    5.12    2.57
  11  12  -1   39.61    8.49
 -11  12   1   44.03    6.76
  11  12   0    1.75    1.21
 -11  12   0    6.64    2.28
  11  12   1   12.66    4.78
  11  12   2    3.44    2.27
  11  12   3    6.39    3.09
  11  12   4    0.83    1.28
  11  12   5    2.31    2.19
  11  12   6   10.52    4.53
  11  12   7    6.23    3.23
  11  12   8    9.98    4.61
  11  12   9    4.44    3.48
 -11  13  12   -1.16    1.35
 -11  13  11   23.66    7.27
 -11  13  10    7.30    4.10
 -11  13   9   12.93    5.01
  11  13  -8    3.74    2.64
 -11  13   8    4.94    2.76
  11  13  -7   16.47    6.32
 -11  13   7    7.95    3.31
  11  13  -6    4.16    3.59
 -11  13   6    3.20    2.53
  11  13  -5    9.51    4.59
 -11  13   5    8.48    3.92
  11  13  -4   12.69    5.05
 -11  13   4   21.73    5.67
  11  13  -3   -0.82    0.33
 -11  13   3    1.89    1.84
  11  13  -2   24.31    6.97
 -11  13   2   16.74    4.63
  11  13  -1    4.17    2.61
  11  13   0   14.53    5.34
  11  13   1    3.63    2.48
  11  13   2   29.52    7.77
  11  13   3    2.57    1.34
  11  13   4   18.07    6.11
  11  13   5    8.26    4.03
  11  13   6   30.27    7.76
  11  13   7   14.32    5.34
 -11  14  11    2.90    0.83
 -11  14  10   17.10    5.85
 -11  14   9    5.43    2.77
 -11  14   8    6.93    3.42
 -11  14   7   25.86    6.82
 -11  14   6   14.45    5.11
  11  14  -5    9.60    4.18
 -11  14   5   15.49    4.72
  11  14  -4    5.24    3.02
 -11  14   4    7.54    3.38
  11  14  -3   24.26    6.98
  11  14  -2   13.52    5.29
  11  14  -1    0.88    2.44
  11  14   0    0.10    1.54
  11  14   1   34.70    8.56
  11  14   2    1.93    1.68
  11  14   3   10.70    4.82
 -11  15  10   10.42    5.55
 -11  15   9    0.78    1.91
 -11  15   8    1.65    1.88
 -11  15   7    4.55    3.05
 -11  15   6   11.09    4.46
  12  -8  -2   13.36    1.81
  12  -8  -1   33.05    2.37
  12  -7  -2   14.28    2.44
  12  -7  -1    2.20    0.89
  12  -7   0   28.16    2.42
  12  -6  -6    9.01    3.32
  12  -6  -5   10.65    3.27
  12  -6  -4    7.13    2.54
  12  -6  -1   14.44    2.91
  12  -6   0   10.40    2.07
  12  -6   1   12.18    2.18
  12  -6   2   32.56    2.78
  12  -6   3    5.04    0.94
  12  -5  -6    5.50    2.35
  12  -5  -5   43.60    6.94
  12  -5  -4   42.46    6.40
  12  -5  -3    7.61    2.78
  12  -5  -2   26.45    4.56
  12  -5  -1   33.12    4.70
  12  -5  -1   28.24    4.21
  12  -5   0  100.22    7.58
  12  -5   1   56.95    5.40
  12  -5   2    5.65    1.38
  12  -5   3    4.51    1.13
  12  -5   4   23.22    2.78
  12  -5   5   32.84    3.76
  12  -5   6    1.95    0.65
 -12  -4  17   11.29    5.13
 -12  -4  16   17.44    5.86
 -12  -4  15   28.25    6.94
 -12  -4  14   12.40    4.97
 -12  -4  13    6.78    3.38
  12  -4  -6    7.87    2.96
  12  -4  -5   36.63    6.27
  12  -4  -4   29.87    5.33
  12  -4  -3   66.00    8.03
  12  -4  -2  132.86   10.67
  12  -4  -1   65.94    7.24
  12  -4  -1   46.55    6.10
  12  -4   0   48.59    5.59
  12  -4   0   54.59    5.74
  12  -4   1   30.81    4.44
  12  -4   1   31.36    4.16
  12  -4   2  106.73    7.45
  12  -4   3   15.16    2.91
  12  -4   4   23.17    3.20
  12  -4   5   21.73    3.30
  12  -4   6   22.87    3.50
  12  -4   7   15.56    2.96
  12  -4   8    1.74    0.97
 -12  -3  18    2.78    2.23
 -12  -3  17    5.31    3.02
 -12  -3  16   12.90    5.53
 -12  -3  15   25.16    7.27
 -12  -3  14   19.90    6.38
 -12  -3  13   10.06    4.60
 -12  -3  12   56.40    9.94
 -12  -3  11   15.31    4.98
 -12  -3  10    0.56    0.44
  12  -3  -7  118.16   12.67
  12  -3  -6   18.28    4.63
  12  -3  -5   30.90    5.88
  12  -3  -4  125.98   11.42
  12  -3  -3   10.87    3.19
  12  -3  -2    3.77    1.92
  12  -3  -1   21.96    4.29
  12  -3  -1   17.73    3.73
  12  -3   0   73.38    7.21
  12  -3   0   83.83    7.51
  12  -3   1    5.00    1.79
  12  -3   1    5.66    1.76
  12  -3   2    4.48    1.63
  12  -3   2    4.82    1.55
  12  -3   3    7.63    1.56
  12  -3   3    7.23    2.00
  12  -3   4   14.51    2.84
  12  -3   5   16.62    3.15
  12  -3   6    9.29    2.52
  12  -3   7   13.72    3.14
  12  -3   8   27.73    4.68
  12  -3   9   23.75    4.37
 -12  -2  18   39.04    9.53
 -12  -2  17   10.45    4.60
 -12  -2  16   19.45    6.17
 -12  -2  15   10.58    4.57
 -12  -2  14   31.23    7.86
 -12  -2  13    3.69    2.73
 -12  -2  12   17.15    5.46
 -12  -2  11    7.48    3.42
 -12  -2  10   30.28    7.01
 -12  -2   9   23.57    5.93
 -12  -2   8    3.88    2.39
 -12  -2   7    2.09    1.88
  12  -2  -7    1.88    2.02
  12  -2  -6    6.86    2.85
  12  -2  -5    8.53    3.10
  12  -2  -4   12.22    3.58
  12  -2  -3    7.89    2.79
  12  -2  -2    9.31    2.76
  12  -2  -1    7.20    2.79
  12  -2  -1    3.38    1.81
  12  -2   0   20.16    3.91
  12  -2   0   20.06    3.61
  12  -2   1   21.39    4.16
  12  -2   1   19.21    3.62
  12  -2   2   67.24    6.95
  12  -2   2   75.21    6.63
  12  -2   3   37.25    5.19
  12  -2   3   26.46    3.25
  12  -2   4   22.64    3.97
  12  -2   4   21.13    2.54
  12  -2   5   28.74    4.54
  12  -2   5    6.47    1.31
  12  -2   6   66.04    6.84
  12  -2   7   32.92    5.11
  12  -2   8   58.72    6.93
  12  -2   9   34.40    5.67
  12  -2  10   33.31    5.73
  12  -2  11    9.33    2.95
 -12  -1  18   -0.52    0.76
 -12  -1  17    2.08    2.40
 -12  -1  16   16.68    5.80
 -12  -1  15    9.05    4.07
 -12  -1  14   28.10    7.05
 -12  -1  13   14.23    5.36
 -12  -1  12   78.54   11.37
 -12  -1  11   45.26    8.91
 -12  -1  10   18.47    5.27
 -12  -1   9   69.33   10.36
 -12  -1   8  102.26   12.00
 -12  -1   7  106.83   11.96
 -12  -1   6   57.06    8.21
  12  -1  -6   74.63    9.51
  12  -1  -5   54.80    8.04
  12  -1  -4  179.70   13.46
  12  -1  -3   68.16    8.19
  12  -1  -2   17.09    3.87
  12  -1  -1   48.02    6.84
  12  -1  -1   58.37    6.90
  12  -1   0   74.93    8.10
  12  -1   0   78.08    7.53
  12  -1   1   26.59    4.90
  12  -1   1   21.60    3.95
  12  -1   2    8.98    2.50
  12  -1   2    6.51    2.03
  12  -1   3   13.34    3.24
  12  -1   3   10.29    2.34
  12  -1   4   17.09    3.64
  12  -1   4   10.15    2.03
  12  -1   5   29.76    4.71
  12  -1   5   21.26    3.00
  12  -1   6    7.03    2.44
  12  -1   6    3.43    1.22
  12  -1   7   19.59    4.05
  12  -1   7    7.78    0.98
  12  -1   7    8.00    1.06
  12  -1   8   38.00    5.84
  12  -1   9   40.57    6.25
  12  -1  10   28.98    5.72
  12  -1  11   18.65    4.60
  12  -1  12    3.11    2.20
 -12   0  18    7.96    4.51
 -12   0  17   38.74    9.31
 -12   0  16   16.24    5.82
 -12   0  15   47.30    9.69
 -12   0  14   13.21    5.51
 -12   0  13   27.93    7.04
 -12   0  12    3.21    2.21
 -12   0  11    2.73    1.69
 -12   0  10   33.13    6.91
 -12   0   9    6.10    2.49
 -12   0   8   22.38    5.45
 -12   0   7   13.94    4.65
 -12   0   6   76.70    9.63
  12   0  -6   64.50    8.88
 -12   0   5   41.40    6.90
  12   0  -5   41.66    7.22
 -12   0   4   45.05    6.61
  12   0  -4   48.16    7.04
  12   0  -3   33.48    5.83
  12   0  -2    5.35    2.38
  12   0  -2    9.34    2.93
  12   0  -1   18.44    4.56
  12   0  -1   13.05    3.54
  12   0   0   79.83    8.75
  12   0   0   89.76    8.62
  12   0   1   20.75    4.43
  12   0   1   19.27    3.73
  12   0   2   39.53    5.11
  12   0   2   38.79    5.82
  12   0   3   20.77    3.79
  12   0   3   21.86    4.42
  12   0   4   31.65    4.28
  12   0   4   34.14    5.43
  12   0   5   12.26    2.24
  12   0   5   18.76    4.08
  12   0   6  114.89   10.28
  12   0   6  107.38    6.88
  12   0   7    1.81    0.87
  12   0   7    3.98    1.89
  12   0   8   26.68    4.95
  12   0   8   16.81    2.22
  12   0   9    3.02    0.54
  12   0   9   10.61    3.29
  12   0   9    5.79    1.26
  12   0  10   21.86    4.82
 -12   0 -10   23.37    5.34
  12   0  10    8.86    1.32
  12   0  10    6.58    1.43
  12   0  11    0.40    1.22
  12   0  11    0.02    0.19
  12   0  12    0.31    0.40
  12   0  13    0.95    1.11
 -12   1  18    3.65    2.73
 -12   1  17    2.10    2.54
 -12   1  16   20.15    6.51
 -12   1  15   15.03    5.52
 -12   1  14   29.94    7.45
 -12   1  13   15.14    5.47
 -12   1  12   96.42   12.55
 -12   1  11   44.60    8.86
 -12   1  10   18.62    5.14
 -12   1   9   69.23   10.16
 -12   1   8  136.08   13.43
 -12   1   7   82.79   10.19
 -12   1   6   72.15    8.87
  12   1  -5   77.90    9.82
 -12   1   5   63.21    8.49
  12   1  -4  186.05   14.58
 -12   1   4  206.37   14.54
  12   1  -3   65.29    8.39
 -12   1   3   76.14    8.54
  12   1  -2   11.42    3.64
  12   1  -2   12.79    3.47
  12   1  -1   31.08    5.44
  12   1  -1   28.73    5.71
  12   1   0   78.24    8.12
  12   1   0   77.75    8.90
  12   1   1   41.14    5.80
  12   1   1   36.99    6.06
  12   1   2   10.56    2.80
  12   1   2    9.22    3.00
  12   1   3    8.71    2.48
  12   1   3   12.53    3.66
  12   1   4   28.75    4.27
  12   1   4   30.11    5.26
  12   1   5   13.58    3.02
  12   1   5   19.59    4.22
  12   1   6    2.17    1.18
  12   1   6    4.00    2.10
  12   1   7    8.97    2.51
  12   1   7   11.27    3.38
  12   1   8   40.82    6.37
  12   1   8   34.59    4.13
  12   1   9   41.16    6.69
  12   1   9   30.35    3.97
  12   1  10   27.16    5.73
  12   1  10   15.04    2.29
  12   1  10   18.62    2.92
 -12   1 -11   14.51    4.08
  12   1  11   12.22    3.82
  12   1  11    5.12    1.45
  12   1  12    5.99    3.02
  12   1  12    2.59    0.62
  12   1  13   10.35    3.39
  12   1  14   48.83    8.46
 -12   2  18   36.43    8.85
 -12   2  17    8.23    3.97
 -12   2  16   19.43    6.18
 -12   2  15    9.81    4.72
 -12   2  14   25.07    6.83
 -12   2  13    4.93    2.58
 -12   2  12   10.30    3.88
 -12   2  11    4.23    2.90
 -12   2  10   23.88    5.78
 -12   2   9   25.92    5.88
 -12   2   8    2.31    1.00
 -12   2   7    2.03    1.60
 -12   2   6    4.43    2.48
 -12   2   5    6.89    2.62
  12   2  -5   10.18    3.61
 -12   2   4   13.12    3.30
  12   2  -4   10.71    3.51
 -12   2   3    6.51    2.61
  12   2  -3    5.72    2.48
 -12   2   2   10.03    2.72
  12   2  -2    7.89    2.63
  12   2  -2    5.99    2.56
  12   2  -1    7.89    2.89
  12   2  -1    9.48    3.26
  12   2   0   13.01    3.56
  12   2   0   12.05    3.63
  12   2   1   33.13    5.37
  12   2   1   31.76    5.79
  12   2   2   47.18    6.25
  12   2   2   55.22    7.59
  12   2   3   60.51    7.00
  12   2   3   58.91    7.89
  12   2   4   14.48    3.37
  12   2   4   17.13    4.18
  12   2   5   34.59    5.05
  12   2   5   32.16    5.59
  12   2   6   72.70    8.80
  12   2   6   80.49    7.56
  12   2   7    9.59    2.77
  12   2   7   19.88    4.72
  12   2   8   46.11    7.15
  12   2   8   39.84    5.60
  12   2   9   45.97    7.22
  12   2   9   40.40    5.13
  12   2  10   24.09    5.48
  12   2  11   18.03    4.92
  12   2  11   10.74    2.33
 -12   2 -11   11.92    3.70
  12   2  12   12.96    4.33
  12   2  12    7.16    2.29
 -12   2 -12   18.87    4.66
  12   2  13    4.42    2.71
  12   2  14    2.42    1.86
  12   2  15    0.43    0.77
 -12   3  18    0.20    1.41
 -12   3  17    3.08    1.70
 -12   3  16   13.61    5.07
 -12   3  15   20.52    6.48
 -12   3  14   12.91    4.97
 -12   3  13    7.49    3.75
 -12   3  12   61.77    9.97
 -12   3  11   22.68    6.09
 -12   3  10    0.88    1.04
 -12   3   9   42.23    7.61
 -12   3   8  236.76   17.35
 -12   3   7  125.04   12.46
 -12   3   6   12.40    3.67
 -12   3   5   37.58    6.27
 -12   3   4  132.17   11.37
  12   3  -4  108.70   11.53
  12   3  -3    9.89    3.39
 -12   3   3   13.01    3.42
  12   3  -3   10.95    3.93
 -12   3   2    4.23    1.93
  12   3  -2    8.21    3.31
  12   3  -2    5.75    2.79
 -12   3   1   17.01    3.65
  12   3  -1   26.42    5.34
  12   3  -1   25.14    5.63
  12   3   0   55.91    7.54
  12   3   0   61.14    8.92
  12   3   1    6.06    2.33
  12   3   1    7.33    3.00
  12   3   2    4.97    2.43
  12   3   2    1.17    0.57
  12   3   3    8.11    2.62
  12   3   3    7.61    2.92
  12   3   4   12.95    3.44
  12   3   4   13.13    3.74
  12   3   5   20.89    4.14
  12   3   5   18.37    4.47
  12   3   6   23.95    4.70
  12   3   6   16.58    4.34
  12   3   7    9.08    2.68
  12   3   7   12.29    3.86
  12   3   8   28.44    5.78
  12   3   8   23.96    4.31
  12   3   9   13.31    4.01
  12   3  10    1.92    1.87
  12   3  11   10.61    2.70
  12   3  11   15.63    4.91
  12   3  12    8.87    2.49
  12   3  12   10.74    3.99
  12   3  13   24.95    6.50
  12   3  13   17.77    3.81
  12   3  14   14.40    4.96
  12   3  15    2.55    1.88
 -12   4  18    5.50    3.43
 -12   4  17   11.70    5.36
 -12   4  16   16.06    5.88
 -12   4  15   18.72    6.57
 -12   4  14    9.62    4.32
 -12   4  13    9.98    4.30
 -12   4  12   12.52    4.56
 -12   4  11   20.74    5.97
 -12   4  10    4.20    2.21
 -12   4   9   22.50    5.82
 -12   4   8   38.23    6.89
 -12   4   7    3.18    2.08
 -12   4   6    4.38    2.03
 -12   4   5   44.67    6.98
 -12   4   4   28.34    5.10
 -12   4   3   72.71    8.18
  12   4  -3   89.18   11.57
 -12   4   2  146.25   10.91
  12   4  -2   87.64   10.27
  12   4  -2   83.42   10.85
  12   4  -1   88.83   10.27
 -12   4   1   63.56    6.89
  12   4  -1   78.80    9.99
  12   4   0   35.75    6.41
 -12   4   0   61.29    6.17
  12   4   0   39.72    7.51
  12   4   1   46.16    7.22
  12   4   1   38.85    6.96
  12   4   2  103.11   10.37
  12   4   2   97.97   10.87
  12   4   3   20.94    4.68
  12   4   3   15.90    4.40
  12   4   4   22.11    4.80
  12   4   4   20.86    4.94
  12   4   5   10.56    3.40
  12   4   5   13.43    4.20
  12   4   6   17.69    4.05
  12   4   6   18.70    4.75
  12   4   7   14.15    4.32
  12   4   8    7.52    2.70
  12   4   9   10.12    3.51
  12   4  10    2.75    2.26
  12   4  11    8.57    3.69
  12   4  12    4.01    1.90
  12   4  12    6.46    3.34
  12   4  13    0.57    1.09
  12   4  13    1.58    1.32
  12   4  14    2.31    1.76
  12   4  14    1.62    2.00
  12   4  15   -1.48    1.74
  12   4  16    3.90    2.82
 -12   5  17    0.35    2.52
 -12   5  16    5.04    2.76
 -12   5  15    7.41    3.95
 -12   5  14    4.97    3.25
 -12   5  13    2.14    1.89
 -12   5  12   46.54    8.89
 -12   5  11   14.14    4.84
 -12   5  10   15.36    4.82
 -12   5   9   17.89    5.13
 -12   5   8  118.04   12.48
 -12   5   7   21.00    5.26
 -12   5   6    6.00    2.65
 -12   5   5   51.15    7.56
 -12   5   4   47.79    6.66
  12   5  -4   26.53    6.44
 -12   5   3    8.20    2.68
  12   5  -3   12.41    4.28
 -12   5   2   28.76    4.60
  12   5  -2   25.06    5.91
 -12   5   1   45.49    5.95
  12   5  -1   19.02    5.05
 -12   5   0  117.23    8.40
  12   5   0   96.80   10.90
  12   5   0   97.51   11.84
  12   5   1  108.54   11.19
 -12   5  -1   58.38    5.46
  12   5   1   88.35   10.97
  12   5   2    7.48    2.97
  12   5   2    5.61    2.54
  12   5   3    7.02    2.88
  12   5   3    6.61    2.89
  12   5   4   44.62    6.95
  12   5   4   42.31    7.25
  12   5   5   13.70    3.99
  12   5   5   17.28    4.73
  12   5   6    7.85    2.88
  12   5   7    2.75    1.63
  12   5   8    6.36    2.96
  12   5   9    8.95    2.83
  12   5  10    3.41    2.19
  12   5  11    6.32    3.30
  12   5  12    3.21    1.93
  12   5  13   15.15    4.20
  12   5  13   18.89    5.69
  12   5  14   20.00    6.18
  12   5  14   16.12    4.01
  12   5  15   -0.25    1.12
  12   5  16    7.64    4.00
  12   5  17    8.63    4.63
 -12   6  17    7.29    3.92
 -12   6  16    5.92    3.31
 -12   6  15    6.84    3.34
 -12   6  14    3.81    2.92
 -12   6  13    2.74    2.20
 -12   6  12    5.03    2.91
 -12   6  11    1.59    1.52
 -12   6  10   10.76    4.01
 -12   6   9   20.60    5.07
 -12   6   8   11.41    3.84
 -12   6   7    4.43    2.46
 -12   6   6    8.00    3.26
 -12   6   5   12.16    3.73
 -12   6   4    8.00    2.78
  12   6  -4    6.92    3.41
 -12   6   3   16.41    3.83
  12   6  -3   17.85    5.11
 -12   6   2   20.74    3.98
  12   6  -2    8.86    3.64
 -12   6   1   18.53    3.81
  12   6  -1   27.89    6.64
 -12   6   0   14.19    2.76
  12   6   0    8.33    3.26
 -12   6  -1   16.44    2.99
  12   6   1   22.50    5.65
 -12   6  -2   40.70    3.47
  12   6   2   38.08    7.22
  12   6   3   23.96    5.75
  12   6   4   11.50    3.89
  12   6   5   22.00    5.44
  12   6   6   39.30    7.21
  12   6   7   27.95    6.12
  12   6   8    0.53    0.81
  12   6   9   11.75    4.10
  12   6  10    8.94    3.64
  12   6  11   15.36    4.84
  12   6  12    7.06    3.84
  12   6  13    5.79    2.56
  12   6  13    6.76    3.13
  12   6  14   14.70    4.24
  12   6  14   14.53    5.40
  12   6  15    9.31    4.50
  12   6  15    8.04    3.58
  12   6  16    3.83    2.36
  12   6  17    3.83    2.91
 -12   7  16   15.30    5.57
 -12   7  15   14.12    5.44
 -12   7  14    4.97    3.26
 -12   7  13    5.57    3.67
 -12   7  12   44.13    8.85
 -12   7  11   11.02    4.24
 -12   7  10   16.16    5.04
 -12   7   9   29.71    6.65
 -12   7   8   55.48    8.77
 -12   7   7   27.27    6.22
 -12   7   6   24.58    5.39
 -12   7   5   21.72    4.74
  12   7  -5   33.21    7.99
 -12   7   4   38.14    5.94
  12   7  -4   26.99    6.86
 -12   7   3   24.56    4.94
  12   7  -3   34.75    7.86
 -12   7   2   20.19    4.11
  12   7  -2   14.48    4.67
 -12   7   1    6.06    2.14
  12   7  -1    4.33    2.67
 -12   7   0   40.80    4.90
  12   7   0   27.82    6.30
 -12   7  -1   32.89    4.04
  12   7   1   36.61    7.31
 -12   7  -2   14.77    2.21
  12   7   2   18.53    5.41
  12   7   3    3.96    2.38
  12   7   4    7.83    3.52
  12   7   5    2.80    1.97
  12   7   6    6.21    2.94
  12   7   7    2.09    2.02
  12   7   8   -1.04    1.64
  12   7   9    6.37    3.23
  12   7  10    3.44    2.63
  12   7  11    1.69    1.94
  12   7  12    3.73    2.36
  12   7  13   22.45    6.94
  12   7  14    3.30    2.41
  12   7  14    4.26    3.74
  12   7  15    9.08    3.82
  12   7  15   13.00    5.98
  12   7  16    2.80    2.87
 -12   8  16    7.68    4.55
 -12   8  15   11.53    4.87
 -12   8  14   17.91    6.02
 -12   8  13    4.69    2.84
 -12   8  12    0.93    1.27
 -12   8  11    1.03    0.54
 -12   8  10    3.04    2.51
 -12   8   9   28.00    6.20
 -12   8   8   27.54    6.16
 -12   8   7   15.34    4.45
  12   8  -6    7.99    3.81
 -12   8   6    9.51    3.56
  12   8  -5   29.25    7.50
 -12   8   5   25.41    5.21
  12   8  -4   15.64    5.31
 -12   8   4   14.98    4.10
  12   8  -3   17.17    5.59
 -12   8   3   16.41    4.00
 -12   8   2   23.05    4.53
  12   8  -2   15.98    5.60
 -12   8   1   49.97    6.13
  12   8  -1   60.41    9.90
 -12   8   0   31.31    4.65
  12   8   0   16.61    5.15
 -12   8  -1   11.71    2.87
  12   8   1    3.46    2.35
 -12   8  -2   41.88    4.07
  12   8   2   28.34    6.80
 -12   8  -3    2.82    0.92
  12   8   3   21.18    5.83
  12   8   4    8.67    3.60
  12   8   5    6.98    2.82
  12   8   6   10.42    4.02
  12   8   7   16.86    5.13
  12   8   8    8.27    3.83
  12   8   9    7.14    3.58
  12   8  10    5.07    2.96
  12   8  11    2.49    1.89
  12   8  12    2.87    2.12
  12   8  13    5.70    3.79
  12   8  14    1.67    0.77
  12   8  14    3.60    2.58
  12   8  15    2.92    2.00
  12   8  15   -1.74    1.99
 -12   9  15   11.55    4.95
 -12   9  14   10.25    4.45
 -12   9  13    2.19    1.83
 -12   9  12    6.96    3.46
 -12   9  11    9.83    4.17
 -12   9  10   11.95    4.44
 -12   9   9   28.65    6.80
 -12   9   8   14.51    4.98
  12   9  -7   19.26    6.43
 -12   9   7   22.57    5.63
  12   9  -6    4.40    3.13
 -12   9   6    6.96    3.29
 -12   9   5   47.96    7.69
  12   9  -5   41.77    8.98
 -12   9   4   45.02    7.28
  12   9  -4   23.79    6.38
 -12   9   3   49.35    7.06
  12   9  -3   59.47   10.63
 -12   9   2   87.25    8.95
  12   9  -2   61.77   10.61
 -12   9   1   48.96    6.35
  12   9  -1   55.43    9.79
 -12   9   0   15.05    3.37
  12   9   0    4.19    2.22
 -12   9  -1    6.21    2.01
  12   9   1    7.75    3.66
 -12   9  -2   29.26    3.53
  12   9   2   24.52    6.26
  12   9   3   17.12    5.39
  12   9   4   27.75    6.67
  12   9   5    0.61    0.67
  12   9   6    7.79    3.60
  12   9   7    2.57    2.24
  12   9   8    4.29    2.89
  12   9   9   13.60    4.99
  12   9  10    2.31    2.21
  12   9  11    3.32    2.35
  12   9  12    5.39    3.33
  12   9  13    8.43    5.03
  12   9  14    3.27    2.27
  12   9  15    7.04    3.59
 -12  10  14    6.57    4.37
 -12  10  13    4.74    3.55
 -12  10  12    0.56    0.55
 -12  10  11    2.28    1.67
 -12  10  10   20.71    5.88
  12  10  -9    9.42    4.84
 -12  10   9    6.54    3.09
  12  10  -8    0.43    1.08
 -12  10   8   -0.58    1.57
  12  10  -7    2.00    2.75
 -12  10   7    1.60    0.54
  12  10  -6    0.81    1.97
 -12  10   6    0.41    0.40
  12  10  -5    2.17    1.57
 -12  10   5    2.86    1.71
  12  10  -4    6.98    4.02
 -12  10   4    2.49    1.70
  12  10  -3    3.96    2.76
 -12  10   3    2.87    1.93
  12  10  -2    4.76    2.86
 -12  10   2    4.34    2.10
  12  10  -1    9.86    4.12
 -12  10   1    6.18    2.83
  12  10   0    9.49    4.41
 -12  10   0    5.60    2.18
  12  10   1    2.07    1.42
  12  10   2    3.94    2.24
  12  10   3   12.31    4.24
  12  10   4    4.24    2.69
  12  10   5    5.14    3.30
  12  10   6    0.77    1.02
  12  10   7   22.89    6.48
  12  10   8    5.16    2.94
  12  10   9    2.44    2.35
  12  10  10   -0.51    0.62
  12  10  11    4.24    2.67
  12  10  12    5.29    3.16
  12  10  15    4.17    3.25
  12  10  16    5.86    3.75
 -12  11  14   -1.70    2.14
 -12  11  13    2.90    2.43
 -12  11  12    0.46    2.35
 -12  11  11   21.16    6.31
  12  11 -10    7.02    4.46
 -12  11  10   10.72    4.53
  12  11  -9    2.68    3.19
 -12  11   9    3.70    2.96
  12  11  -8    4.22    2.65
 -12  11   8    5.37    3.46
  12  11  -7    8.63    4.72
 -12  11   7    9.13    3.64
  12  11  -6    4.38    3.03
 -12  11   6    6.91    3.29
  12  11  -5    8.12    3.95
 -12  11   5   11.05    3.76
  12  11  -4    6.19    3.32
 -12  11   4    7.96    3.05
  12  11  -3   10.90    4.61
 -12  11   3   13.31    4.00
  12  11  -2    8.61    3.65
 -12  11   2   27.07    5.42
  12  11  -1   64.83   11.13
 -12  11   1   60.80    7.67
  12  11   0   15.27    5.17
  12  11   1   11.93    4.48
  12  11   2    1.76    1.57
  12  11   3    2.43    2.38
  12  11   4    1.93    2.04
  12  11   5    0.75    1.74
  12  11   6    2.29    2.32
  12  11   7    7.57    3.91
  12  11   8   15.81    5.37
  12  11   9    2.16    2.37
  12  11  10    0.52    0.41
  12  11  15    3.37    2.78
 -12  12  13    0.32    1.04
 -12  12  12    2.14    2.65
 -12  12  11    4.32    3.01
 -12  12  10    1.18    0.70
 -12  12   9    0.22    1.52
  12  12  -8   10.39    5.26
 -12  12   8    9.85    3.63
  12  12  -7    4.07    3.03
 -12  12   7    3.06    2.48
  12  12  -6    2.79    2.63
 -12  12   6    6.52    3.04
  12  12  -5   21.01    7.17
 -12  12   5   24.97    6.16
  12  12  -4    9.94    4.82
 -12  12   4    9.09    3.59
  12  12  -3    3.92    3.05
 -12  12   3    7.62    3.11
  12  12  -2   27.00    7.43
  12  12  -1   65.28   11.48
  12  12   0   17.57    5.84
  12  12   1    0.83    1.81
  12  12   2    2.67    1.58
  12  12   3    6.70    3.75
  12  12   4    5.82    3.55
  12  12   5   -1.40    2.19
  12  12   6    4.16    2.84
  12  12   7    5.88    3.53
 -12  13  12    0.84    2.45
 -12  13  11    3.55    3.24
 -12  13  10    3.54    3.24
 -12  13   9    0.83    1.28
 -12  13   8    3.02    2.54
 -12  13   7    9.29    3.94
 -12  13   6    2.42    2.24
 -12  13   5   10.33    4.30
  12  13  -4    3.02    2.06
  12  13  -3    5.88    3.13
  12  13  -2   -3.34    3.12
  12  13  -1   42.45    9.50
  12  13   0    7.89    4.04
  12  13   1    2.54    1.79
  12  13   2   15.79    5.44
  12  13   3    6.98    4.04
 -12  14  10    0.98    1.21
 -12  14   9    4.48    2.21
 -12  14   8   13.71    5.29
 -12  14   7    9.37    4.71
  13  -7  -2    4.21    1.51
  13  -7  -1    3.93    0.95
  13  -6  -5    3.64    1.83
  13  -6  -4    2.52    0.94
  13  -6  -2    8.11    2.58
  13  -6  -1    9.96    2.30
  13  -6   0    1.37    0.70
  13  -6   1   23.56    2.77
  13  -6   2    0.83    0.33
  13  -6   3    2.32    0.82
  13  -6   4    0.81    0.53
  13  -5  -5    8.74    3.34
  13  -5  -4    2.91    1.52
  13  -5  -3    8.01    2.53
  13  -5  -2    6.64    2.74
  13  -5  -2    5.45    2.16
  13  -5  -1   12.50    2.93
  13  -5  -1   13.18    3.12
  13  -5   0   47.62    5.22
  13  -5   1   13.13    2.61
  13  -5   2   19.08    3.19
  13  -5   3    0.45    0.45
  13  -5   4   12.08    2.30
  13  -5   5   11.94    2.20
  13  -5   6   21.24    3.18
 -13  -4  16    6.02    3.96
 -13  -4  15   25.29    7.30
  13  -4  -6    9.36    3.61
  13  -4  -5    4.47    2.27
  13  -4  -4    7.59    2.66
  13  -4  -3    0.02    0.56
  13  -4  -2    4.43    1.94
  13  -4  -2    6.10    2.40
  13  -4  -1    2.08    1.36
  13  -4  -1    1.49    1.33
  13  -4   0   18.65    3.86
  13  -4   0   19.52    3.76
  13  -4   1    3.03    1.31
  13  -4   1    2.64    1.26
  13  -4   2    5.46    1.94
  13  -4   3    6.49    1.84
  13  -4   4    2.56    1.08
  13  -4   5    8.80    2.28
  13  -4   6    9.66    2.31
  13  -4   7   33.47    4.68
  13  -4   8   22.70    3.75
 -13  -3  16   13.08    5.86
 -13  -3  15   15.82    6.12
 -13  -3  14    2.66    1.95
 -13  -3  13   21.41    6.36
 -13  -3  12   16.95    5.46
 -13  -3  11   33.69    7.69
  13  -3  -6    7.16    2.82
  13  -3  -5    1.13    0.09
  13  -3  -4   10.98    3.31
  13  -3  -3    2.92    1.99
  13  -3  -2    1.89    1.29
  13  -3  -2    2.04    1.36
  13  -3  -1    2.58    1.52
  13  -3  -1    3.88    1.71
  13  -3   0    9.00    2.67
  13  -3   0    9.39    2.76
  13  -3   1    6.32    2.15
  13  -3   1    8.03    2.11
  13  -3   2    7.05    2.00
  13  -3   2    5.62    2.12
  13  -3   3    1.94    0.79
  13  -3   3    1.53    0.90
  13  -3   4   10.99    2.59
  13  -3   5   12.42    2.86
  13  -3   6   16.91    3.69
  13  -3   7   20.96    3.99
  13  -3   8   27.29    4.85
  13  -3   9    8.78    2.88
  13  -3  10   19.43    4.20
 -13  -2  17    4.89    3.45
 -13  -2  16   18.36    6.74
 -13  -2  15    8.20    4.71
 -13  -2  14   11.69    4.24
 -13  -2  13   10.79    4.12
 -13  -2  12    5.79    2.87
 -13  -2  11   19.57    5.98
 -13  -2  10   -0.14    0.74
 -13  -2   9    8.58    3.69
  13  -2  -6   22.78    5.33
  13  -2  -5   23.48    5.18
  13  -2  -4    4.09    2.20
  13  -2  -3    9.85    3.35
  13  -2  -2    4.39    2.18
  13  -2  -2    4.88    2.06
  13  -2  -1   10.48    3.17
  13  -2  -1   11.79    3.48
  13  -2   0    6.46    2.48
  13  -2   0    8.27    2.69
  13  -2   1    0.22    0.30
  13  -2   1    1.41    1.20
  13  -2   2    5.86    2.27
  13  -2   2    4.05    1.60
  13  -2   3   10.77    2.95
  13  -2   3   16.11    2.80
  13  -2   4    0.55    0.86
  13  -2   4    1.37    0.71
  13  -2   5    3.07    1.51
  13  -2   5    0.37    0.41
  13  -2   6    5.64    2.04
  13  -2   7   19.06    3.94
  13  -2   8   44.63    6.32
  13  -2   9   27.07    5.07
  13  -2  10    1.47    1.35
  13  -2  11    6.36    2.61
 -13  -1  17    2.81    2.81
 -13  -1  16    0.60    1.18
 -13  -1  15    9.62    4.91
 -13  -1  14    6.75    3.80
 -13  -1  13   20.29    6.14
 -13  -1  12    5.61    2.85
 -13  -1  11   12.80    4.63
 -13  -1  10    9.68    4.34
 -13  -1   9   25.46    6.31
 -13  -1   8  102.74   12.31
 -13  -1   7   22.55    5.52
  13  -1  -5   33.30    6.34
  13  -1  -4    1.98    1.85
  13  -1  -3   17.16    4.18
  13  -1  -2    3.19    1.69
  13  -1  -2    3.44    1.73
  13  -1  -1    4.83    2.36
  13  -1  -1    6.33    2.32
  13  -1   0   10.68    3.32
  13  -1   0   12.53    3.12
  13  -1   1    6.65    2.50
  13  -1   1    6.27    2.41
  13  -1   2    1.11    1.10
  13  -1   2    0.74    1.05
  13  -1   3    9.41    2.78
  13  -1   3    9.09    2.37
  13  -1   4    1.97    1.42
  13  -1   4    1.31    0.72
  13  -1   5    8.37    2.54
  13  -1   5    4.66    1.05
  13  -1   6    9.60    2.78
  13  -1   6    6.43    1.31
  13  -1   7    3.01    1.59
  13  -1   8   23.55    4.68
  13  -1   9  121.81   11.18
  13  -1  10   35.44    6.39
  13  -1  11   58.36    8.27
  13  -1  12   10.31    3.61
 -13   0  17    7.82    4.17
 -13   0  16   11.57    5.13
 -13   0  15   23.11    6.46
 -13   0  14   37.42    8.47
 -13   0  13   14.38    5.04
 -13   0  12   38.73    8.14
 -13   0  11  102.51   12.72
 -13   0  10   29.53    7.17
 -13   0   9   45.05    8.20
 -13   0   8    4.55    2.58
 -13   0   7    3.29    2.49
 -13   0   6    1.38    1.33
 -13   0   5    1.38    1.31
  13   0  -5    3.06    2.11
  13   0  -4    4.26    2.36
  13   0  -3    4.04    2.13
  13   0  -2    1.37    1.38
  13   0  -2    0.17    0.69
  13   0  -1    3.14    1.52
  13   0  -1    4.36    1.88
  13   0   0    7.20    3.01
  13   0   0    7.39    2.62
  13   0   1   47.50    6.88
  13   0   1   46.43    5.99
  13   0   2   16.51    4.11
  13   0   2   14.97    3.52
  13   0   3    1.84    0.92
  13   0   3    5.12    1.87
  13   0   4   21.26    4.54
  13   0   4   15.68    2.97
  13   0   5   56.64    7.19
  13   0   5   43.36    4.66
  13   0   6   13.76    3.73
  13   0   6    7.79    1.75
  13   0   7   89.24    9.39
  13   0   7   71.62    5.44
  13   0   8    3.50    1.70
  13   0   9    8.97    3.16
  13   0  10    2.00    1.27
  13   0  11   19.35    4.88
  13   0  12    9.32    3.50
  13   0  13    1.55    1.16
 -13   1  17   10.66    4.84
 -13   1  16    1.74    1.70
 -13   1  15    5.25    2.95
 -13   1  14   10.97    4.54
 -13   1  13   23.10    6.92
 -13   1  12    4.66    2.43
 -13   1  11   20.95    6.03
 -13   1  10    8.14    3.47
 -13   1   9   21.99    5.64
 -13   1   8   73.05    9.97
 -13   1   7   17.76    4.99
 -13   1   6    4.41    2.27
 -13   1   5   30.61    6.02
 -13   1   4    4.63    2.48
  13   1  -4    4.14    2.58
  13   1  -3   27.92    5.69
  13   1  -2    3.59    2.17
  13   1  -2    4.56    2.18
  13   1  -1    6.36    2.72
  13   1  -1    9.06    3.10
  13   1   0    8.80    3.38
  13   1   0    9.80    3.07
  13   1   1   10.33    3.10
  13   1   1    9.84    3.15
  13   1   2    1.17    1.05
  13   1   2    2.15    1.56
  13   1   3    8.08    2.64
  13   1   3    9.58    3.14
  13   1   4    0.19    0.29
  13   1   4    3.56    1.92
  13   1   5    4.45    1.55
  13   1   5    6.11    2.51
  13   1   6   14.31    3.07
  13   1   6   14.15    3.69
  13   1   7    4.10    1.50
  13   1   7    6.71    2.64
  13   1   8   24.63    5.15
  13   1   9  100.19   10.66
  13   1  10   43.18    7.51
  13   1  11   39.10    7.00
  13   1  12   19.92    5.54
  13   1  13   22.14    5.56
  13   1  14   11.14    4.21
 -13   2  17    2.86    1.88
 -13   2  16   23.46    7.09
 -13   2  15   10.90    4.65
 -13   2  14    8.16    4.20
 -13   2  13   17.08    5.59
 -13   2  12    2.89    1.44
 -13   2  11   26.54    6.73
 -13   2  10   -1.25    0.95
 -13   2   9   10.05    3.84
 -13   2   8    6.11    2.75
 -13   2   7    4.38    2.43
 -13   2   6   26.88    5.65
 -13   2   5   23.57    4.99
 -13   2   4    4.09    2.32
  13   2  -3    8.68    3.48
 -13   2   3    8.39    2.73
  13   2  -3    8.19    3.05
  13   2  -2    3.43    1.99
 -13   2   2    3.77    1.75
  13   2  -2    3.41    1.69
  13   2  -1   17.99    4.53
  13   2  -1   13.89    4.07
  13   2   0    5.63    2.36
  13   2   0    5.01    2.51
  13   2   1    1.60    1.15
  13   2   1    1.97    1.34
  13   2   2   10.71    3.22
  13   2   2    7.48    2.73
  13   2   3   10.91    2.86
  13   2   3   15.82    4.38
  13   2   4    1.45    1.24
  13   2   4    1.85    1.54
  13   2   5    2.87    1.44
  13   2   5    5.05    2.25
  13   2   6    2.26    1.30
  13   2   6    2.30    1.27
  13   2   7   14.66    3.30
  13   2   7   15.32    4.17
  13   2   8   50.82    7.94
  13   2   8   44.98    5.59
  13   2   9   20.56    5.00
  13   2  10    5.45    2.84
  13   2  11    5.71    2.87
  13   2  12    4.14    2.28
  13   2  13    0.55    0.98
  13   2  14    3.61    2.15
  13   2  15    5.73    3.14
 -13   3  17   11.44    4.72
 -13   3  16   10.27    4.79
 -13   3  15   13.95    5.33
 -13   3  14    1.18    2.43
 -13   3  13   20.41    6.14
 -13   3  12   13.62    4.71
 -13   3  11   20.56    5.65
 -13   3  10    8.24    3.33
 -13   3   9   23.12    5.83
 -13   3   8   25.86    6.03
 -13   3   7    6.24    2.92
 -13   3   6    9.04    3.31
 -13   3   5    0.22    0.28
 -13   3   4   10.41    3.20
 -13   3   3    3.46    1.83
  13   3  -3    1.04    1.22
 -13   3   2    1.41    1.43
  13   3  -2    2.93    2.09
  13   3  -2    1.83    1.51
  13   3  -1    4.61    2.37
 -13   3   1    2.16    1.02
  13   3  -1    2.82    1.45
  13   3   0    5.37    2.47
  13   3   0    5.32    2.88
  13   3   1    9.59    3.06
  13   3   1   11.27    3.55
  13   3   2    7.58    2.79
  13   3   2    6.16    2.79
  13   3   3    2.94    1.76
  13   3   3    1.05    0.42
  13   3   4   27.20    5.19
  13   3   4   20.46    4.92
  13   3   5   11.31    3.08
  13   3   5   11.30    3.47
  13   3   6   36.29    5.79
  13   3   6   28.27    5.99
  13   3   7   16.86    3.72
  13   3   7   21.81    5.14
  13   3   8   21.19    4.55
  13   3   8   19.90    5.09
  13   3   9   10.16    3.66
  13   3  10   38.94    7.33
  13   3  11   22.42    3.99
  13   3  11   30.31    6.54
  13   3  12   31.03    6.87
  13   3  13   53.69    9.60
  13   3  14    7.57    3.53
  13   3  15   10.27    4.36
  13   3  16    9.26    4.45
 -13   4  17   11.35    4.66
 -13   4  16    1.44    1.99
 -13   4  15   35.34    8.17
 -13   4  14    9.91    4.67
 -13   4  13   15.53    5.29
 -13   4  12    3.16    2.26
 -13   4  11   60.60    9.57
 -13   4  10   14.80    5.02
 -13   4   9    9.16    3.61
 -13   4   8   16.06    5.05
 -13   4   7  112.66   11.89
 -13   4   6    8.40    3.31
 -13   4   5    3.59    1.59
 -13   4   4   11.94    3.36
  13   4  -4    7.28    3.29
 -13   4   3    2.25    1.41
  13   4  -3    0.68    1.12
 -13   4   2    6.06    2.34
  13   4  -2    7.20    3.40
 -13   4   1    1.62    1.36
  13   4  -1   -1.54    2.05
  13   4   0   31.10    6.14
  13   4   0   30.57    6.71
  13   4   1    4.91    2.45
  13   4   1    1.72    1.57
  13   4   2   13.11    3.94
  13   4   2    8.50    3.44
  13   4   3    6.24    2.62
  13   4   3    6.60    2.85
  13   4   4    5.21    2.47
  13   4   4    4.31    2.26
  13   4   5    4.62    2.22
  13   4   5    6.22    2.68
  13   4   6   23.38    5.07
  13   4   6   13.17    3.77
  13   4   7   24.39    5.88
  13   4   7   21.64    4.48
  13   4   8   28.21    6.05
  13   4   8   28.86    5.23
  13   4   9    3.75    2.29
  13   4  10   18.05    5.11
  13   4  11    1.90    1.85
  13   4  12    6.56    2.36
  13   4  12    7.91    3.39
  13   4  13    2.71    2.22
  13   4  14   13.14    4.63
  13   4  15    1.00    1.29
  13   4  16   -0.84    0.80
 -13   5  16    5.21    3.94
 -13   5  15    6.61    3.78
 -13   5  14    5.46    3.81
 -13   5  13   15.46    5.55
 -13   5  12    5.79    2.92
 -13   5  11   25.28    6.82
 -13   5  10    2.85    2.11
 -13   5   9   17.65    5.22
 -13   5   8   24.30    5.66
 -13   5   7   31.64    6.43
 -13   5   6    3.26    1.79
 -13   5   5    6.28    2.85
 -13   5   4    2.80    1.29
  13   5  -4    5.23    2.90
 -13   5   3    6.58    2.56
  13   5  -3    7.69    3.54
 -13   5   2    5.49    2.47
  13   5  -2    9.96    3.83
 -13   5   1   15.36    3.44
  13   5  -1   20.05    5.64
 -13   5   0   67.68    6.53
  13   5   0   42.44    7.92
  13   5   1   19.08    5.17
  13   5   2   37.81    7.23
  13   5   3    0.53    1.13
  13   5   3   -1.35    2.16
  13   5   4   17.33    4.46
  13   5   4   18.69    5.12
  13   5   5    7.88    3.00
  13   5   5    8.39    3.19
  13   5   6   48.71    7.46
  13   5   6   48.54    8.19
  13   5   7    9.52    3.28
  13   5   7   11.61    4.03
  13   5   8   35.26    6.93
  13   5   9    8.69    3.76
  13   5  10   21.30    5.66
  13   5  11    4.72    2.93
  13   5  12   36.98    7.95
  13   5  13   15.82    5.16
  13   5  14   34.40    8.30
  13   5  15    4.91    3.46
  13   5  16   16.28    5.56
  13   5  17   11.88    5.15
 -13   6  16   -4.10    2.91
 -13   6  15   47.01    9.72
 -13   6  14   11.11    5.22
 -13   6  13    6.67    3.59
 -13   6  12    4.24    2.79
 -13   6  11   19.13    5.35
 -13   6  10    8.02    3.70
 -13   6   9    2.22    2.37
 -13   6   8    5.65    2.78
 -13   6   7   35.59    6.76
 -13   6   6    6.87    3.33
 -13   6   5    0.66    1.01
  13   6  -5    3.66    2.75
 -13   6   4    2.75    1.48
  13   6  -4    3.94    2.71
 -13   6   3    2.21    1.37
  13   6  -3   -0.94    2.27
 -13   6   2    4.71    2.14
  13   6  -2    7.91    3.70
 -13   6   1   15.49    3.67
  13   6  -1   16.20    5.27
 -13   6   0    1.87    1.09
  13   6   0    2.52    1.51
 -13   6  -1   28.85    3.46
  13   6   1   31.89    6.89
  13   6   2   -0.43    1.43
  13   6   3    5.17    2.76
  13   6   4    1.86    1.59
  13   6   5    1.78    2.04
  13   6   6   17.13    4.93
  13   6   7    6.57    3.28
  13   6   8   22.63    5.80
  13   6   9    4.76    3.14
  13   6  10   16.11    5.14
  13   6  11    0.94    1.12
  13   6  12    1.77    2.52
  13   6  13    2.50    1.75
  13   6  13   -0.02    0.18
  13   6  14    8.75    4.37
  13   6  15    6.43    3.79
  13   6  16    6.16    3.33
 -13   7  16    2.68    3.24
 -13   7  15   20.05    6.86
 -13   7  14    3.56    2.90
 -13   7  13   21.55    6.74
 -13   7  12   10.11    4.08
 -13   7  11   19.92    5.97
 -13   7  10    1.57    1.06
 -13   7   9   12.62    4.28
 -13   7   8    0.96    0.85
 -13   7   7    6.70    3.34
 -13   7   6    6.25    3.15
  13   7  -6    4.78    2.98
 -13   7   5    4.02    2.50
  13   7  -5    6.35    3.52
 -13   7   4    5.66    2.40
  13   7  -4   12.43    4.85
 -13   7   3    2.39    1.89
  13   7  -3    1.86    1.45
 -13   7   2    6.73    2.51
  13   7  -2    7.78    3.71
 -13   7   1    7.45    2.46
  13   7  -1    5.94    2.86
 -13   7   0    2.62    1.38
  13   7   0    6.04    3.14
 -13   7  -1    1.34    1.04
  13   7   1    0.39    0.99
  13   7   2    6.57    3.07
  13   7   3    0.41    0.95
  13   7   4   36.59    7.80
  13   7   5   11.98    4.17
  13   7   6   43.20    8.30
  13   7   7    6.88    3.40
  13   7   8   39.33    7.79
  13   7   9    1.34    1.78
  13   7  10   24.57    6.60
  13   7  11    5.13    2.86
  13   7  12   51.19    9.93
  13   7  13    8.69    4.20
  13   7  14   47.03    9.73
  13   7  15    3.43    3.17
 -13   8  15   36.62    8.73
 -13   8  14    7.68    4.06
 -13   8  13   20.73    6.20
 -13   8  12    7.99    3.98
 -13   8  11   53.90    9.58
 -13   8  10    3.15    2.49
 -13   8   9    9.78    3.89
 -13   8   8    6.94    3.14
 -13   8   7   80.72   10.33
  13   8  -7   73.25   12.34
 -13   8   6    4.51    2.66
  13   8  -6    0.10    1.24
 -13   8   5   13.98    3.95
  13   8  -5   10.65    4.60
 -13   8   4    4.11    1.99
  13   8  -4    5.47    3.35
 -13   8   3    2.86    1.86
  13   8  -3    0.67    1.56
 -13   8   2   28.81    5.10
  13   8  -2   41.95    9.01
 -13   8   1    7.25    2.56
  13   8  -1    7.05    3.67
 -13   8   0    5.70    2.15
  13   8   0    6.93    3.34
 -13   8  -1   12.98    2.75
  13   8   1   18.07    5.51
  13   8   2    0.93    0.27
  13   8   3   -0.45    1.53
  13   8   4   17.61    5.42
  13   8   5   17.26    5.48
  13   8   6   68.20   10.82
  13   8   7   12.59    4.64
  13   8   8    7.01    3.43
  13   8   9   -0.71    1.70
  13   8  10   18.74    5.89
  13   8  11    0.88    1.49
  13   8  12    1.65    2.09
  13   8  13    0.25    1.01
 -13   9  14    7.52    4.15
 -13   9  13   10.29    4.50
 -13   9  12    0.51    1.95
 -13   9  11   30.63    7.73
 -13   9  10    2.77    2.04
 -13   9   9   16.08    5.24
  13   9  -8    4.21    3.16
 -13   9   8    4.36    2.84
  13   9  -7   30.95    8.12
 -13   9   7   23.36    5.95
  13   9  -6    9.43    4.55
 -13   9   6    8.29    3.34
  13   9  -5   28.72    7.82
 -13   9   5   24.97    5.78
 -13   9   4   20.35    4.79
  13   9  -4   11.93    4.76
 -13   9   3   15.60    3.90
  13   9  -3   20.13    6.48
 -13   9   2    8.09    2.78
  13   9  -2    4.34    2.40
 -13   9   1    4.89    2.13
  13   9  -1    1.90    2.15
  13   9   0   15.48    5.41
  13   9   1   12.31    4.64
  13   9   2   20.37    6.15
  13   9   3    1.63    2.07
  13   9   4   12.91    4.94
  13   9   5   -0.33    0.75
  13   9   6   21.70    6.25
  13   9   7    5.28    3.51
  13   9   8   11.34    4.50
  13   9   9    1.43    1.21
  13   9  10   34.06    8.20
  13   9  11   16.22    5.68
  13   9  12   13.11    5.36
  13   9  14   30.68    7.02
 -13  10  14    5.86    3.05
 -13  10  13    9.10    4.20
 -13  10  12   -0.25    2.08
 -13  10  11   17.96    5.74
 -13  10  10    4.26    2.66
  13  10  -9   20.65    6.90
 -13  10   9   18.51    5.62
  13  10  -8    2.93    2.49
 -13  10   8    1.32    2.30
  13  10  -7    8.29    4.01
 -13  10   7    6.36    2.98
  13  10  -6   -0.69    1.66
 -13  10   6    1.78    1.75
  13  10  -5    3.87    2.86
 -13  10   5    5.60    2.55
  13  10  -4    0.53    1.59
 -13  10   4    3.55    2.55
  13  10  -3   24.00    6.87
 -13  10   3   18.34    4.59
 -13  10   2   19.31    4.58
  13  10  -2   13.52    5.12
  13  10  -1    1.63    1.43
  13  10   0    7.32    3.77
  13  10   1    6.79    3.36
  13  10   2    5.27    2.59
  13  10   3    7.95    4.06
  13  10   4    3.67    2.15
  13  10   5   14.74    5.13
  13  10   6   33.63    7.95
  13  10   7    4.28    2.94
  13  10   8   -2.78    2.62
  13  10   9    1.29    1.78
  13  10  10   16.92    6.12
 -13  11  13    6.17    2.36
 -13  11  12    5.03    2.99
 -13  11  11   16.97    5.98
 -13  11  10    6.29    3.70
 -13  11   9   11.24    4.41
 -13  11   8    5.87    3.26
  13  11  -7   10.83    5.54
 -13  11   7   10.06    4.56
  13  11  -6    6.74    4.18
 -13  11   6    4.44    2.97
  13  11  -5   12.52    5.77
 -13  11   5    8.01    3.30
  13  11  -4    7.13    3.68
 -13  11   4   15.59    4.46
  13  11  -3   -0.83    2.47
  13  11  -2   30.47    8.15
  13  11  -1    6.57    3.42
  13  11   0   12.01    4.95
  13  11   1    0.97    1.26
  13  11   2   18.39    6.18
  13  11   3    2.68    2.74
  13  11   4   17.27    5.88
  13  11   5    5.66    3.68
  13  11   6   23.46    6.77
  13  11   7   13.45    5.33
 -13  12  12    4.23    3.55
 -13  12  11    6.21    3.34
 -13  12  10    7.68    3.82
 -13  12   9   10.16    4.15
 -13  12   8    1.70    1.87
 -13  12   7   12.65    4.32
 -13  12   6    3.04    2.59
  13  12  -4    3.30    2.29
  13  12  -3   14.01    5.55
  13  12  -2   -0.96    1.51
  13  12  -1   33.13    8.47
  13  12   0    1.49    1.97
  13  12   1    5.96    3.11
  13  12   2   18.46    5.99
  13  12   3    1.91    2.56
 -13  13  11    9.38    4.17
 -13  13  10   19.72    6.23
 -13  13   9    2.81    1.73
  14  -6  -3   15.70    3.73
  14  -6  -2   31.51    4.65
  14  -6  -1   11.42    2.65
  14  -6   0   11.65    2.39
  14  -5  -4   87.53    9.82
  14  -5  -3   37.00    5.79
  14  -5  -3   34.71    5.90
  14  -5  -2   30.47    4.80
  14  -5  -1   43.40    6.01
  14  -5   0   31.99    4.45
  14  -5   1    8.85    2.11
  14  -5   2   20.67    3.36
  14  -5   3    4.35    1.32
  14  -5   4   13.37    2.73
  14  -4  -5    6.59    2.55
  14  -4  -4   12.56    3.75
  14  -4  -3   13.66    4.03
  14  -4  -3   12.76    3.69
  14  -4  -2    3.07    1.92
  14  -4  -2    3.75    1.93
  14  -4  -1    6.52    2.24
  14  -4  -1    6.22    2.43
  14  -4   0    3.19    1.38
  14  -4   1   12.98    3.11
  14  -4   2   32.13    4.63
  14  -4   3   44.47    5.51
  14  -4   4   39.08    4.84
  14  -4   5    9.47    2.50
  14  -4   6   22.73    3.86
  14  -4   7    2.31    1.46
 -14  -3  15   18.65    6.45
 -14  -3  14   -0.03    1.64
 -14  -3  13    7.15    4.19
  14  -3  -5   26.21    5.88
  14  -3  -4   38.45    6.55
  14  -3  -3   43.23    6.97
  14  -3  -3   40.70    6.67
  14  -3  -2   54.43    7.42
  14  -3  -2   55.82    7.39
  14  -3  -1   43.01    6.48
  14  -3  -1   55.90    7.23
  14  -3   0  141.03   10.97
  14  -3   0  162.12   11.29
  14  -3   1   35.56    5.59
  14  -3   1   37.12    4.92
  14  -3   2   10.67    2.75
  14  -3   3    8.86    2.40
  14  -3   4    5.43    1.93
  14  -3   5    7.16    2.29
  14  -3   6   17.35    3.81
  14  -3   7    1.95    1.47
  14  -3   8    2.70    1.56
  14  -3   9   34.43    5.76
  14  -3  10    0.66    1.28
 -14  -2  16    5.28    3.95
 -14  -2  15   15.97    5.93
 -14  -2  14    6.71    4.51
 -14  -2  13   10.61    3.97
 -14  -2  12   -0.36    2.07
 -14  -2  11    0.15    1.28
 -14  -2  10   43.53    8.57
  14  -2  -5   12.30    3.87
  14  -2  -4    7.20    2.74
  14  -2  -3   18.46    4.86
  14  -2  -3   22.09    4.94
  14  -2  -2   37.84    6.44
  14  -2  -2   36.60    5.92
  14  -2  -1   15.61    4.04
  14  -2  -1   10.25    3.22
  14  -2   0    3.95    1.90
  14  -2   0    3.66    1.85
  14  -2   1   22.77    4.63
  14  -2   1   17.53    3.62
  14  -2   2   62.18    7.50
  14  -2   2   70.51    6.72
  14  -2   3   14.63    3.83
  14  -2   4    3.68    1.81
  14  -2   5    7.78    2.59
  14  -2   6   53.38    6.79
  14  -2   7   19.99    4.12
  14  -2   8    6.04    2.27
  14  -2   9    4.16    2.05
  14  -2  10    9.79    3.19
  14  -2  11    1.86    1.60
 -14  -1  16   24.50    7.33
 -14  -1  15    2.58    2.44
 -14  -1  14    5.93    3.66
 -14  -1  13   12.82    5.27
 -14  -1  12   22.26    6.06
 -14  -1  11   14.52    5.06
 -14  -1  10    5.41    2.76
 -14  -1   9   72.54   10.89
 -14  -1   8  163.59   15.65
  14  -1  -4   79.69    9.87
  14  -1  -3   39.75    7.08
  14  -1  -3   49.36    7.67
  14  -1  -2   11.80    3.57
  14  -1  -2   14.63    3.88
  14  -1  -1   45.03    7.14
  14  -1  -1   42.31    6.48
  14  -1   0  138.41   12.43
  14  -1   0  130.87   10.90
  14  -1   1   36.86    6.11
  14  -1   1   28.89    4.76
  14  -1   2   26.62    4.96
  14  -1   2   27.87    4.56
  14  -1   3    6.95    2.51
  14  -1   3    9.44    2.27
  14  -1   4    9.09    2.66
  14  -1   5    9.99    2.88
  14  -1   6    1.90    1.34
  14  -1   7    2.84    1.50
  14  -1   8    2.27    1.64
  14  -1   9    9.78    3.11
  14  -1  10    1.90    1.47
  14  -1  11   10.45    3.66
  14  -1  12    6.68    2.83
 -14   0  16    5.82    4.15
 -14   0  15    3.43    2.77
 -14   0  14    8.66    3.80
 -14   0  13    1.18    0.78
 -14   0  12   19.89    6.32
 -14   0  11   18.42    5.61
 -14   0  10    2.81    2.50
 -14   0   9    1.13    1.84
 -14   0   8   86.09   11.48
 -14   0   7    2.58    1.90
 -14   0   6   -0.23    0.52
  14   0  -4   10.52    3.68
  14   0  -3    0.91    0.70
  14   0  -3    1.57    1.24
  14   0  -2    2.84    2.41
  14   0  -2    2.24    1.91
  14   0  -1    0.52    0.90
  14   0  -1    0.31    1.03
  14   0   0   -0.20    0.71
  14   0   0    0.14    0.54
  14   0   1    3.52    2.07
  14   0   1    2.62    1.20
  14   0   2   56.35    7.85
  14   0   2   53.13    6.51
  14   0   3    9.64    3.34
  14   0   3    6.51    2.16
  14   0   4    3.07    1.72
  14   0   4    2.03    0.87
  14   0   5    7.19    2.53
  14   0   6   83.84    9.38
  14   0   7   14.23    3.93
  14   0   8   53.94    7.71
  14   0   9   31.79    6.18
  14   0  10   29.50    5.96
  14   0  11    4.20    2.33
  14   0  12   -0.92    1.31
  14   0  13    2.18    1.75
 -14   1  16   23.06    7.04
 -14   1  15    4.42    2.87
 -14   1  14    3.86    3.01
 -14   1  13   14.45    5.01
 -14   1  12   18.97    6.04
 -14   1  11   22.09    6.24
 -14   1  10    6.40    3.29
 -14   1   9   56.73    9.55
 -14   1   8  191.70   17.07
 -14   1   7   68.00   10.12
 -14   1   6   27.92    5.87
 -14   1   5   37.64    6.95
  14   1  -3   27.46    6.44
  14   1  -3   33.40    6.55
  14   1  -2    9.24    3.44
  14   1  -2    9.14    3.24
  14   1  -1   54.48    8.19
  14   1  -1   66.00    8.55
  14   1   0  110.77   12.03
  14   1   0  110.83   10.68
  14   1   1   41.79    7.10
  14   1   1   40.76    6.37
  14   1   2   20.08    4.94
  14   1   2   18.50    4.33
  14   1   3   13.39    3.40
  14   1   3   12.53    3.71
  14   1   4    4.57    1.83
  14   1   4    6.17    2.54
  14   1   5   18.53    4.51
  14   1   6    1.65    1.28
  14   1   7    2.42    1.66
  14   1   8   -0.56    1.37
  14   1   9   10.68    3.65
  14   1  10    4.04    2.59
  14   1  11    7.51    2.99
  14   1  12    9.21    3.84
  14   1  13    8.37    3.16
  14   1  14    9.71    4.02
 -14   2  16    5.68    2.85
 -14   2  15   23.67    7.21
 -14   2  14    7.67    4.20
 -14   2  13   16.89    5.52
 -14   2  12    1.86    1.41
 -14   2  11    0.59    1.36
 -14   2  10   29.38    6.66
 -14   2   9    8.84    3.51
 -14   2   8    8.69    3.21
 -14   2   7   14.92    4.56
 -14   2   6   16.78    4.62
 -14   2   5   11.67    3.81
 -14   2   4    5.99    2.53
  14   2  -4    4.72    2.52
 -14   2   3   22.22    4.72
  14   2  -3   13.49    4.59
  14   2  -2   29.63    5.94
  14   2  -2   26.19    6.17
  14   2  -1   16.22    4.44
  14   2  -1   13.86    4.34
  14   2   0    0.39    0.96
  14   2   0    4.04    2.41
  14   2   1   25.57    5.21
  14   2   1   27.42    5.96
  14   2   2   53.35    7.28
  14   2   2   51.32    7.94
  14   2   3   18.70    4.32
  14   2   3   23.63    5.35
  14   2   4    3.33    1.82
  14   2   4    0.90    0.97
  14   2   5    4.92    1.98
  14   2   5    4.88    2.32
  14   2   6   34.21    6.49
  14   2   7   24.46    5.50
  14   2   8    3.64    2.17
  14   2   9    3.83    2.21
  14   2  10    8.36    3.34
  14   2  11    0.31    0.62
  14   2  12    3.20    2.45
  14   2  13   -3.27    2.25
  14   2  14    4.85    2.80
  14   2  15    2.85    2.21
 -14   3  16   12.54    5.11
 -14   3  15   16.74    6.13
 -14   3  14    1.46    2.12
 -14   3  13    5.83    3.82
 -14   3  12   24.14    6.49
 -14   3  11   24.50    6.66
 -14   3  10   27.68    6.74
 -14   3   9   31.88    7.13
 -14   3   8   97.12   11.88
 -14   3   7   38.37    7.12
 -14   3   6    7.89    3.23
 -14   3   5   25.49    5.49
 -14   3   4   46.55    7.29
  14   3  -4   29.82    7.00
 -14   3   3   41.05    6.57
  14   3  -3   46.93    8.72
 -14   3   2   54.05    6.81
  14   3  -2   36.46    7.29
  14   3  -1   50.32    8.81
  14   3   0  130.11   12.56
  14   3   0  127.96   13.29
  14   3   1   62.44    8.83
  14   3   1   49.83    8.29
  14   3   2   12.43    3.49
  14   3   2   10.32    3.60
  14   3   3    5.11    2.45
  14   3   3    7.59    3.30
  14   3   4    6.21    2.59
  14   3   4    6.42    3.55
  14   3   5    5.60    2.22
  14   3   5    6.12    2.72
  14   3   6   22.76    5.76
  14   3   7    1.60    0.74
  14   3   8    3.58    1.71
  14   3   9   15.66    4.63
  14   3  10    0.24    0.58
  14   3  11    4.50    2.61
  14   3  12    2.94    2.59
  14   3  13    7.03    3.50
  14   3  14   35.34    8.29
  14   3  15    2.72    2.06
  14   3  16   12.38    5.18
 -14   4  16   18.98    6.47
 -14   4  15    3.90    3.04
 -14   4  14    1.90    2.47
 -14   4  13    2.66    2.20
 -14   4  12    6.79    3.20
 -14   4  11    5.92    3.34
 -14   4  10   14.21    4.83
 -14   4   9   -0.49    1.48
 -14   4   8    1.63    0.72
 -14   4   7    6.49    3.04
 -14   4   6    3.51    1.67
 -14   4   5    5.49    2.60
  14   4  -5    8.71    4.03
 -14   4   4    8.48    3.13
  14   4  -4   10.41    4.36
 -14   4   3   12.24    3.32
  14   4  -3    8.49    4.00
 -14   4   2    2.18    0.98
  14   4  -2    3.92    2.35
 -14   4   1    3.31    1.84
  14   4  -1    9.21    3.98
  14   4   0    0.18    1.28
  14   4   1   17.02    4.76
  14   4   2   14.87    4.24
  14   4   2   16.60    4.91
  14   4   3   67.63    9.03
  14   4   3   64.63    9.40
  14   4   4   29.78    5.86
  14   4   4   27.34    6.15
  14   4   5   18.46    4.54
  14   4   5   18.81    4.89
  14   4   6   14.15    4.61
  14   4   7    3.69    2.49
  14   4   8    9.02    3.66
  14   4   9    3.36    1.99
  14   4  10    5.79    2.95
  14   4  11    1.37    1.93
  14   4  12   12.74    4.49
  14   4  13    1.07    1.97
  14   4  14    9.54    4.37
  14   4  15    1.03    1.92
  14   4  16    9.18    4.39
 -14   5  15   11.70    5.01
 -14   5  14    2.60    2.44
 -14   5  13    6.21    3.22
 -14   5  12   44.32    8.77
 -14   5  11   14.75    4.97
 -14   5  10   21.44    5.91
 -14   5   9    9.34    4.06
 -14   5   8   26.12    6.04
 -14   5   7   20.46    5.33
 -14   5   6    8.83    3.08
 -14   5   5   37.74    6.89
  14   5  -5   27.51    7.17
 -14   5   4  106.59   10.73
  14   5  -4   91.63   12.83
 -14   5   3   47.16    6.97
  14   5  -3   37.82    8.31
 -14   5   2   38.06    5.61
  14   5  -2   15.97    4.97
 -14   5   1   41.65    5.72
  14   5  -1   72.28   11.23
  14   5   0   20.44    5.32
  14   5   1    9.89    3.88
  14   5   2   13.14    4.23
  14   5   3    9.84    3.79
  14   5   4    9.85    3.87
  14   5   5    5.13    2.72
  14   5   6    9.44    3.68
  14   5   7   -0.40    0.27
  14   5   8   10.66    4.09
  14   5   9   13.43    4.59
  14   5  10    2.75    1.81
  14   5  11    5.39    3.10
  14   5  12    0.03    0.59
  14   5  13   13.30    5.35
  14   5  14    1.71    1.66
  14   5  15    1.42    2.69
  14   5  16    0.15    0.98
 -14   6  15    4.92    3.17
 -14   6  14    8.59    3.83
 -14   6  13    7.77    4.19
 -14   6  12    2.49    1.92
 -14   6  11    3.77    2.59
 -14   6  10    8.83    3.81
 -14   6   9    7.28    3.54
 -14   6   8    2.31    1.46
 -14   6   7    2.21    1.67
 -14   6   6   15.45    4.57
  14   6  -6    8.91    4.00
 -14   6   5   19.40    4.76
  14   6  -5   30.30    7.73
 -14   6   4   18.49    4.46
  14   6  -4    9.96    4.28
 -14   6   3   21.64    4.95
  14   6  -3   21.08    6.01
 -14   6   2   35.69    5.40
  14   6  -2   19.84    5.94
 -14   6   1   14.99    3.33
  14   6  -1   30.01    7.26
 -14   6   0   10.63    2.45
  14   6   0   10.76    4.30
  14   6   1    9.69    3.69
  14   6   2   24.90    6.42
  14   6   3   27.39    6.43
  14   6   4   17.15    5.19
  14   6   5   18.51    5.19
  14   6   6   21.38    5.86
  14   6   7    2.52    2.04
  14   6   8    1.90    2.07
  14   6   9    0.84    0.39
  14   6  10   12.63    4.60
  14   6  11    2.31    2.13
  14   6  12    1.16    1.02
  14   6  13    1.16    1.39
  14   6  14    5.85    3.94
  14   6  15    0.82    1.41
 -14   7  15    0.65    1.50
 -14   7  14    2.35    2.57
 -14   7  13    5.65    3.40
 -14   7  12   27.33    6.96
 -14   7  11   11.61    4.90
 -14   7  10   13.04    4.36
 -14   7   9   16.82    5.03
 -14   7   8   25.22    6.18
 -14   7   7   15.50    5.33
  14   7  -7   11.14    4.92
 -14   7   6   16.49    4.70
  14   7  -6   10.60    4.65
 -14   7   5   27.80    5.70
  14   7  -5   44.45    9.64
 -14   7   4   72.96    9.01
  14   7  -4   56.52   10.27
 -14   7   3   16.82    4.16
  14   7  -3   16.66    5.79
 -14   7   2   32.72    5.49
  14   7  -2   22.14    6.42
 -14   7   1    7.93    2.31
  14   7  -1   19.72    5.83
  14   7   0   36.02    7.74
  14   7   1   12.81    4.61
  14   7   2   -0.05    0.87
  14   7   3    4.60    2.66
  14   7   4   26.17    6.55
  14   7   5    5.89    3.11
  14   7   6    3.35    2.59
  14   7   7    8.33    3.90
  14   7   8   11.87    4.30
  14   7   9   11.18    4.61
  14   7  10    0.55    0.78
  14   7  11    2.52    2.41
  14   7  12    0.57    0.31
  14   7  13   11.70    5.94
 -14   8  14   13.83    5.43
 -14   8  13    4.08    3.66
 -14   8  12    6.74    3.67
 -14   8  11    2.52    1.96
 -14   8  10   17.13    5.43
 -14   8   9    5.11    2.82
 -14   8   8    0.34    0.52
  14   8  -8    1.73    2.53
 -14   8   7   12.63    4.07
  14   8  -7   12.77    5.49
 -14   8   6    2.13    1.83
  14   8  -6    1.05    1.14
 -14   8   5    0.38    1.52
  14   8  -5   -0.19    1.88
 -14   8   4    3.51    1.93
  14   8  -4    3.03    2.38
 -14   8   3    2.45    1.69
  14   8  -3    0.03    2.00
 -14   8   2    2.11    1.78
  14   8  -2    1.25    1.24
  14   8  -1    7.42    3.52
  14   8   0    8.00    3.77
  14   8   1    3.35    2.20
  14   8   2    7.08    3.63
  14   8   3    7.71    3.72
  14   8   4    7.33    3.53
  14   8   5    8.55    3.66
  14   8   6    4.33    2.94
  14   8   7   10.38    4.23
  14   8   8    3.78    2.28
  14   8   9    9.22    4.04
  14   8  10    2.84    2.55
  14   8  11    3.56    2.82
 -14   9  14   -1.35    2.35
 -14   9  13    3.63    2.48
 -14   9  12   14.32    5.10
 -14   9  11    6.66    3.64
 -14   9  10    3.13    2.67
 -14   9   9    5.64    3.15
  14   9  -9   10.01    5.20
 -14   9   8   19.67    5.40
  14   9  -8   13.32    5.52
 -14   9   7   12.22    4.23
  14   9  -7   18.44    6.77
 -14   9   6   11.16    3.52
  14   9  -6    5.55    2.67
 -14   9   5   13.41    4.37
  14   9  -5   21.70    6.84
 -14   9   4   31.77    6.20
  14   9  -4   23.19    7.34
  14   9  -3    0.91    1.39
  14   9  -2    6.98    3.41
  14   9  -1    5.59    3.16
  14   9   0    5.73    3.50
  14   9   1    0.23    1.15
  14   9   2    1.68    0.92
  14   9   3   12.88    4.67
  14   9   4    6.46    3.40
  14   9   5    4.05    2.74
  14   9   6    7.02    3.92
  14   9   7    6.67    3.62
  14   9   8    8.97    4.13
  14   9   9    1.02    1.43
 -14  10  13   -0.02    1.16
 -14  10  12    3.32    2.99
 -14  10  11    3.67    2.63
 -14  10  10   -1.51    2.15
 -14  10   9    7.31    3.70
 -14  10   8    3.31    1.75
  14  10  -7    5.33    3.68
 -14  10   7    8.89    3.29
  14  10  -6    1.60    0.69
 -14  10   6    3.44    1.99
  14  10  -5    7.99    4.30
  14  10  -4    2.83    2.62
  14  10  -3   -2.64    2.92
  14  10  -2   21.34    6.80
  14  10  -1   27.25    7.44
  14  10   0    9.06    4.29
  14  10   1    2.94    1.32
  14  10   2    2.37    2.31
  14  10   3    5.44    3.42
  14  10   4    4.86    3.07
  14  10   5    4.18    3.21
  14  10   6    0.67    0.97
  14  10   7    2.16    2.63
 -14  11  12    5.87    4.08
 -14  11  11    0.96    1.89
 -14  11  10    0.53    1.33
 -14  11   9    0.05    1.84
 -14  11   8    2.61    1.88
  14  11  -3   15.47    5.95
  14  11  -2   18.25    6.18
  14  11  -1    5.31    3.39
  14  11   0    0.92    1.38
  14  11   1   24.26    7.11
  14  11   2    2.31    2.39
  14  11   3    6.22    3.69
  15  -5  -3    5.17    2.39
  15  -5  -2    2.94    1.76
  15  -5  -1    0.38    0.65
  15  -4  -3    8.09    3.03
  15  -4  -2    3.78    2.02
  15  -4  -1    3.85    1.93
  15  -4   0   18.84    3.97
  15  -4   1    2.94    1.63
  15  -4   2    2.81    1.31
  15  -4   3    3.65    1.56
  15  -3  -3   11.09    3.82
  15  -3  -2    1.06    1.17
  15  -3  -1   11.17    3.57
  15  -3   0   17.42    3.85
  15  -3   1    2.71    1.53
  15  -3   2    3.34    1.51
  15  -3   3   -0.89    0.97
  15  -3   4   14.64    3.56
  15  -3   5   24.99    4.49
  15  -3   6   15.39    3.55
  15  -3   7    4.93    1.96
 -15  -2  14   22.20    7.09
 -15  -2  13    7.36    3.79
 -15  -2  12   22.48    6.78
  15  -2  -3   13.14    4.17
  15  -2  -3   13.80    3.75
  15  -2  -2    9.06    3.43
  15  -2  -1   41.45    6.88
  15  -2   0   17.58    4.41
  15  -2   1    5.19    2.37
  15  -2   2    2.16    1.62
  15  -2   3   22.12    4.45
  15  -2   4   19.26    4.35
  15  -2   5   12.05    3.12
  15  -2   6    2.85    1.42
  15  -2   7   29.67    5.21
  15  -2   8   11.01    3.35
  15  -2   9   -0.18    0.78
  15  -2  10    8.17    3.04
 -15  -1  15    8.49    4.66
 -15  -1  14    4.12    2.82
 -15  -1  13    3.40    3.73
 -15  -1  12    6.55    3.58
 -15  -1  11    9.56    3.92
 -15  -1  10    6.27    3.71
  15  -1  -4    3.23    1.95
  15  -1  -3    1.69    1.25
  15  -1  -3    2.80    1.64
  15  -1  -2   17.02    4.56
  15  -1  -2   16.70    4.48
  15  -1  -1    4.93    2.46
  15  -1  -1    3.07    2.01
  15  -1   0    1.91    0.97
  15  -1   1   27.23    5.30
  15  -1   2   10.31    3.59
  15  -1   3    1.82    1.12
  15  -1   4   10.60    3.30
  15  -1   5   12.53    3.40
  15  -1   6    4.27    2.18
  15  -1   7    4.35    2.20
  15  -1   8   15.69    4.11
  15  -1   9    4.28    2.14
  15  -1  10   11.13    3.74
  15  -1  11   15.82    4.35
  15  -1  12   10.85    3.98
 -15   0  15    5.10    2.98
 -15   0  14    2.84    2.70
 -15   0  13    3.39    2.65
 -15   0  12   10.94    4.63
 -15   0  11   18.83    5.81
 -15   0  10    2.58    2.34
 -15   0   9    9.32    3.72
 -15   0   8    2.02    2.21
  15   0  -4    2.00    1.75
  15   0  -3    3.41    2.82
  15   0  -2    1.43    1.55
  15   0  -2   -1.19    1.33
  15   0  -1   -0.06    0.28
  15   0  -1    1.85    1.46
  15   0   0   -0.27    0.66
  15   0   0    0.33    0.82
  15   0   1    0.15    0.34
  15   0   2    1.34    0.89
  15   0   3    6.23    2.58
  15   0   4    1.92    1.14
  15   0   5   -0.86    0.30
  15   0   6   -1.97    1.99
  15   0   7   32.55    6.15
  15   0   8    0.55    0.73
  15   0   9   34.12    6.52
  15   0  10    1.91    2.10
  15   0  11    2.64    1.71
  15   0  12    0.15    1.25
  15   0  13   -0.99    1.39
 -15   1  15    8.47    4.79
 -15   1  14    2.20    2.58
 -15   1  13    1.67    2.31
 -15   1  12   10.22    4.37
 -15   1  11    6.54    3.20
 -15   1  10    4.07    2.96
 -15   1   9   12.91    4.63
 -15   1   8   22.26    5.61
 -15   1   7   10.16    3.73
 -15   1   6    2.44    0.92
  15   1  -4    5.37    2.95
  15   1  -3    2.45    1.73
  15   1  -2   13.04    4.28
  15   1  -2   12.71    4.02
  15   1  -1    7.49    3.32
  15   1  -1    6.77    2.97
  15   1   0    0.89    0.67
  15   1   0   -0.12    1.32
  15   1   1   29.86    5.74
  15   1   1   26.34    5.72
  15   1   2   12.52    3.96
  15   1   3    1.72    1.68
  15   1   4    7.86    3.06
  15   1   5   13.88    4.06
  15   1   6    5.95    2.57
  15   1   7    6.56    2.61
  15   1   8   10.10    3.73
  15   1   9    2.99    1.84
  15   1  10   15.93    4.79
  15   1  11   18.22    5.16
  15   1  12   15.55    5.12
  15   1  13   21.08    5.87
  15   1  14    3.55    2.53
 -15   2  15    7.56    3.72
 -15   2  14   14.56    4.98
 -15   2  13    4.92    3.38
 -15   2  12   29.63    7.38
 -15   2  11   36.22    7.69
 -15   2  10    4.41    2.92
 -15   2   9    1.01    0.95
 -15   2   8   10.63    4.06
 -15   2   7   28.26    6.37
 -15   2   6   -0.57    1.59
 -15   2   5    6.48    2.79
  15   2  -5    2.53    1.91
  15   2  -4    5.37    2.97
  15   2  -3    8.40    3.47
  15   2  -2   13.72    4.53
  15   2  -1   32.16    7.10
  15   2   0   31.12    6.39
  15   2   0   26.99    5.97
  15   2   1   11.01    3.98
  15   2   1    7.86    3.27
  15   2   2    3.40    2.06
  15   2   3   20.03    4.97
  15   2   4   30.25    6.27
  15   2   5    9.90    3.41
  15   2   6    2.63    1.74
  15   2   7   32.03    6.37
  15   2   8    8.75    3.49
  15   2   9    0.70    1.11
  15   2  10    1.82    1.61
  15   2  11   10.20    3.96
  15   2  12    1.88    1.76
  15   2  13    1.97    0.93
  15   2  14    3.94    2.71
  15   2  15    4.54    3.01
 -15   3  15    9.25    4.45
 -15   3  14    3.32    2.49
 -15   3  13   13.63    5.34
 -15   3  12    5.98    3.17
 -15   3  11   16.45    5.24
 -15   3  10    5.77    3.01
 -15   3   9    7.63    3.73
 -15   3   8    4.20    2.66
 -15   3   7    5.30    3.15
 -15   3   6    3.37    2.51
 -15   3   5    8.00    3.41
  15   3  -5   11.98    4.75
 -15   3   4    1.96    1.73
  15   3  -4    1.19    1.98
  15   3  -3   11.58    4.30
  15   3  -2    0.63    0.58
  15   3  -1   22.91    6.15
  15   3   0   12.98    4.30
  15   3   1    1.20    1.00
  15   3   2    8.57    3.62
  15   3   3   -2.22    2.04
  15   3   4   16.37    4.74
  15   3   5   17.80    4.89
  15   3   6   27.94    6.29
  15   3   7    3.30    2.09
  15   3   8   24.63    5.98
  15   3   9   13.02    4.28
  15   3  10   21.83    5.77
  15   3  11    7.04    3.47
  15   3  12    8.81    3.82
  15   3  13    7.23    3.47
  15   3  14   10.24    4.48
  15   3  15    3.45    3.06
  15   3  16    1.49    2.80
 -15   4  15   27.67    7.75
 -15   4  14    6.44    3.89
 -15   4  13    1.77    1.76
 -15   4  12   -0.07    1.16
 -15   4  11    4.85    2.63
 -15   4  10    4.14    3.04
 -15   4   9    6.54    3.33
 -15   4   8    5.67    3.06
 -15   4   7   12.25    4.02
 -15   4   6    3.73    2.46
  15   4  -6    1.17    1.90
 -15   4   5    3.96    2.43
  15   4  -5    1.75    1.68
 -15   4   4    0.30    0.51
  15   4  -4    1.45    2.08
 -15   4   3    6.34    2.58
  15   4  -3    6.21    3.30
  15   4  -2    6.44    3.13
  15   4  -1    4.50    3.06
  15   4   0   22.61    5.97
  15   4   1    3.73    2.20
  15   4   2    4.68    2.97
  15   4   3    3.73    2.05
  15   4   4    3.05    2.55
  15   4   5    2.60    1.97
  15   4   6    5.79    2.96
  15   4   7    8.22    3.50
  15   4   8    2.79    2.19
  15   4   9    1.47    1.56
  15   4  10   13.37    4.72
  15   4  11    0.17    0.55
  15   4  12    1.86    2.02
  15   4  13    2.15    2.16
  15   4  14    3.25    2.43
  15   4  15    3.86    3.10
  15   4  16    6.53    3.92
 -15   5  15   11.37    4.92
 -15   5  14    4.87    3.72
 -15   5  13   14.07    5.27
 -15   5  12    3.73    3.20
 -15   5  11    6.86    3.36
 -15   5  10    0.78    1.14
 -15   5   9   11.39    4.17
 -15   5   8    6.43    3.54
 -15   5   7    2.50    2.36
 -15   5   6   13.10    4.05
  15   5  -6    5.92    3.73
 -15   5   5    4.48    2.40
  15   5  -5    6.23    3.39
 -15   5   4    2.36    1.25
  15   5  -4    0.66    0.35
 -15   5   3    4.57    2.53
  15   5  -3    7.23    3.55
 -15   5   2    1.32    1.14
  15   5  -2    3.42    2.75
  15   5  -1    6.14    3.09
  15   5   0    9.95    4.28
  15   5   1    8.25    3.15
  15   5   2   20.80    5.83
  15   5   3    0.71    0.66
  15   5   4   25.93    6.52
  15   5   5    8.41    3.57
  15   5   6   24.58    6.29
  15   5   7    2.52    2.14
  15   5   8   33.19    7.28
  15   5   9   21.82    5.93
  15   5  10   27.54    6.89
  15   5  11    1.20    1.68
  15   5  12   16.87    5.68
  15   5  13    9.98    4.41
  15   5  14   19.70    6.49
 -15   6  14    9.73    4.37
 -15   6  13   18.00    5.91
 -15   6  12    6.55    2.76
 -15   6  11   41.00    8.44
 -15   6  10   14.66    5.18
 -15   6   9   17.54    5.25
 -15   6   8    7.15    3.41
 -15   6   7   42.00    7.52
  15   6  -7   34.85    8.53
 -15   6   6    9.30    3.77
  15   6  -6    3.55    2.93
 -15   6   5    3.25    1.81
  15   6  -5    5.34    3.14
 -15   6   4    1.20    0.83
  15   6  -4   -0.39    0.77
 -15   6   3    4.94    2.81
  15   6  -3    3.00    2.26
 -15   6   2   50.61    6.83
  15   6  -2   54.66   10.18
  15   6  -1    5.76    2.98
  15   6   0    5.36    2.90
  15   6   1    6.61    3.09
  15   6   2   29.59    7.13
  15   6   3    2.45    1.56
  15   6   4    0.34    0.49
  15   6   5   10.49    4.12
  15   6   6   32.97    7.53
  15   6   7    6.17    3.10
  15   6   8    7.87    3.71
  15   6   9    4.92    2.99
  15   6  10    7.57    4.17
  15   6  11    1.94    2.50
  15   6  12    1.69    1.73
  15   6  13    1.26    2.05
 -15   7  14   10.51    5.89
 -15   7  13   15.14    5.47
 -15   7  12    0.57    2.11
 -15   7  11   15.87    5.05
 -15   7  10   12.80    4.60
 -15   7   9   19.97    5.70
 -15   7   8    3.24    1.95
  15   7  -8    4.21    3.10
 -15   7   7   13.50    4.48
  15   7  -7   16.52    6.00
 -15   7   6    3.00    2.03
  15   7  -6    1.75    2.19
 -15   7   5    9.31    3.43
  15   7  -5   17.33    6.18
 -15   7   4    7.69    2.77
  15   7  -4    6.30    3.34
  15   7  -3   37.42    9.07
  15   7  -2    7.95    4.01
  15   7  -1    1.22    1.68
  15   7   0   13.26    5.20
  15   7   1    5.62    3.04
  15   7   2    5.45    2.96
  15   7   3    2.41    2.52
  15   7   4    4.41    2.74
  15   7   5    0.84    1.27
  15   7   6   26.35    6.91
  15   7   7    7.49    4.05
  15   7   8    9.90    4.22
  15   7   9    0.91    1.60
  15   7  10   33.39    8.06
  15   7  11    9.25    4.37
 -15   8  13    3.00    2.00
 -15   8  12    0.36    1.59
 -15   8  11   17.24    5.90
 -15   8  10    2.41    2.02
 -15   8   9   10.05    4.00
 -15   8   8    3.49    2.08
  15   8  -8    1.25    2.55
 -15   8   7   11.25    3.57
  15   8  -7   14.91    5.80
 -15   8   6    7.09    3.11
  15   8  -6    8.42    4.24
 -15   8   5    0.99    1.31
  15   8  -5   -0.10    1.67
  15   8  -4    2.73    1.57
  15   8  -3    2.81    3.12
  15   8  -2   10.03    4.28
  15   8  -1    6.34    3.95
  15   8   0    1.08    1.01
  15   8   1    0.59    0.77
  15   8   2    7.04    3.74
  15   8   3    1.27    1.55
  15   8   4    2.02    1.80
  15   8   5    5.67    3.66
  15   8   6   16.49    5.76
  15   8   7    2.45    2.22
  15   8   8    5.64    3.65
  15   8   9   -0.97    0.99
 -15   9  13    9.88    5.23
 -15   9  12    4.43    2.49
 -15   9  11   17.27    5.47
 -15   9  10    3.26    2.20
 -15   9   9    6.07    3.57
 -15   9   8    2.71    2.06
 -15   9   7   11.25    4.35
  15   9  -6    7.36    3.91
  15   9  -5    1.58    2.01
  15   9  -4   10.97    4.73
  15   9  -3   11.90    5.40
  15   9  -2   10.84    4.90
  15   9  -1    4.23    3.14
  15   9   0    3.34    2.70
  15   9   1    3.45    2.68
  15   9   2   10.29    4.35
  15   9   3    0.53    0.84
  15   9   4    7.52    3.83
  15   9   5    5.35    3.29
  15   9   6   22.40    6.63
 -15  10  12    0.17    2.27
 -15  10  11   19.69    6.32
 -15  10  10    5.48    3.44
  15  10   0   -2.20    2.14
  15  10   1    3.64    3.08
  16  -4  -4    7.28    3.05
  16  -4  -3    9.21    3.33
  16  -4  -2    8.69    3.16
  16  -4  -1   11.17    3.32
  16  -3  -4   34.90    6.69
  16  -3  -3   19.08    4.96
  16  -3  -2    8.82    3.22
  16  -3  -1   12.92    3.60
  16  -3   0   35.68    5.78
  16  -3   1   22.31    4.76
  16  -3   2   10.14    2.99
  16  -3   3    4.41    2.05
  16  -2  -4   -0.25    1.26
  16  -2  -3    2.27    1.55
  16  -2  -2    9.46    3.47
  16  -2  -1    2.60    1.93
  16  -2   0    0.41    0.48
  16  -2   1   13.07    3.75
  16  -2   2   29.05    5.32
  16  -2   3    6.42    2.34
  16  -2   4    0.42    0.54
  16  -2   5   11.73    3.22
  16  -2   6   52.35    7.15
 -16  -1  13    1.21    1.23
 -16  -1  12    4.60    2.54
  16  -1  -5   14.59    4.91
  16  -1  -4   16.81    5.14
  16  -1  -3   18.31    5.16
  16  -1  -2    7.54    3.03
  16  -1  -1    8.86    3.40
  16  -1   0   27.59    5.80
  16  -1   1   19.20    4.72
  16  -1   2    4.73    2.16
  16  -1   3    5.89    2.46
  16  -1   4    3.92    1.91
  16  -1   5    8.31    2.98
  16  -1   6    7.17    2.93
  16  -1   7    2.23    1.82
  16  -1   8   10.30    3.54
  16  -1   9    6.52    2.85
 -16   0  14    4.85    3.23
 -16   0  13    0.23    1.12
 -16   0  12    2.34    2.17
 -16   0  11    1.13    0.68
 -16   0  10   48.61    9.16
 -16   0   9    1.45    2.26
  16   0  -5    5.57    2.94
  16   0  -4    3.29    2.26
  16   0  -3   13.02    4.46
  16   0  -2   20.73    5.17
  16   0  -1   20.66    5.45
  16   0   0    9.99    3.38
  16   0   1   19.41    4.94
  16   0   2   21.10    5.04
  16   0   3    3.46    1.88
  16   0   4   -0.10    1.05
  16   0   5   -1.35    1.49
  16   0   6    1.36    1.69
  16   0   7    2.12    1.89
  16   0   8    7.58    3.29
  16   0   9    1.17    1.63
  16   0  10   10.20    3.65
  16   0  11    2.41    2.30
 -16   1  14    2.55    3.14
 -16   1  13    3.31    2.91
 -16   1  12    9.00    4.05
 -16   1  11   10.08    4.66
 -16   1  10    3.56    2.30
 -16   1   9   12.16    4.79
 -16   1   8   60.95    9.60
  16   1  -5   16.84    5.27
  16   1  -4   17.30    5.38
  16   1  -3   18.05    5.48
  16   1  -2    5.01    2.33
  16   1  -1   13.20    4.48
  16   1   0   28.42    6.30
  16   1   1   14.84    4.51
  16   1   2    6.31    3.01
  16   1   3    5.86    3.10
  16   1   4    3.76    2.10
  16   1   5    6.58    2.82
  16   1   6    5.78    2.92
  16   1   7    3.12    2.15
  16   1   8    6.95    3.02
  16   1   9    5.97    2.88
  16   1  10    2.55    2.15
  16   1  11    2.42    2.18
  16   1  12    9.06    4.00
  16   1  13    3.85    2.43
 -16   2  14   10.30    4.94
 -16   2  13    2.62    2.73
 -16   2  12    7.15    4.03
 -16   2  11    1.13    1.18
 -16   2  10    5.92    3.45
 -16   2   9   -0.51    1.41
 -16   2   8    0.99    1.78
 -16   2   7    0.71    0.71
 -16   2   6    6.72    3.05
  16   2  -6    7.16    3.51
  16   2  -5    1.85    2.18
  16   2  -4    1.81    2.01
  16   2  -3    2.48    2.19
  16   2  -2   12.04    4.43
  16   2  -1    3.86    2.29
  16   2   0   -0.79    0.29
  16   2   1    6.90    3.12
  16   2   2   32.27    6.81
  16   2   3    7.11    3.47
  16   2   4   -0.35    1.27
  16   2   5   12.70    3.67
  16   2   6   42.07    7.81
  16   2   7    0.04    0.81
  16   2   8   -0.92    1.55
  16   2   9    9.64    4.03
  16   2  10    3.75    2.17
  16   2  11    1.96    0.92
  16   2  12    1.22    2.21
  16   2  13   -0.64    0.82
  16   2  14    5.53    3.25
  16   2  15    3.22    3.30
 -16   3  14    0.95    1.33
 -16   3  13    3.64    3.40
 -16   3  12   15.56    5.41
 -16   3  11    7.36    3.80
 -16   3  10    7.83    4.10
 -16   3   9   20.65    5.89
 -16   3   8   11.81    4.58
 -16   3   7   19.27    5.67
 -16   3   6   12.25    4.07
  16   3  -6    7.66    3.65
 -16   3   5   29.32    6.17
  16   3  -5   31.06    7.76
  16   3  -4   19.74    5.97
  16   3  -3   27.08    6.70
  16   3  -2    7.44    3.75
  16   3  -1    7.18    3.34
  16   3   0   24.70    6.27
  16   3   1   38.77    7.68
  16   3   2    8.64    3.75
  16   3   3    2.97    1.85
  16   3   4    4.32    2.55
  16   3   5    7.40    3.29
  16   3   6    3.89    2.06
  16   3   7    1.29    1.20
  16   3   8   -0.69    1.44
  16   3   9    7.28    3.39
  16   3  10    2.50    1.82
  16   3  11   -0.42    1.09
  16   3  12    2.26    1.97
  16   3  13    5.03    2.83
  16   3  14    3.21    2.91
  16   3  15    0.90    1.72
 -16   4  14    4.54    3.37
 -16   4  13    3.21    2.70
 -16   4  12    0.56    0.68
 -16   4  11    2.82    2.15
 -16   4  10    1.85    2.16
 -16   4   9    9.93    3.91
 -16   4   8   10.03    3.92
 -16   4   7   10.93    4.24
  16   4  -7    6.80    3.88
 -16   4   6    9.21    3.75
  16   4  -6    9.24    4.73
 -16   4   5    9.39    3.45
  16   4  -5   13.89    5.21
 -16   4   4    7.72    2.91
  16   4  -4    4.59    3.17
  16   4  -3   17.55    5.51
  16   4  -2    7.95    4.20
  16   4  -1    9.24    3.91
  16   4   0   -0.34    1.16
  16   4   1   13.77    4.57
  16   4   2   15.31    4.96
  16   4   3    6.22    3.41
  16   4   4    2.70    1.95
  16   4   5    4.75    2.76
  16   4   6   13.56    4.65
  16   4   7   -1.37    0.66
  16   4   8   -0.26    0.48
  16   4   9    0.93    0.53
  16   4  10    2.57    2.20
  16   4  11    0.98    0.47
  16   4  12   -1.04    1.85
  16   4  13    5.45    3.66
  16   4  14    0.27    1.60
 -16   5  13    3.68    3.20
 -16   5  12   25.33    7.43
 -16   5  11    8.25    4.23
 -16   5  10   10.36    4.62
 -16   5   9   18.46    5.71
 -16   5   8   36.71    7.48
 -16   5   7   11.06    4.21
  16   5  -7   12.26    5.75
 -16   5   6   12.91    4.11
  16   5  -6   11.09    5.03
 -16   5   5   19.70    5.33
  16   5  -5   28.21    7.66
 -16   5   4   50.55    7.63
  16   5  -4   33.74    8.04
  16   5  -3   21.59    6.39
  16   5  -2   14.20    4.96
  16   5  -1   38.26    8.35
  16   5   0   48.94    9.08
  16   5   1   23.99    6.51
  16   5   2    3.52    2.03
  16   5   3    1.28    1.01
  16   5   4    3.98    2.68
  16   5   5    7.82    3.99
  16   5   6    2.09    1.63
  16   5   7    4.80    2.91
  16   5   8    1.70    1.34
  16   5   9    4.32    2.82
  16   5  10    1.24    1.37
  16   5  11    3.48    2.82
  16   5  12   -0.13    1.74
  16   5  13    1.11    1.92
 -16   6  13    4.96    4.03
 -16   6  12    1.22    0.54
 -16   6  11    1.53    1.28
 -16   6  10    4.34    3.02
 -16   6   9   -0.49    0.23
 -16   6   8    1.05    1.35
  16   6  -8    3.09    2.79
 -16   6   7    1.48    0.81
  16   6  -7   -0.77    0.76
 -16   6   6    2.05    1.64
  16   6  -6    3.61    3.03
  16   6  -5    0.54    1.61
  16   6  -4    1.29    1.92
  16   6  -3   -0.47    1.81
  16   6  -2    6.03    3.45
  16   6  -1    8.73    4.04
  16   6   0    7.32    3.77
  16   6   1    3.04    2.33
  16   6   2    7.08    3.19
  16   6   3    9.26    4.19
  16   6   4    4.46    3.02
  16   6   5    3.08    2.57
  16   6   6    5.09    2.89
  16   6   7   11.68    4.64
  16   6   8    4.05    2.82
  16   6   9    1.20    0.79
  16   6  10    5.70    3.79
  16   6  11    5.02    3.59
 -16   7  13    2.30    2.14
 -16   7  12   16.02    5.89
 -16   7  11    6.01    3.88
 -16   7  10    4.77    2.99
 -16   7   9    8.43    3.60
 -16   7   8   26.18    6.12
 -16   7   7   15.16    4.87
  16   7  -7   11.91    5.54
  16   7  -6    4.64    3.11
  16   7  -5   11.34    5.06
  16   7  -4   21.52    6.87
  16   7  -3   12.86    5.16
  16   7  -2   10.29    4.57
  16   7  -1    8.31    3.92
  16   7   0    2.04    1.33
  16   7   1    1.79    1.98
  16   7   2    7.31    3.61
  16   7   3    3.08    1.95
  16   7   4    5.48    3.21
  16   7   5    2.43    2.21
  16   7   6    2.65    2.18
  16   7   7    2.12    1.63
  16   7   8    0.14    0.79
  16   7   9    8.70    4.43
 -16   8  12    2.50    2.22
 -16   8  11   -0.34    1.65
 -16   8  10   -1.43    2.54
  16   8  -4    4.38    3.20
  16   8  -3    0.16    1.70
  16   8  -2    8.17    4.31
  16   8  -1    4.50    3.66
  16   8   0    7.61    4.23
  16   8   1    3.01    2.20
  16   8   2    3.50    2.46
  16   8   3    1.93    2.54
  16   8   4    2.11    1.69
  16   8   5    5.01    3.28
  16   8   6   -0.41    1.03
  17  -3  -5    0.09    1.22
  17  -3  -4    2.91    1.74
  17  -3  -3    4.98    2.68
  17  -2  -5   -1.02    1.28
  17  -2  -4    3.05    1.94
  17  -2  -3    4.59    2.63
  17  -2  -2    5.00    2.78
  17  -2  -1    0.84    1.05
  17  -2   0    1.72    1.89
  17  -2   1    0.54    0.94
  17  -2   2    0.62    1.18
  17  -1  -6    1.45    0.87
  17  -1  -5    1.26    0.97
  17  -1  -4    1.07    1.03
  17  -1  -3    3.25    2.40
  17  -1  -2    2.11    1.50
  17  -1  -1    1.13    0.95
  17  -1   0    2.78    2.15
  17  -1   1    4.13    2.45
  17  -1   2    2.24    1.25
  17  -1   3    3.82    2.23
  17  -1   4    3.30    1.92
  17  -1   5    8.93    2.98
 -17   0  12    9.71    4.35
  17   0  -6    1.45    1.78
  17   0  -5    0.46    0.85
  17   0  -4    1.94    1.98
  17   0  -3    2.11    2.01
  17   0  -2    0.56    1.23
  17   0  -1    5.70    2.80
  17   0   0    3.97    2.16
  17   0   1    2.17    1.72
  17   0   2    5.05    2.60
  17   0   3    9.83    3.55
  17   0   4    4.94    2.42
  17   0   5    3.55    1.88
  17   0   6   -0.65    1.34
  17   0   7    0.79    1.38
  17   0   8    3.21    2.03
 -17   1  13   -2.27    3.02
 -17   1  12    3.45    3.27
 -17   1  11    5.51    3.51
 -17   1  10    1.32    0.53
  17   1  -6    2.13    2.45
  17   1  -5    0.20    0.05
  17   1  -4    3.09    2.33
  17   1  -3    5.70    3.18
  17   1  -2    4.17    2.60
  17   1  -1    1.83    1.80
  17   1   0    2.52    2.10
  17   1   1    4.66    2.49
  17   1   2    4.32    2.54
  17   1   3    0.25    0.88
  17   1   4    2.68    1.75
  17   1   5    5.41    2.50
  17   1   6    4.48    2.31
  17   1   7    4.28    1.73
  17   1   8   13.55    4.48
  17   1   9    2.58    2.02
  17   1  10    8.62    4.03
 -17   2  13    1.04    2.74
 -17   2  12    1.44    1.89
 -17   2  11    2.94    2.18
 -17   2  10    0.69    0.89
 -17   2   9   -0.39    0.97
 -17   2   8    3.09    2.43
  17   2  -7   11.92    4.92
  17   2  -6   -0.68    1.96
  17   2  -5    3.00    2.55
  17   2  -4    0.75    1.58
  17   2  -3    2.07    1.52
  17   2  -2    6.84    3.47
  17   2  -1    2.49    2.16
  17   2   0    0.16    1.17
  17   2   1   -0.69    0.62
  17   2   2    1.57    1.55
  17   2   3    2.32    2.31
  17   2   4    1.33    0.46
  17   2   5    0.93    1.15
  17   2   6    2.94    1.93
  17   2   7    8.25    3.60
  17   2   8    6.94    3.03
  17   2   9    2.15    2.02
  17   2  10   -0.30    0.81
  17   2  11    3.59    2.47
  17   2  12    2.80    2.61
 -17   3  13    4.40    3.51
 -17   3  12    0.71    0.47
 -17   3  11    2.66    1.80
 -17   3  10   11.51    4.32
 -17   3   9    4.22    2.53
 -17   3   8    6.30    3.40
 -17   3   7    3.61    2.37
  17   3  -7    1.44    1.47
 -17   3   6    6.74    3.17
  17   3  -6    5.95    3.86
  17   3  -5    1.64    2.26
  17   3  -4    1.78    1.66
  17   3  -3    6.93    3.80
  17   3  -2   -0.88    1.27
  17   3  -1    1.56    1.66
  17   3   0    0.15    0.10
  17   3   1   11.62    4.37
  17   3   2    0.89    0.24
  17   3   3    3.90    2.38
  17   3   4    5.93    2.72
  17   3   5    1.56    1.36
  17   3   6    9.18    3.94
  17   3   7    3.93    2.53
  17   3   8   14.85    4.96
  17   3   9    7.13    3.47
  17   3  10   15.02    5.35
  17   3  11    1.01    1.90
  17   3  12    3.77    2.73
  17   3  13    4.27    3.36
 -17   4  13    5.19    3.23
 -17   4  12    8.93    4.40
 -17   4  11   18.96    5.83
 -17   4  10   14.45    5.02
 -17   4   9    2.23    2.07
 -17   4   8    8.63    3.80
  17   4  -8    8.47    4.48
 -17   4   7   19.50    5.55
  17   4  -7   16.17    6.05
 -17   4   6    6.17    3.24
  17   4  -6    6.36    3.78
  17   4  -5   -1.63    1.11
  17   4  -4   -0.74    2.06
  17   4  -3    3.82    2.99
  17   4  -2   23.47    6.56
  17   4  -1    3.43    2.53
  17   4   0    6.64    3.46
  17   4   1    3.87    2.72
  17   4   2    5.45    3.24
  17   4   3    2.24    1.87
  17   4   4   10.79    3.96
  17   4   5    4.08    2.41
  17   4   6    9.22    3.95
  17   4   7    5.32    3.16
  17   4   8   20.18    5.93
  17   4   9    5.34    3.22
  17   4  10    0.87    1.05
  17   4  11    0.73    0.99
  17   4  12    0.05    1.45
 -17   5  12    3.01    2.38
 -17   5  11   11.98    4.80
 -17   5  10    0.83    1.08
 -17   5   9    6.51    3.32
 -17   5   8    4.09    2.62
  17   5  -8    3.14    2.60
  17   5  -7   31.77    8.52
  17   5  -6   -0.70    1.89
  17   5  -5    6.67    3.91
  17   5  -4   -0.45    1.70
  17   5  -3    9.54    4.55
  17   5  -2    0.90    1.61
  17   5  -1   -1.43    1.95
  17   5   0    0.51    1.20
  17   5   1    3.33    2.50
  17   5   2    0.55    1.02
  17   5   3    2.42    2.11
  17   5   4    7.60    3.93
  17   5   5   -1.00    1.32
  17   5   6   12.17    4.65
  17   5   7    4.99    2.96
  17   5   8    4.04    2.64
  17   5   9    1.07    1.15
  17   5  10   16.13    5.78
 -17   6  12    0.22    1.95
 -17   6  11   11.68    4.56
 -17   6  10    4.63    2.22
  17   6  -6    0.56    0.71
  17   6  -5    2.04    2.59
  17   6  -4    1.75    1.99
  17   6  -3   -2.44    2.29
  17   6  -2    8.79    4.35
  17   6  -1    1.12    1.72
  17   6   0    0.48    1.44
  17   6   1   -0.94    0.85
  17   6   2    4.83    3.06
  17   6   3   -0.39    1.04
  17   6   4    3.04    2.68
  17   6   5    4.13    2.47
  17   6   6   14.73    5.14
  17   6   7    1.34    2.05
  17   6   8    0.51    1.47
  17   7  -2    1.16    2.18
  17   7  -1    3.90    3.00
  17   7   0    2.99    2.20
  17   7   1    0.41    1.02
  17   7   2   12.03    4.98
  17   7   3    2.54    2.54
  17   7   4    5.20    3.12
  18  -2  -7    3.38    3.00
  18  -2  -6    0.28    1.50
  18  -2  -5    2.80    1.83
  18  -1  -7   10.72    4.63
  18  -1  -6    0.33    0.70
  18  -1  -5   10.95    4.20
  18  -1  -4    6.73    3.44
  18  -1  -3   10.15    4.04
  18  -1  -2    4.13    1.92
  18  -1  -1   21.92    5.67
  18  -1   0   38.81    7.27
  18   0  -7    1.88    1.93
  18   0  -6    1.68    1.51
  18   0  -5    1.44    1.52
  18   0  -4   -0.47    0.33
  18   0  -3    2.70    1.97
  18   0  -2    1.64    1.91
  18   0  -1    3.23    2.23
  18   0   0    1.53    0.90
  18   0   1    3.25    2.22
  18   0   2   11.18    4.04
  18   0   3    2.70    1.83
  18   1  -7   13.26    5.28
  18   1  -6    3.19    2.56
  18   1  -5   12.60    5.10
  18   1  -4    0.56    1.09
  18   1  -3    9.40    4.43
  18   1  -2    0.77    1.15
  18   1  -1   25.41    6.56
  18   1   0   31.29    7.29
  18   1   1   20.82    5.81
  18   1   2   -0.09    0.63
  18   1   3    3.25    2.05
  18   1   4    2.28    1.55
  18   1   5    3.41    2.15
  18   1   6   -2.12    1.26
 -18   2  11    1.17    1.50
 -18   2  10    4.28    2.95
  18   2  -8    0.97    1.60
  18   2  -7   -1.58    1.60
  18   2  -6    5.22    3.43
  18   2  -5    0.33    0.19
  18   2  -4    0.35    1.29
  18   2  -3    8.70    4.34
  18   2  -2   12.92    4.83
  18   2  -1    3.19    2.07
  18   2   0    3.70    2.56
  18   2   1    8.34    3.85
  18   2   2   12.55    4.50
  18   2   3    7.69    3.53
  18   2   4    0.89    1.44
  18   2   5    1.88    2.10
  18   2   6    3.64    2.08
  18   2   7   -1.07    1.64
  18   2   8    0.48    0.37
 -18   3  11    4.01    3.26
 -18   3  10    4.73    3.89
 -18   3   9    9.20    4.35
  18   3  -8   19.58    6.54
  18   3  -7   14.46    5.89
  18   3  -6    2.60    2.28
  18   3  -5   20.12    6.50
  18   3  -4   10.02    4.75
  18   3  -3   25.88    7.45
  18   3  -2    6.07    2.99
  18   3  -1   12.92    4.57
  18   3   0    3.87    2.16
  18   3   1   11.49    4.49
  18   3   2    6.53    3.27
  18   3   3    7.54    3.37
  18   3   4    4.18    2.76
  18   3   5    7.79    3.95
  18   3   6    0.52    1.87
  18   3   7    4.22    2.86
  18   3   8   -0.20    0.47
  18   3   9    2.07    1.99
  18   3  10    1.98    1.89
  18   4  -6    5.43    3.49
  18   4  -5   -2.36    2.58
  18   4  -4    0.53    1.16
  18   4  -3    3.12    3.00
  18   4  -2    0.17    1.21
  18   4  -1    1.39    1.61
  18   4   0    1.16    1.29
  18   4   1    6.52    3.36
  18   4   2    3.13    2.45
  18   4   3    1.22    0.92
  18   4   4   -0.01    0.12
  18   4   5    4.15    2.61
  18   4   6    9.36    4.49
  18   4   7    5.70    3.55
  18   4   8    6.36    3.51
  18   4   9    1.21    1.91
  18   4  10    2.65    2.47
  18   5  -4    7.44    3.79
  18   5  -3   14.06    5.70
  18   5  -2    4.59    2.94
  18   5  -1   17.97    5.78
  18   5   0    5.43    3.19
  18   5   1    6.53    3.32
  18   5   2    2.64    2.67
  18   5   3    3.09    2.45
  18   5   4    1.04    2.05
  18   5   5    1.31    1.73
  18   5   6    0.37    1.84
  18   5   7    3.23    2.71
  19   0  -8    6.32    4.13
  19   0  -7    3.01    2.65
  19   0  -6    0.39    1.80
  19   0  -5    3.75    2.96
  19   0  -4   -0.59    1.05
  19   0  -3    0.70    1.07
  19   1  -8    2.87    2.56
  19   1  -7    6.37    4.20
  19   1  -6    0.19    1.97
  19   1  -5    0.05    1.19
  19   1  -4   -1.16    2.28
  19   1  -3    1.96    2.66
  19   1  -2    1.55    1.82
  19   1  -1    1.91    1.49
  19   1   0    8.68    3.95
  19   1   1    4.12    2.65
  19   2  -6    2.10    2.82
  19   2  -5    0.00    0.96
  19   2  -4    0.20    1.33
  19   2  -3    1.26    1.30
  19   2  -2    5.71    3.30
  19   2  -1    2.24    2.08
  19   2   0    7.53    3.62
  19   2   1   -0.75    1.77
  19   2   2    1.49    0.64
  19   2   3    2.64    2.31
  19   2   4    4.74    2.80
  19   3  -5    8.64    4.39
  19   3  -4    8.89    4.28
  19   3  -3    3.43    2.75
  19   3  -2    0.97    1.00
  19   3  -1   -0.29    0.75
  19   3   0    0.79    0.86
  19   3   1    2.26    2.32
  19   3   2    6.58    3.86
  19   3   3   -1.23    1.44
  19   3   4    4.87    3.12
  19   3   5    0.35    1.38
  19   3   6    4.29    3.23
  19   4  -2    6.38    3.61
  19   4  -1    2.42    2.24
  19   4   0    1.72    2.07
  19   4   1   -1.96    1.80
  19   4   2    3.07    2.75
  19   4   3    0.96    1.87
  19   4   4    0.54    2.04
  19   4   5    1.30    2.25
  19   4   6    8.10    4.23
   0   0   0    0.00    0.00


TITL VV-9_autored in P2
REM P2 (#3 in standard setting)
CELL 0.71073  14.638416  14.621752  19.946842  90.0000  90.8146  90.0000
ZERR   60.00   0.000656   0.000610   0.000804   0.0000   0.0040   0.0000
LATT -1
SYMM -x, y,-z
SFAC C H N O Zn
UNIT 60.00 60.00 60.00 60.00 60.00
REM  CrysAlisPro recorded range (K): Min=149.9; max=150.0; aver:150.0
TEMP -123
TREF
HKLF 4
END
_computing_structure_solution     'SHELXT 2014/5 (Sheldrick, 2014)'
;
_shelx_hkl_checksum   36296

