 
data_VVM-83_autored_a
 
_audit_creation_method            'SHELXL-2019/3'
_shelx_SHELXL_version_number      '2019/3'
_chemical_name_systematic         ?
_chemical_name_common             ?
_chemical_melting_point           ?
_chemical_formula_moiety          ?
_chemical_formula_sum
 'C18 H10 N8 O5 Zn' 
_chemical_formula_weight          483.71

loop_
 _atom_type_symbol
 _atom_type_description
 _atom_type_scat_dispersion_real
 _atom_type_scat_dispersion_imag
 _atom_type_scat_source
 'C'  'C'   0.0033   0.0016
 'International Tables Vol C Tables 4.2.6.8 and 6.1.1.4'
 'H'  'H'   0.0000   0.0000
 'International Tables Vol C Tables 4.2.6.8 and 6.1.1.4'
 'N'  'N'   0.0061   0.0033
 'International Tables Vol C Tables 4.2.6.8 and 6.1.1.4'
 'O'  'O'   0.0106   0.0060
 'International Tables Vol C Tables 4.2.6.8 and 6.1.1.4'
 'Zn'  'Zn'   0.2839   1.4301
 'International Tables Vol C Tables 4.2.6.8 and 6.1.1.4'
 
_space_group_crystal_system       orthorhombic
_space_group_IT_number            61
_space_group_name_H-M_alt         'P b c a'
_space_group_name_Hall            '-P 2ac 2ab'
 
_shelx_space_group_comment
;
The symmetry employed for this shelxl refinement is uniquely defined
by the following loop, which should always be used as a source of
symmetry information in preference to the above space-group names.
They are only intended as comments.
;
 
loop_
 _space_group_symop_operation_xyz
 'x, y, z'
 '-x+1/2, -y, z+1/2'
 '-x, y+1/2, -z+1/2'
 'x+1/2, -y+1/2, -z'
 '-x, -y, -z'
 'x-1/2, y, -z-1/2'
 'x, -y-1/2, z-1/2'
 '-x-1/2, y-1/2, z'
 
_cell_length_a                    15.1419(7)
_cell_length_b                    12.2206(6)
_cell_length_c                    20.4439(10)
_cell_angle_alpha                 90
_cell_angle_beta                  90
_cell_angle_gamma                 90
_cell_volume                      3783.0(3)
_cell_formula_units_Z             8
_cell_measurement_temperature     292(2)
_cell_measurement_reflns_used     ?
_cell_measurement_theta_min       ?
_cell_measurement_theta_max       ?
 
_exptl_crystal_description        ?
_exptl_crystal_colour             ?
_exptl_crystal_density_meas       ?
_exptl_crystal_density_method     ?
_exptl_crystal_density_diffrn     1.699          
_exptl_crystal_F_000              1952
_exptl_transmission_factor_min    ?
_exptl_transmission_factor_max    ?
_exptl_crystal_size_max           0.300
_exptl_crystal_size_mid           0.250
_exptl_crystal_size_min           0.200
_exptl_absorpt_coefficient_mu     1.352
_shelx_estimated_absorpt_T_min    0.687
_shelx_estimated_absorpt_T_max    0.774
_exptl_absorpt_correction_type    ?
_exptl_absorpt_correction_T_min   ?
_exptl_absorpt_correction_T_max   ?
_exptl_absorpt_process_details    ?
_exptl_absorpt_special_details    ?
_diffrn_ambient_temperature       292(2)
_diffrn_radiation_wavelength      0.71073
_diffrn_radiation_type            MoK\a
_diffrn_source                    ?
_diffrn_measurement_device_type   ?
_diffrn_measurement_method        ?
_diffrn_detector_area_resol_mean  ?
_diffrn_reflns_number             12447
_diffrn_reflns_av_unetI/netI      0.0153
_diffrn_reflns_av_R_equivalents   0.0213
_diffrn_reflns_limit_h_min        -16
_diffrn_reflns_limit_h_max        10
_diffrn_reflns_limit_k_min        -13
_diffrn_reflns_limit_k_max        12
_diffrn_reflns_limit_l_min        -21
_diffrn_reflns_limit_l_max        21
_diffrn_reflns_theta_min          2.362
_diffrn_reflns_theta_max          23.246
_diffrn_reflns_theta_full         23.246
_diffrn_measured_fraction_theta_max   0.954
_diffrn_measured_fraction_theta_full  0.954
_diffrn_reflns_Laue_measured_fraction_max    0.954
_diffrn_reflns_Laue_measured_fraction_full   0.954
_diffrn_reflns_point_group_measured_fraction_max   0.954
_diffrn_reflns_point_group_measured_fraction_full  0.954
_reflns_number_total              2596
_reflns_number_gt                 2365
_reflns_threshold_expression      'I > 2\s(I)'
_reflns_Friedel_coverage          0.000
_reflns_Friedel_fraction_max      .
_reflns_Friedel_fraction_full     .
 
_reflns_special_details
;
 Reflections were merged by SHELXL according to the crystal
 class for the calculation of statistics and refinement.
 
 _reflns_Friedel_fraction is defined as the number of unique
 Friedel pairs measured divided by the number that would be
 possible theoretically, ignoring centric projections and
 systematic absences.
;
 
_computing_data_collection        ?
_computing_cell_refinement        ?
_computing_data_reduction         ?
_computing_structure_solution     'SHELXT 2014/5 (Sheldrick, 2014)'
_computing_structure_refinement 'SHELXL-2019/2 (Sheldrick, 2019)'
_computing_molecular_graphics     ?
_computing_publication_material   ?
_refine_special_details           ?
_refine_ls_structure_factor_coef  Fsqd
_refine_ls_matrix_type            full
_refine_ls_weighting_scheme       calc
_refine_ls_weighting_details
'w=1/[\s^2^(Fo^2^)+(0.0475P)^2^+1.2903P] where P=(Fo^2^+2Fc^2^)/3'
_atom_sites_solution_primary      ?
_atom_sites_solution_secondary    ?
_atom_sites_solution_hydrogens    geom
_refine_ls_hydrogen_treatment     constr
_refine_ls_extinction_method      none
_refine_ls_extinction_coef        .
_refine_ls_number_reflns          2596
_refine_ls_number_parameters      289
_refine_ls_number_restraints      0
_refine_ls_R_factor_all           0.0300
_refine_ls_R_factor_gt            0.0271
_refine_ls_wR_factor_ref          0.0822
_refine_ls_wR_factor_gt           0.0801
_refine_ls_goodness_of_fit_ref    1.112
_refine_ls_restrained_S_all       1.112
_refine_ls_shift/su_max           0.001
_refine_ls_shift/su_mean          0.000
 
loop_
 _atom_site_label
 _atom_site_type_symbol
 _atom_site_fract_x
 _atom_site_fract_y
 _atom_site_fract_z
 _atom_site_U_iso_or_equiv
 _atom_site_adp_type
 _atom_site_occupancy
 _atom_site_site_symmetry_order  
 _atom_site_calc_flag
 _atom_site_refinement_flags_posn
 _atom_site_refinement_flags_adp
 _atom_site_refinement_flags_occupancy
 _atom_site_disorder_assembly
 _atom_site_disorder_group
Zn1 Zn 0.75349(2) 0.38117(2) 0.59379(2) 0.03031(15) Uani 1 1 d . . . . .
O1 O 0.71740(12) 0.17604(15) 1.00726(8) 0.0471(4) Uani 1 1 d . . . . .
O2 O 0.83013(14) 0.28401(17) 1.02746(8) 0.0619(5) Uani 1 1 d . . . . .
O3 O 0.76186(13) 0.29361(15) 0.67430(8) 0.0525(5) Uani 1 1 d . . . . .
O4 O 0.41667(15) 1.02150(16) 0.71610(9) 0.0699(6) Uani 1 1 d . . . . .
O5 O 0.80768(14) 0.45895(18) 0.70097(9) 0.0649(6) Uani 1 1 d . . . . .
N1 N 0.41251(12) 0.90946(15) 0.51552(8) 0.0346(4) Uani 1 1 d . . . . .
N2 N 0.34260(13) 1.00837(15) 0.44449(9) 0.0374(5) Uani 1 1 d . . . . .
N3 N 0.43019(16) 0.86227(16) 0.45655(10) 0.0480(6) Uani 1 1 d . . . . .
N4 N 0.45769(17) 0.92968(19) 0.74336(11) 0.0583(6) Uani 1 1 d . . . . .
N6 N 0.64217(12) 0.47249(14) 0.60919(9) 0.0337(4) Uani 1 1 d . . . . .
N7 N 0.40388(16) 1.01174(17) 0.64955(10) 0.0544(6) Uani 1 1 d . . . . .
N8 N 0.55096(12) 0.60582(14) 0.62378(9) 0.0324(5) Uani 1 1 d . . . . .
N9 N 0.50444(15) 0.52966(18) 0.58888(11) 0.0547(6) Uani 1 1 d . . . . .
C1 C 0.36000(15) 0.99577(19) 0.50702(12) 0.0394(6) Uani 1 1 d . . . . .
H1 H 0.338815 1.040423 0.540343 0.047 Uiso 1 1 calc R U . . .
C2 C 0.38694(17) 0.9249(2) 0.41604(12) 0.0449(6) Uani 1 1 d . . . . .
H2 H 0.386616 0.913163 0.371096 0.054 Uiso 1 1 calc R U . . .
C3 C 0.44388(15) 0.86153(17) 0.57421(12) 0.0324(5) Uani 1 1 d . . . . .
C4 C 0.43707(15) 0.91661(18) 0.63512(11) 0.0347(5) Uani 1 1 d . . . . .
C5 C 0.47055(17) 0.86601(18) 0.69255(12) 0.0386(6) Uani 1 1 d . . . . .
C6 C 0.50951(16) 0.75990(19) 0.69154(11) 0.0385(6) Uani 1 1 d . . . . .
H6 H 0.530525 0.725969 0.729164 0.046 Uiso 1 1 calc R U . . .
C7 C 0.51373(14) 0.71223(17) 0.63221(11) 0.0323(5) Uani 1 1 d . . . . .
C8 C 0.48210(15) 0.76147(18) 0.57377(11) 0.0341(5) Uani 1 1 d . . . . .
H8 H 0.487804 0.724114 0.534364 0.041 Uiso 1 1 calc R U . . .
C9 C 0.63232(14) 0.57027(17) 0.63497(10) 0.0300(5) Uani 1 1 d . . . . .
H9 H 0.675717 0.608606 0.657573 0.036 Uiso 1 1 calc R U . . .
C10 C 0.56245(18) 0.4520(2) 0.58204(13) 0.0525(7) Uani 1 1 d . . . . .
H10 H 0.550004 0.387090 0.560108 0.063 Uiso 1 1 calc R U . . .
C11 C 0.78517(18) 0.3649(2) 0.71628(13) 0.0444(7) Uani 1 1 d . . . . .
C12 C 0.78267(15) 0.3320(2) 0.78705(10) 0.0357(5) Uani 1 1 d . . . . .
C13 C 0.74002(16) 0.2370(2) 0.80699(11) 0.0383(6) Uani 1 1 d . . . . .
H13 H 0.714609 0.190913 0.776052 0.046 Uiso 1 1 calc R U . . .
C14 C 0.73529(15) 0.21092(19) 0.87219(11) 0.0350(6) Uani 1 1 d . . . . .
H14 H 0.705109 0.148393 0.885334 0.042 Uiso 1 1 calc R U . . .
C15 C 0.77539(15) 0.27748(18) 0.91875(10) 0.0307(5) Uani 1 1 d . . . . .
C16 C 0.81924(18) 0.37134(18) 0.89838(12) 0.0404(6) Uani 1 1 d . . . . .
H16 H 0.847096 0.415865 0.928968 0.049 Uiso 1 1 calc R U . . .
C17 C 0.82160(17) 0.3985(2) 0.83345(12) 0.0427(6) Uani 1 1 d . . . . .
H17 H 0.849762 0.462526 0.820423 0.051 Uiso 1 1 calc R U . . .
C18 C 0.77485(16) 0.24656(19) 0.98989(11) 0.0361(6) Uani 1 1 d . . . . .
 
loop_
 _atom_site_aniso_label
 _atom_site_aniso_U_11
 _atom_site_aniso_U_22
 _atom_site_aniso_U_33
 _atom_site_aniso_U_23
 _atom_site_aniso_U_13
 _atom_site_aniso_U_12
Zn1 0.0408(2) 0.0322(2) 0.0180(2) 0.00205(10) 0.00220(10) 0.00338(10)
O1 0.0584(11) 0.0539(11) 0.0291(10) 0.0119(8) 0.0056(8) -0.0039(9)
O2 0.0757(14) 0.0831(14) 0.0268(10) 0.0015(9) -0.0143(9) -0.0150(11)
O3 0.0840(14) 0.0517(11) 0.0220(10) 0.0039(9) 0.0033(8) 0.0274(9)
O4 0.1002(17) 0.0627(12) 0.0468(13) -0.0146(9) -0.0084(11) 0.0324(11)
O5 0.0760(14) 0.0798(15) 0.0390(12) 0.0295(10) -0.0016(10) -0.0132(11)
N1 0.0403(11) 0.0380(10) 0.0253(11) 0.0037(9) 0.0016(8) 0.0040(9)
N2 0.0465(11) 0.0405(11) 0.0251(12) 0.0053(9) -0.0029(8) 0.0022(9)
N3 0.0627(15) 0.0532(13) 0.0281(13) 0.0027(10) 0.0020(10) 0.0164(10)
N4 0.0778(17) 0.0583(14) 0.0389(14) -0.0118(11) -0.0088(11) 0.0248(12)
N6 0.0405(11) 0.0334(11) 0.0271(10) -0.0040(8) -0.0008(8) 0.0047(8)
N7 0.0718(16) 0.0545(14) 0.0369(14) -0.0058(10) -0.0042(11) 0.0172(11)
N8 0.0337(11) 0.0303(10) 0.0333(12) -0.0008(8) -0.0025(8) 0.0005(8)
N9 0.0473(13) 0.0429(13) 0.0739(17) -0.0169(11) -0.0220(11) 0.0017(10)
C1 0.0477(14) 0.0366(13) 0.0339(15) 0.0013(11) -0.0010(11) 0.0091(11)
C2 0.0576(16) 0.0507(16) 0.0264(14) 0.0038(12) 0.0007(11) 0.0080(13)
C3 0.0299(12) 0.0398(13) 0.0276(14) 0.0047(10) 0.0005(10) 0.0016(9)
C4 0.0379(13) 0.0329(13) 0.0332(14) -0.0019(11) 0.0013(10) 0.0042(10)
C5 0.0444(15) 0.0437(14) 0.0276(15) -0.0042(11) -0.0029(11) 0.0060(10)
C6 0.0438(14) 0.0417(13) 0.0299(14) 0.0025(11) -0.0034(10) 0.0068(10)
C7 0.0325(12) 0.0319(12) 0.0324(14) 0.0010(10) -0.0003(9) 0.0019(9)
C8 0.0365(13) 0.0376(13) 0.0281(13) -0.0026(10) 0.0019(10) 0.0031(10)
C9 0.0341(12) 0.0324(13) 0.0234(12) 0.0009(10) -0.0001(9) 0.0006(9)
C10 0.0532(17) 0.0409(15) 0.0635(19) -0.0167(13) -0.0182(14) 0.0039(12)
C11 0.0459(15) 0.0598(18) 0.0276(16) 0.0079(13) 0.0047(12) 0.0191(12)
C12 0.0397(13) 0.0452(14) 0.0223(13) 0.0071(11) 0.0036(10) 0.0102(11)
C13 0.0479(14) 0.0458(15) 0.0212(14) -0.0028(11) -0.0044(10) 0.0048(11)
C14 0.0424(13) 0.0350(14) 0.0275(14) 0.0028(10) 0.0002(10) -0.0017(10)
C15 0.0353(12) 0.0362(13) 0.0206(13) 0.0027(10) 0.0008(9) 0.0042(10)
C16 0.0484(16) 0.0445(15) 0.0283(15) 0.0001(10) -0.0019(11) -0.0080(10)
C17 0.0527(16) 0.0434(13) 0.0321(16) 0.0110(11) 0.0028(11) -0.0074(11)
C18 0.0454(14) 0.0388(13) 0.0241(14) 0.0014(11) 0.0031(11) 0.0105(11)
 
_geom_special_details
;
 All esds (except the esd in the dihedral angle between two l.s. planes)
 are estimated using the full covariance matrix.  The cell esds are taken
 into account individually in the estimation of esds in distances, angles
 and torsion angles; correlations between esds in cell parameters are only
 used when they are defined by crystal symmetry.  An approximate (isotropic)
 treatment of cell esds is used for estimating esds involving l.s. planes.
;
 
loop_
 _geom_bond_atom_site_label_1
 _geom_bond_atom_site_label_2
 _geom_bond_distance
 _geom_bond_site_symmetry_2
 _geom_bond_publ_flag
Zn1 O3 1.9673(17) . ?
Zn1 O1 1.9791(16) 7_565 ?
Zn1 N6 2.0459(18) . ?
Zn1 N2 2.0628(19) 4_566 ?
Zn1 C11 2.557(3) . ?
O1 C18 1.275(3) . ?
O2 C18 1.225(3) . ?
O3 C11 1.273(3) . ?
O4 N7 1.379(3) . ?
O4 N4 1.398(3) . ?
O5 C11 1.239(3) . ?
N1 C1 1.332(3) . ?
N1 N3 1.363(3) . ?
N1 C3 1.417(3) . ?
N2 C1 1.314(3) . ?
N2 C2 1.352(3) . ?
N3 C2 1.304(3) . ?
N4 C5 1.312(3) . ?
N6 C9 1.314(3) . ?
N6 C10 1.352(3) . ?
N7 C4 1.300(3) . ?
N8 C9 1.326(3) . ?
N8 N9 1.368(3) . ?
N8 C7 1.428(3) . ?
N9 C10 1.301(3) . ?
C1 H1 0.9300 . ?
C2 H2 0.9300 . ?
C3 C8 1.353(3) . ?
C3 C4 1.419(3) . ?
C4 C5 1.421(3) . ?
C5 C6 1.425(3) . ?
C6 C7 1.347(3) . ?
C6 H6 0.9300 . ?
C7 C8 1.421(3) . ?
C8 H8 0.9300 . ?
C9 H9 0.9300 . ?
C10 H10 0.9300 . ?
C11 C12 1.502(3) . ?
C12 C17 1.381(3) . ?
C12 C13 1.390(3) . ?
C13 C14 1.372(3) . ?
C13 H13 0.9300 . ?
C14 C15 1.392(3) . ?
C14 H14 0.9300 . ?
C15 C16 1.389(3) . ?
C15 C18 1.503(3) . ?
C16 C17 1.369(3) . ?
C16 H16 0.9300 . ?
C17 H17 0.9300 . ?
 
loop_
 _geom_angle_atom_site_label_1
 _geom_angle_atom_site_label_2
 _geom_angle_atom_site_label_3
 _geom_angle
 _geom_angle_site_symmetry_1
 _geom_angle_site_symmetry_3
 _geom_angle_publ_flag
O3 Zn1 O1 124.99(8) . 7_565 ?
O3 Zn1 N6 102.77(7) . . ?
O1 Zn1 N6 95.90(7) 7_565 . ?
O3 Zn1 N2 129.14(8) . 4_566 ?
O1 Zn1 N2 94.17(7) 7_565 4_566 ?
N6 Zn1 N2 103.91(8) . 4_566 ?
O3 Zn1 C11 29.12(8) . . ?
O1 Zn1 C11 154.10(9) 7_565 . ?
N6 Zn1 C11 92.65(8) . . ?
N2 Zn1 C11 107.44(9) 4_566 . ?
C18 O1 Zn1 107.42(15) . 7_566 ?
C11 O3 Zn1 102.10(16) . . ?
N7 O4 N4 112.71(17) . . ?
C1 N1 N3 109.67(18) . . ?
C1 N1 C3 129.63(19) . . ?
N3 N1 C3 120.55(18) . . ?
C1 N2 C2 103.33(19) . . ?
C1 N2 Zn1 125.23(16) . 4_466 ?
C2 N2 Zn1 130.91(16) . 4_466 ?
C2 N3 N1 102.39(19) . . ?
C5 N4 O4 103.08(19) . . ?
C9 N6 C10 103.42(19) . . ?
C9 N6 Zn1 130.62(15) . . ?
C10 N6 Zn1 124.83(16) . . ?
C4 N7 O4 104.30(19) . . ?
C9 N8 N9 110.21(18) . . ?
C9 N8 C7 130.12(19) . . ?
N9 N8 C7 118.64(18) . . ?
C10 N9 N8 101.83(19) . . ?
N2 C1 N1 109.8(2) . . ?
N2 C1 H1 125.1 . . ?
N1 C1 H1 125.1 . . ?
N3 C2 N2 114.8(2) . . ?
N3 C2 H2 122.6 . . ?
N2 C2 H2 122.6 . . ?
C8 C3 N1 120.8(2) . . ?
C8 C3 C4 117.7(2) . . ?
N1 C3 C4 121.5(2) . . ?
N7 C4 C3 130.6(2) . . ?
N7 C4 C5 109.8(2) . . ?
C3 C4 C5 119.5(2) . . ?
N4 C5 C4 110.1(2) . . ?
N4 C5 C6 127.8(2) . . ?
C4 C5 C6 122.1(2) . . ?
C7 C6 C5 115.2(2) . . ?
C7 C6 H6 122.4 . . ?
C5 C6 H6 122.4 . . ?
C6 C7 C8 123.9(2) . . ?
C6 C7 N8 121.43(19) . . ?
C8 C7 N8 114.66(19) . . ?
C3 C8 C7 121.4(2) . . ?
C3 C8 H8 119.3 . . ?
C7 C8 H8 119.3 . . ?
N6 C9 N8 109.52(19) . . ?
N6 C9 H9 125.2 . . ?
N8 C9 H9 125.2 . . ?
N9 C10 N6 115.0(2) . . ?
N9 C10 H10 122.5 . . ?
N6 C10 H10 122.5 . . ?
O5 C11 O3 122.7(2) . . ?
O5 C11 C12 119.9(3) . . ?
O3 C11 C12 117.3(2) . . ?
O5 C11 Zn1 74.46(15) . . ?
O3 C11 Zn1 48.78(12) . . ?
C12 C11 Zn1 163.6(2) . . ?
C17 C12 C13 119.2(2) . . ?
C17 C12 C11 119.6(2) . . ?
C13 C12 C11 121.2(2) . . ?
C14 C13 C12 120.2(2) . . ?
C14 C13 H13 119.9 . . ?
C12 C13 H13 119.9 . . ?
C13 C14 C15 120.4(2) . . ?
C13 C14 H14 119.8 . . ?
C15 C14 H14 119.8 . . ?
C16 C15 C14 119.1(2) . . ?
C16 C15 C18 120.0(2) . . ?
C14 C15 C18 120.8(2) . . ?
C17 C16 C15 120.2(2) . . ?
C17 C16 H16 119.9 . . ?
C15 C16 H16 119.9 . . ?
C16 C17 C12 120.8(2) . . ?
C16 C17 H17 119.6 . . ?
C12 C17 H17 119.6 . . ?
O2 C18 O1 123.0(2) . . ?
O2 C18 C15 120.6(2) . . ?
O1 C18 C15 116.3(2) . . ?
 
_refine_diff_density_max    0.436
_refine_diff_density_min   -0.336
_refine_diff_density_rms    0.046

_shelx_res_file
;
TITL VVM-83_autored_a.res in Pbca
    VVM-83_autored_a.res
    created by SHELXL-2019/3 at 11:52:24 on 10-Oct-2023
REM Old TITL VVM-83_autored in Pbca
REM SHELXT solution in Pbca
REM R1 0.129,  Rweak 0.002,  Alpha 0.038,  Orientation as input
REM Formula found by SHELXT:  C23 N6 O2 Zn
CELL  0.71073  15.1419  12.2206  20.4439   90.000   90.000   90.000
ZERR   8  0.0007   0.0006   0.0010    0.000    0.000    0.000
LATT  1
SYMM 1/2-X, -Y, 1/2+Z
SYMM -X, 1/2+Y, 1/2-Z
SYMM 1/2+X, 1/2-Y, -Z
SFAC C H N O Zn
UNIT 144 80 64 40 8
ACTA 50
SHEL 180 0.9
TEMP 19
L.S. 10
BOND $H
OMIT 0 0 2
OMIT 0
SIZE 0.300 0.250 0.200
LIST 4
FMAP 2
PLAN 20
WGHT    0.047500    1.290300
FVAR       0.26333
ZN1   5    0.753493    0.381172    0.593790    11.00000    0.04081    0.03215 =
         0.01795    0.00205    0.00220    0.00338
O1    4    0.717404    0.176044    1.007259    11.00000    0.05843    0.05387 =
         0.02910    0.01194    0.00562   -0.00389
O2    4    0.830126    0.284007    1.027462    11.00000    0.07574    0.08313 =
         0.02684    0.00152   -0.01429   -0.01497
O3    4    0.761856    0.293606    0.674298    11.00000    0.08396    0.05172 =
         0.02197    0.00390    0.00331    0.02739
O4    4    0.416668    1.021496    0.716104    11.00000    0.10020    0.06272 =
         0.04675   -0.01461   -0.00837    0.03241
O5    4    0.807679    0.458953    0.700974    11.00000    0.07599    0.07981 =
         0.03898    0.02950   -0.00164   -0.01322
N1    3    0.412514    0.909456    0.515522    11.00000    0.04032    0.03804 =
         0.02534    0.00371    0.00160    0.00395
N2    3    0.342603    1.008366    0.444490    11.00000    0.04648    0.04054 =
         0.02507    0.00526   -0.00286    0.00217
N3    3    0.430193    0.862271    0.456547    11.00000    0.06273    0.05323 =
         0.02810    0.00273    0.00203    0.01643
N4    3    0.457693    0.929684    0.743359    11.00000    0.07776    0.05831 =
         0.03894   -0.01177   -0.00879    0.02478
N6    3    0.642172    0.472494    0.609190    11.00000    0.04049    0.03341 =
         0.02713   -0.00400   -0.00080    0.00470
N7    3    0.403884    1.011739    0.649554    11.00000    0.07180    0.05447 =
         0.03692   -0.00582   -0.00418    0.01725
N8    3    0.550959    0.605819    0.623779    11.00000    0.03372    0.03032 =
         0.03330   -0.00077   -0.00246    0.00045
N9    3    0.504438    0.529664    0.588880    11.00000    0.04726    0.04292 =
         0.07391   -0.01690   -0.02200    0.00173
C1    1    0.359997    0.995768    0.507016    11.00000    0.04768    0.03657 =
         0.03395    0.00130   -0.00097    0.00910
AFIX  43
H1    2    0.338815    1.040423    0.540343    11.00000   -1.20000
AFIX   0
C2    1    0.386939    0.924939    0.416037    11.00000    0.05759    0.05071 =
         0.02639    0.00375    0.00073    0.00804
AFIX  43
H2    2    0.386616    0.913163    0.371096    11.00000   -1.20000
AFIX   0
C3    1    0.443882    0.861531    0.574207    11.00000    0.02994    0.03978 =
         0.02756    0.00471    0.00053    0.00156
C4    1    0.437071    0.916613    0.635116    11.00000    0.03788    0.03285 =
         0.03323   -0.00190    0.00127    0.00420
C5    1    0.470550    0.866009    0.692550    11.00000    0.04442    0.04370 =
         0.02762   -0.00425   -0.00289    0.00597
C6    1    0.509506    0.759903    0.691541    11.00000    0.04381    0.04169 =
         0.02991    0.00250   -0.00340    0.00684
AFIX  43
H6    2    0.530525    0.725969    0.729164    11.00000   -1.20000
AFIX   0
C7    1    0.513727    0.712226    0.632214    11.00000    0.03253    0.03194 =
         0.03241    0.00104   -0.00029    0.00186
C8    1    0.482103    0.761475    0.573770    11.00000    0.03654    0.03763 =
         0.02810   -0.00262    0.00193    0.00314
AFIX  43
H8    2    0.487804    0.724114    0.534364    11.00000   -1.20000
AFIX   0
C9    1    0.632319    0.570266    0.634969    11.00000    0.03415    0.03239 =
         0.02344    0.00093   -0.00011    0.00056
AFIX  43
H9    2    0.675717    0.608606    0.657573    11.00000   -1.20000
AFIX   0
C10   1    0.562451    0.451952    0.582042    11.00000    0.05319    0.04094 =
         0.06346   -0.01671   -0.01816    0.00392
AFIX  43
H10   2    0.550004    0.387090    0.560108    11.00000   -1.20000
AFIX   0
C11   1    0.785171    0.364902    0.716281    11.00000    0.04586    0.05982 =
         0.02762    0.00790    0.00470    0.01907
C12   1    0.782672    0.332023    0.787050    11.00000    0.03970    0.04515 =
         0.02229    0.00714    0.00358    0.01017
C13   1    0.740018    0.236975    0.806989    11.00000    0.04786    0.04584 =
         0.02122   -0.00281   -0.00438    0.00484
AFIX  43
H13   2    0.714609    0.190913    0.776052    11.00000   -1.20000
AFIX   0
C14   1    0.735292    0.210915    0.872187    11.00000    0.04239    0.03499 =
         0.02754    0.00277    0.00020   -0.00171
AFIX  43
H14   2    0.705109    0.148393    0.885334    11.00000   -1.20000
AFIX   0
C15   1    0.775392    0.277479    0.918751    11.00000    0.03532    0.03618 =
         0.02064    0.00272    0.00083    0.00418
C16   1    0.819245    0.371339    0.898383    11.00000    0.04844    0.04450 =
         0.02834    0.00011   -0.00187   -0.00804
AFIX  43
H16   2    0.847096    0.415865    0.928968    11.00000   -1.20000
AFIX   0
C17   1    0.821600    0.398506    0.833454    11.00000    0.05268    0.04337 =
         0.03212    0.01103    0.00278   -0.00739
AFIX  43
H17   2    0.849762    0.462526    0.820423    11.00000   -1.20000
AFIX   0
C18   1    0.774853    0.246558    0.989892    11.00000    0.04542    0.03880 =
         0.02412    0.00145    0.00310    0.01054
HKLF 4




REM  VVM-83_autored_a.res in Pbca
REM wR2 = 0.0822, GooF = S = 1.112, Restrained GooF = 1.112 for all data
REM R1 = 0.0271 for 2365 Fo > 4sig(Fo) and 0.0300 for all 2596 data
REM 289 parameters refined using 0 restraints

END

WGHT      0.0464      1.7661

REM Highest difference peak  0.436,  deepest hole -0.336,  1-sigma level  0.046
Q1    1   0.4840  0.8186  0.7902  11.00000  0.05    0.44
Q2    1   0.5118  0.7307  0.7512  11.00000  0.05    0.41
Q3    1   0.8203  0.3923  0.6740  11.00000  0.05    0.22
Q4    1   0.7115  0.2481  0.6727  11.00000  0.05    0.22
Q5    1   0.7835  0.3330  1.0320  11.00000  0.05    0.19
Q6    1   0.3078  1.0618  0.4113  11.00000  0.05    0.19
Q7    1   0.7613  0.3301  0.6526  11.00000  0.05    0.17
Q8    1   0.4226  0.8823  0.5461  11.00000  0.05    0.15
Q9    1   0.7193  0.2209  1.0049  11.00000  0.05    0.15
Q10   1   0.5281  0.6674  0.6299  11.00000  0.05    0.15
Q11   1   0.7436  0.2644  0.9018  11.00000  0.05    0.15
Q12   1   0.7768  0.2705  0.9509  11.00000  0.05    0.15
Q13   1   0.4600  0.8250  0.4567  11.00000  0.05    0.15
Q14   1   0.3576  1.0163  0.4190  11.00000  0.05    0.14
Q15   1   0.4233  0.8761  0.6041  11.00000  0.05    0.14
Q16   1   0.3750  0.9376  0.5150  11.00000  0.05    0.13
Q17   1   0.6919  0.4460  0.6090  11.00000  0.05    0.13
Q18   1   0.7576  0.1407  1.0202  11.00000  0.05    0.13
Q19   1   0.5135  0.5549  0.5427  11.00000  0.05    0.13
Q20   1   0.7126  0.1723  1.0386  11.00000  0.05    0.13
;
_shelx_res_checksum   69334

_shelx_hkl_file
;
   0   0   2   20.05    1.02
   0   0  -3    0.88    0.27
   0   0   3    0.68    0.25
   0   0  -3    0.51    0.31
   0   0   3    0.35    0.29
   0   0   4 2548.46   29.17
   0   0  -4 2635.35   29.17
   0   0   4 2610.02   30.67
   0   0  -4 2583.62   30.82
   0   0  -5    3.99    0.61
   0   0   5    2.63    0.54
   0   0   5    2.21    0.68
   0   0  -5    1.58    0.55
   0   0  -6 1441.51   18.33
   0   0   6 1372.04   18.21
   0   0   6 1440.30   20.02
   0   0  -6 1420.04   20.50
   0   0  -7   -0.06    0.43
   0   0   7    0.30    0.34
   0   0   7   -0.07    0.57
   0   0  -7    0.27    0.49
   0   0   8    1.18    0.50
   0   0   8   -0.24    0.76
   0   0  -8    1.88    0.80
   0   0   9    1.02    0.61
   0   0  -9   -1.01    0.78
   0   0  10 5792.43   65.85
   0   0 -10 5744.01   70.66
   0   0  11    2.35    0.89
   0   0 -11    4.17    1.37
   0   0  12  609.88   12.33
   0   0 -12  623.03   15.24
   0   0  13    1.34    0.66
   0   0 -13    0.12    1.17
   0   0  14   40.24    3.03
   0   0 -14   40.76    3.90
   0   0  15    0.75    0.78
   0   0 -15   -0.59    1.07
   0   0 -16  414.85   13.88
   0  -1  -1    1.08    0.18
   0   1   2    0.62    0.23
   0  -1  -2    0.64    0.21
   0  -1  -2    0.71    0.24
   0   1   3    1.25    0.29
   0  -1  -3    1.73    0.40
   0  -1   3    1.47    0.28
   0  -1  -3    1.40    0.41
   0   1  -3    1.16    0.27
   0  -1   3    1.71    0.41
   0  -1   4    0.37    0.25
   0  -1  -4    0.07    0.33
   0   1   4   -0.07    0.23
   0  -1  -4   -0.55    0.53
   0  -1   4    0.31    0.35
   0   1  -4    0.48    0.41
   0  -1   5    0.67    0.31
   0  -1  -5    1.07    0.41
   0   1   5    0.35    0.30
   0  -1  -5    0.03    0.43
   0   1  -5    0.20    0.37
   0  -1   5    0.43    0.45
   0   1   6    0.20    0.30
   0  -1   6    0.71    0.40
   0  -1  -6    0.82    0.45
   0  -1  -6   -0.46    0.56
   0  -1   6   -0.27    0.56
   0   1  -6    0.44    0.40
   0  -1  -7    0.00    0.48
   0  -1   7    0.42    0.40
   0   1   7    0.13    0.40
   0  -1  -7    0.83    0.49
   0  -1   7   -0.55    0.60
   0   1  -7   -0.30    0.54
   0   1   8    0.39    0.41
   0  -1   8    0.13    0.43
   0  -1  -8   -0.08    0.47
   0   1  -8   -0.34    0.57
   0  -1   8    0.07    0.50
   0  -1  -8    2.42    0.94
   0   1   9   -0.65    0.42
   0  -1  -9    0.08    0.45
   0  -1   9    0.07    0.34
   0   1  -9    0.04    0.56
   0  -1   9    1.04    0.81
   0  -1  -9    0.89    0.78
   0   1  10   -0.32    0.51
   0  -1  10    0.28    0.46
   0  -1 -10    0.08    0.45
   0  -1 -10    0.44    0.83
   0  -1  10   -0.08    0.59
   0   1 -10   -0.77    0.69
   0  -1  11    0.61    0.35
   0   1  11   -0.31    0.42
   0   1 -11    0.11    0.57
   0  -1 -11    1.40    0.96
   0  -1  12    0.56    0.64
   0   1  12   -0.19    0.41
   0  -1 -12    0.53    0.92
   0   1 -12   -1.00    0.87
   0   1  13    0.01    0.39
   0  -1  13    0.15    0.53
   0   1 -13    0.84    0.91
   0  -1 -13    0.27    0.69
   0   1  14    0.52    0.69
   0  -1  14   -0.38    0.48
   0  -1 -14    1.50    0.96
   0   1 -14   -0.63    1.17
   0   1  15   -1.03    0.79
   0  -1  15    0.79    0.69
   0  -1 -15    0.24    0.87
   0   1 -15   -0.48    0.59
   0  -1  16   -1.28    0.75
   0   1 -16    1.56    1.11
   0  -2  -1 6297.01   65.34
   0   2   1 6285.57   65.25
   0  -2  -2   47.21    1.52
   0   2   2   46.59    1.50
   0   2  -3  567.24    7.54
   0   2   3  623.00    8.49
   0  -2  -3  617.27    8.60
   0  -2  -3  601.42    9.98
   0  -2   3  610.65    8.08
   0   2  -4  578.61    8.43
   0   2   4  573.86    8.70
   0  -2  -4  597.80    8.92
   0  -2   4  576.70    7.93
   0  -2   4  590.35    8.78
   0  -2  -4  553.97   10.32
   0   2   5  605.67    9.56
   0  -2  -5  618.74    9.70
   0  -2   5  604.83    8.78
   0   2  -5  614.08    9.64
   0  -2   5  618.02    9.85
   0  -2  -5  617.00   11.56
   0   2   6 1431.33   19.06
   0  -2   6 1441.48   18.10
   0  -2  -6 1428.23   19.16
   0   2  -6 1458.85   19.63
   0  -2   6 1492.24   19.84
   0  -2  -6 1420.37   21.83
   0  -2  -7  789.36   12.56
   0   2   7  766.32   12.37
   0  -2   7  760.42   11.60
   0   2  -7  763.32   13.12
   0  -2   7  796.62   13.18
   0  -2  -7  779.35   14.93
   0  -2  -8  183.80    5.38
   0  -2   8  178.89    4.82
   0   2   8  183.17    5.33
   0   2  -8  185.83    5.95
   0  -2   8  187.02    5.81
   0  -2  -8  186.06    6.84
   0  -2   9 4692.69   53.51
   0   2   9 4666.02   54.50
   0  -2  -9 4723.16   54.77
   0  -2   9 4769.42   55.98
   0  -2  -9 4586.46   59.05
   0   2  -9 4703.38   56.40
   0  -2  10   31.83    2.16
   0   2  10   33.39    2.36
   0  -2 -10   34.83    2.48
   0  -2  10   31.14    2.77
   0  -2 -10   29.06    3.14
   0   2 -10   33.94    2.84
   0   2  11   41.68    2.80
   0  -2  11   38.09    2.56
   0  -2 -11   39.17    2.74
   0   2 -11   40.21    3.17
   0  -2 -11   42.13    3.80
   0  -2  12    2.42    0.71
   0   2  12    3.24    0.83
   0   2 -12    4.15    1.20
   0  -2 -12    2.54    0.79
   0  -2  13 2701.77   36.09
   0   2  13 2773.67   36.95
   0   2 -13 2780.01   39.97
   0  -2 -13 2743.18   42.68
   0   2  14   48.51    3.39
   0  -2  14   43.07    3.11
   0  -2 -14   42.90    4.31
   0   2 -14   47.87    4.02
   0  -2  15  768.00   15.38
   0   2  15  769.85   15.80
   0  -2 -15  746.81   19.68
   0   2 -15  766.90   18.10
   0  -2  16  125.45    5.70
   0   2 -16  132.42    7.17
   0   2 -17  151.86    7.99
   0   3   0    2.62    0.27
   0  -3   0    2.91    0.28
   0  -3  -1    1.50    0.38
   0   3   1    0.21    0.16
   0  -3  -2    1.61    0.35
   0   3   2    2.19    0.39
   0   3   3    0.85    0.29
   0  -3  -3    0.21    0.28
   0  -3  -3    0.66    0.55
   0  -3   3    0.31    0.17
   0   3  -4    0.17    0.15
   0   3   4    0.09    0.26
   0  -3  -4    0.14    0.35
   0  -3   4    0.64    0.32
   0  -3  -4    0.91    0.63
   0   3  -5    0.39    0.28
   0  -3  -5   -0.84    0.69
   0  -3   5    0.87    0.44
   0  -3  -5    0.62    0.47
   0  -3   5    0.31    0.25
   0   3   5   -0.06    0.27
   0  -3  -6   -0.41    0.63
   0   3  -6    0.26    0.28
   0  -3   6    0.02    0.36
   0   3   6   -0.19    0.38
   0  -3  -6   -0.31    0.47
   0  -3   6    0.01    0.28
   0   3  -7   -0.19    0.41
   0  -3   7   -0.55    0.61
   0  -3  -7   -0.37    0.60
   0   3   7    0.04    0.34
   0  -3  -7    1.63    0.68
   0  -3   7    0.57    0.31
   0   3  -8   -0.06    0.40
   0  -3   8   -0.66    0.52
   0  -3  -8   -0.44    0.84
   0  -3   8    0.23    0.29
   0  -3  -8    0.07    0.40
   0   3   8   -0.11    0.36
   0  -3  -9    0.85    0.62
   0  -3   9    1.32    0.73
   0   3  -9    0.82    0.60
   0  -3  -9    0.61    0.43
   0  -3   9    0.91    0.48
   0   3   9   -0.18    0.38
   0  -3 -10   -0.04    0.64
   0   3 -10   -0.53    0.42
   0  -3  10   -0.07    0.56
   0  -3 -10    0.77    0.71
   0   3  10    0.00    0.47
   0  -3  10    0.23    0.45
   0  -3  11   -1.14    0.91
   0  -3 -11   -0.10    0.72
   0   3 -11   -0.36    0.49
   0   3  11    0.14    0.43
   0  -3  11   -0.23    0.46
   0  -3 -11   -1.27    0.81
   0  -3 -12    0.03    0.74
   0   3 -12    0.36    0.54
   0   3  12    0.90    0.49
   0  -3 -12    0.75    0.78
   0  -3  12    0.59    0.58
   0  -3 -13   -0.63    1.21
   0   3 -13   -0.39    0.66
   0   3  13    0.87    0.59
   0  -3  13   -0.19    0.44
   0   3 -14    0.80    0.82
   0  -3 -14    0.00    0.97
   0   3  14    0.31    0.54
   0  -3  14    0.22    0.45
   0   3 -15    0.51    0.63
   0  -3  15    0.35    0.48
   0   3 -16    1.61    0.87
   0  -3  16    0.53    0.53
   0   3 -17    0.16    0.65
   0  -4   0  116.78    2.33
   0   4   0  121.05    2.24
   0  -4  -1   47.84    1.59
   0   4   1   47.42    1.50
   0  -4   1   47.75    1.15
   0  -4  -2  135.17    3.22
   0   4   2  137.05    3.07
   0   4   3   41.44    1.76
   0  -4  -3   41.65    1.88
   0  -4  -3   42.14    2.50
   0   4   4 1458.69   18.66
   0  -4  -4 1479.22   18.94
   0  -4  -4 1462.00   21.60
   0  -4   4 1477.27   17.16
   0  -4  -5   57.39    2.62
   0   4   5   59.28    2.51
   0  -4   5   57.21    1.87
   0  -4  -5   59.48    3.52
   0  -4   5   62.58    2.22
   0   4  -6 2006.51   23.58
   0   4   6 2109.27   26.14
   0  -4  -6 2111.61   26.50
   0  -4   6 2076.61   24.21
   0  -4  -6 2065.89   30.07
   0  -4   6 2112.81   25.33
   0   4  -7   35.60    1.72
   0  -4  -7   40.07    2.43
   0   4   7   37.32    2.24
   0  -4   7   38.76    1.87
   0  -4  -7   35.09    3.11
   0  -4   7   38.38    2.21
   0   4  -8  107.01    3.53
   0  -4   8  109.61    3.52
   0  -4  -8  107.73    4.26
   0   4   8  112.67    4.20
   0  -4  -8  108.75    5.68
   0  -4   8  110.89    4.13
   0   4  -9  540.12    9.92
   0  -4  -9  528.60   11.03
   0  -4   9  526.42    9.53
   0   4   9  548.48   10.86
   0  -4   9  535.64   10.77
   0  -4  -9  522.35   13.80
   0   4 -10  716.61   12.71
   0  -4 -10  696.77   13.60
   0   4  10  707.80   13.35
   0  -4  10  702.82   12.01
   0  -4  10  738.78   13.80
   0  -4 -10  694.04   17.03
   0   4 -11  120.76    4.84
   0   4  11  122.07    5.01
   0  -4 -11  118.78    5.10
   0  -4  11  114.94    4.33
   0  -4 -11  112.89    6.54
   0   4 -12  345.50    9.08
   0   4  12  348.79    9.24
   0  -4 -12  341.25    9.45
   0  -4  12  341.14    8.29
   0  -4 -12  347.87   12.34
   0   4 -13   64.47    3.98
   0  -4  13   64.61    3.49
   0   4  13   64.01    3.91
   0  -4 -13   67.66    5.53
   0   4 -14  329.06    9.73
   0  -4  14  331.54    8.80
   0   4 -15   98.83    5.34
   0  -4  15   96.09    4.70
   0   4 -16  936.59   19.23
   0  -4  16  931.31   17.54
   0  -4  17    0.19    0.71
   0   4 -17    0.78    0.68
   0   4 -18   31.25    3.41
   0   5   0    0.19    0.18
   0  -5   0    0.08    0.18
   0  -5  -1   -0.03    0.20
   0  -5   1   -0.06    0.14
   0   5   1    0.04    0.19
   0  -5  -2    0.34    0.47
   0  -5  -2    0.69    0.33
   0   5   2    0.32    0.26
   0  -5   2    0.19    0.13
   0  -5   3    0.39    0.13
   0  -5   3    0.28    0.14
   0  -5  -3    0.62    0.43
   0  -5  -3    0.48    0.35
   0   5   3    0.03    0.23
   0  -5   4    0.09    0.17
   0  -5  -4    0.75    0.64
   0  -5  -4    0.01    0.35
   0   5   4   -0.16    0.35
   0  -5   5   -0.11    0.24
   0  -5  -5    0.04    0.53
   0  -5   5   -0.09    0.19
   0  -5  -5   -0.25    0.40
   0   5   5    0.54    0.42
   0  -5   6   -0.13    0.28
   0  -5  -6    0.05    0.52
   0  -5  -6   -0.09    0.39
   0  -5   6    0.49    0.29
   0   5   6    0.49    0.42
   0   5  -7    0.48    0.27
   0  -5   7   -0.17    0.21
   0   5   7    0.37    0.42
   0  -5  -7   -0.08    0.41
   0  -5  -7   -0.08    0.56
   0  -5   7   -0.19    0.35
   0   5  -8    0.20    0.25
   0  -5   8   -0.17    0.25
   0   5   8    0.12    0.42
   0  -5  -8   -0.09    0.49
   0  -5  -8   -0.29    0.98
   0  -5   8    0.34    0.39
   0   5  -9    0.47    0.34
   0  -5   9   -0.05    0.32
   0   5   9    0.18    0.45
   0  -5  -9    0.41    0.60
   0  -5   9    0.23    0.41
   0  -5  -9    1.65    1.03
   0   5 -10    0.50    0.32
   0  -5  10    0.19    0.41
   0  -5 -10    1.38    0.83
   0   5  10    0.73    0.58
   0  -5  10    0.75    0.63
   0  -5 -10    0.49    0.81
   0   5 -11   -0.31    0.39
   0   5  11    0.14    0.41
   0  -5 -11   -0.54    0.63
   0  -5  11   -0.30    0.32
   0  -5 -11    0.92    1.15
   0   5 -12    0.28    0.41
   0   5  12    1.74    0.63
   0  -5 -12    0.81    0.78
   0  -5  12    0.37    0.53
   0  -5 -12   -1.41    1.22
   0   5 -13    1.10    0.67
   0  -5  13    0.36    0.43
   0   5  13   -0.02    0.41
   0  -5 -13   -0.35    1.09
   0   5 -14    0.65    0.70
   0  -5  14   -0.47    0.61
   0   5 -15    0.30    0.59
   0  -5  15   -0.35    0.43
   0   5 -16    0.97    0.69
   0  -5  16   -0.04    0.60
   0   5 -17    0.47    0.54
   0  -5  17    0.15    0.68
   0   5 -18   -0.80    0.65
   0  -6   0  519.42    7.42
   0   6   0  524.71    7.18
   0  -6  -1  817.02   13.74
   0  -6   1  858.88   10.38
   0  -6  -1  863.50   11.50
   0   6   1  845.89   11.00
   0  -6  -2    0.05    0.45
   0  -6   2    0.49    0.18
   0  -6  -2    0.04    0.30
   0   6   2    0.03    0.25
   0  -6   3 1509.07   16.19
   0  -6  -3 1400.06   22.12
   0  -6  -3 1469.75   19.14
   0   6   3 1478.81   18.60
   0  -6   3 1454.39   16.01
   0  -6  -4  545.66   12.31
   0  -6  -4  562.23    9.88
   0  -6   4  574.28    6.89
   0   6   4  551.07    9.31
   0  -6  -5    8.44    1.55
   0  -6   5    9.02    0.67
   0  -6  -5    8.45    1.14
   0  -6   5    8.21    0.60
   0   6   5    7.39    0.93
   0  -6   6   29.42    1.39
   0  -6  -6   25.04    2.66
   0  -6   6   26.34    1.25
   0  -6  -6   26.08    1.97
   0   6   6   27.44    1.91
   0  -6  -7 1050.91   20.86
   0  -6   7 1123.66   14.57
   0  -6   7 1039.78   13.84
   0   6   7 1055.71   16.38
   0  -6  -7 1042.27   16.91
   0  -6   8   42.97    2.17
   0  -6  -8   41.07    3.73
   0  -6  -8   40.33    2.74
   0   6   8   41.34    2.62
   0  -6   8   39.56    1.92
   0  -6  -9  376.98   12.30
   0   6   9  383.77    9.12
   0  -6   9  376.07    7.30
   0  -6  -9  390.24    9.59
   0   6 -10   10.96    1.01
   0  -6 -10    8.79    1.97
   0  -6  10   10.91    1.20
   0  -6 -10   10.80    1.63
   0   6  10    9.44    1.36
   0   6 -11  172.50    4.60
   0  -6  11  164.36    5.01
   0  -6 -11  171.31    6.57
   0   6  11  172.30    6.24
   0  -6 -11  173.01    8.75
   0   6 -12  152.96    4.68
   0  -6  12  147.35    4.94
   0   6  12  156.72    6.14
   0  -6 -12  147.25    6.32
   0  -6 -12  146.98    8.41
   0   6 -13  424.49    9.13
   0  -6  13  438.97    9.60
   0   6 -14   82.00    3.89
   0  -6  14   86.04    4.09
   0   6 -15  555.98   11.79
   0  -6  15  545.24   11.87
   0   6 -16   12.86    1.74
   0  -6  16   13.05    1.75
   0   6 -17   78.84    4.44
   0  -6  17   88.03    4.65
   0   6 -18  369.31   10.46
   0  -6  18  386.03   10.72
   0   7   0    0.24    0.17
   0  -7   0    0.42    0.36
   0  -7   0    0.46    0.31
   0  -7   1    0.29    0.32
   0  -7  -1   -0.20    0.43
   0  -7   1    0.39    0.18
   0  -7  -1    0.58    0.32
   0   7   1    0.06    0.18
   0  -7   2    0.16    0.26
   0  -7  -2    0.15    0.44
   0  -7  -2    0.01    0.30
   0  -7   2    0.11    0.13
   0   7   2    0.47    0.28
   0  -7  -3    0.03    0.54
   0  -7  -3    0.16    0.30
   0   7   3    0.54    0.28
   0  -7  -4    0.17    0.60
   0  -7  -4    0.59    0.54
   0   7   4   -0.52    0.38
   0  -7  -5   -0.72    0.74
   0  -7  -5   -0.11    0.37
   0  -7   5    0.03    0.13
   0  -7   5    0.10    0.11
   0   7   5    0.28    0.36
   0  -7  -6    0.35    0.73
   0  -7  -6    1.54    0.64
   0  -7   6    0.26    0.17
   0   7   6    0.38    0.31
   0  -7  -7    0.12    0.61
   0  -7  -7   -0.12    0.55
   0  -7   7    0.26    0.28
   0   7   7    0.04    0.38
   0  -7  -8    1.70    1.32
   0  -7   8    0.13    0.25
   0  -7  -8   -0.48    0.53
   0   7   8   -0.50    0.42
   0  -7  -9    0.78    0.80
   0  -7   9    0.02    0.23
   0  -7  -9    0.43    0.63
   0   7   9   -0.41    0.42
   0  -7 -10   -0.96    1.21
   0  -7  10    0.41    0.41
   0  -7 -10   -0.01    0.52
   0   7  10    0.58    0.39
   0  -7 -11    0.68    0.96
   0  -7 -11    0.70    0.76
   0  -7  11    0.23    0.34
   0   7  11    0.75    0.56
   0  -7  12    0.72    0.50
   0   7  12   -0.13    0.47
   0   7 -13    0.50    0.46
   0  -7  13    0.25    0.36
   0   7 -14    0.45    0.33
   0  -7  14    0.01    0.46
   0   7 -15   -0.30    0.51
   0  -7  15    0.25    0.50
   0   7 -16    0.73    0.45
   0  -7  16   -0.04    0.65
   0   7 -17    0.28    0.49
   0  -7  17    0.62    0.64
   0  -8   0 2387.99   26.84
   0  -8   0 2235.40   29.97
   0   8   1    0.44    0.29
   0  -8   1    1.82    0.73
   0  -8  -1    1.51    0.75
   0  -8  -1    0.69    0.47
   0  -8   1    1.23    0.36
   0  -8   2  320.37    6.29
   0  -8  -2  320.91    8.80
   0  -8  -2  336.74    6.68
   0  -8   2  332.72    4.63
   0   8   2  330.00    6.09
   0  -8   3   20.12    1.08
   0  -8  -3   21.45    2.29
   0  -8  -3   20.04    1.58
   0   8   3   20.74    1.43
   0  -8  -4  326.74    9.91
   0  -8  -4  348.18    7.64
   0   8   4  332.42    6.89
   0  -8  -5    9.64    1.63
   0  -8  -5   11.18    1.33
   0   8   5   11.25    1.23
   0  -8  -6  625.21   15.83
   0  -8  -6  688.71   12.80
   0   8   6  674.74   11.84
   0  -8   7    1.98    0.29
   0  -8  -7    0.71    0.65
   0  -8  -7    3.15    0.86
   0  -8   7    2.51    0.34
   0   8   7    1.46    0.48
   0  -8  -8  153.36    7.96
   0  -8  -8  161.50    6.01
   0  -8   8  155.69    3.35
   0   8   8  157.57    5.46
   0  -8   9   75.22    2.46
   0   8   9   75.05    3.84
   0  -8  -9   77.84    4.25
   0  -8  -9   66.02    5.45
   0  -8 -10  811.46   16.31
   0   8  10  813.35   15.26
   0  -8  10  801.92   11.74
   0  -8 -10  799.94   20.98
   0  -8  11  207.90    5.12
   0   8  11  211.15    7.15
   0  -8  12  200.92    5.35
   0  -8  13  312.34    7.30
   0  -8  14   52.07    2.93
   0  -8  15   50.87    3.03
   0  -9   0    1.03    0.36
   0  -9   0    1.39    0.63
   0   9   1   -0.30    0.29
   0  -9  -1    0.30    0.29
   0  -9   1    0.30    0.21
   0  -9  -1   -0.12    0.49
   0  -9   1    0.49    0.54
   0   9   2    0.12    0.23
   0  -9  -2   -0.35    0.69
   0  -9   2    0.46    0.33
   0  -9  -2    0.06    0.28
   0  -9   3    0.45    0.16
   0  -9  -3   -0.74    0.94
   0  -9   3    0.32    0.23
   0  -9  -3   -0.05    0.32
   0   9   3   -0.38    0.39
   0  -9  -4   -0.34    0.70
   0  -9  -4    0.53    0.45
   0   9   4    0.34    0.32
   0  -9  -5    0.56    0.71
   0  -9  -5    0.94    0.65
   0   9   5    0.63    0.44
   0  -9  -6    0.60    0.74
   0  -9  -6   -0.24    0.53
   0   9   6    0.40    0.44
   0  -9  -7   -0.10    0.75
   0  -9  -7    1.60    0.76
   0   9   7    0.43    0.35
   0  -9  -8   -0.37    1.01
   0  -9  -8   -0.37    0.67
   0   9   8   -0.08    0.46
   0  -9  -9   -0.79    1.19
   0  -9   9    0.11    0.16
   0  -9  -9    0.32    0.61
   0   9   9    0.32    0.46
   0  -9  10    0.20    0.20
   0   9  10   -0.98    0.75
   0  -9  11    0.43    0.31
   0  -9  12    0.43    0.29
   0  -9  13    0.12    0.29
   0 -10   0  140.49    5.19
   0 -10  -1  126.35    5.36
   0 -10   1  126.11    4.40
   0 -10   2   44.73    2.10
   0 -10  -2   40.53    3.24
   0  10   2   43.93    2.01
   0 -10  -3  784.94   17.23
   0  10   3  851.18   12.56
   0 -10  -4  173.42    7.66
   0  10   4  179.21    4.92
   0 -10  -5   22.17    2.82
   0  10   5   21.61    1.73
   0 -10  -6   14.34    2.39
   0  10   6   16.88    1.61
   0 -10  -7  383.12   13.30
   0  10   7  390.92    8.93
   0 -10  -8  195.06    9.56
   0  10   8  187.51    6.13
   0 -10  -9 1069.60   25.38
   0  10   9 1070.89   18.15
   0  10  10    9.01    1.42
   0 -10  11    5.48    0.49
   0 -11   0    0.79    0.70
   0 -11  -1   -0.91    0.48
   0 -11   1    0.07    0.36
   0 -11   2    0.34    0.34
   0 -11  -2    0.02    0.51
   0 -11  -3    0.07    0.66
   0  11   3    0.49    0.39
   0 -11  -4    0.46    0.84
   0  11   4    0.79    0.46
   0 -11  -5   -0.42    0.79
   0  11   5   -0.09    0.35
   0 -11  -6   -0.60    0.72
   0  11   6    0.87    0.53
   0 -11  -7   -0.40    0.82
   0  11   7    0.09    0.52
   0 -11  -8   -0.25    1.05
   0  11   8   -0.93    0.66
   0  11   9    1.33    0.67
   0 -12  -2    3.97    0.86
   0 -12  -3   65.17    4.48
   0 -12  -4  370.08   11.81
   0  12   4  382.63    7.80
   0 -12  -5    1.97    1.37
   0  12   5   -0.24    0.54
   0 -12  -6  418.50   13.77
   1   0  -2 3055.28   30.69
  -1   0  -2 3023.11   29.94
   1   0   2 2979.61   29.89
   1   0  -3    0.69    0.41
  -1   0   3    0.79    0.43
  -1   0  -3    0.98    0.25
   1   0   3    1.94    0.34
   1   0   4 2934.52   32.52
  -1   0  -4 2959.56   32.64
   1   0  -4 2908.72   34.34
  -1   0   4 2941.42   34.74
  -1   0  -5    3.34    0.57
   1   0   5    2.58    0.51
  -1   0   5    3.57    0.88
   1   0  -5    2.39    0.77
   1   0   6   17.14    1.23
  -1   0  -6   15.98    1.26
  -1   0   6   15.78    1.26
   1   0  -6   17.61    1.68
  -1   0   6   16.21    1.70
  -1   0  -6   15.20    1.46
  -1   0   7    1.61    0.55
  -1   0  -7    1.25    0.42
   1   0   7    1.76    0.50
  -1   0  -7    1.15    0.67
  -1   0   7    0.91    0.67
   1   0  -7    1.04    0.61
   1   0   8 1134.56   16.38
  -1   0  -8 1146.74   16.56
  -1   0   8 1151.71   16.73
  -1   0  -8 1100.34   18.83
  -1   0   8 1156.16   19.40
   1   0  -8 1176.39   19.21
  -1   0   9    0.54    0.35
   1   0   9    1.76    0.64
  -1   0  -9    0.42    0.40
  -1   0   9    0.36    0.65
   1   0  -9    0.73    0.70
  -1   0  -9    0.38    0.50
  -1   0 -10  257.46    6.81
   1   0  10  255.91    6.68
  -1   0  10  255.82    6.89
  -1   0  10  253.18    8.48
  -1   0 -10  252.21    8.40
   1   0 -10  254.67    8.41
   1   0  11    0.52    0.55
  -1   0 -11    0.97    0.63
  -1   0  11    0.67    0.41
  -1   0 -11   -0.22    0.56
  -1   0  11    1.92    1.08
   1   0 -11   -0.10    0.57
  -1   0  12 1085.04   18.00
   1   0  12 1074.23   17.60
  -1   0 -12 1044.07   17.79
   1   0 -12 1082.16   21.14
  -1   0 -12 1040.67   21.21
  -1   0  12 1052.59   20.49
  -1   0  13   -0.62    0.66
  -1   0 -13    0.94    0.66
   1   0  13    0.82    0.62
  -1   0  13   -0.16    0.95
   1   0 -13   -0.59    0.81
  -1   0 -13    1.74    1.08
  -1   0  14  547.70   12.50
   1   0  14  548.29   12.18
  -1   0  14  529.94   15.11
   1   0 -14  540.09   15.00
  -1   0 -14  543.49   15.39
   1   0  15    0.74    0.78
  -1   0  15   -0.42    0.67
   1   0 -15   -1.56    0.79
  -1   0 -15   -0.38    0.87
   1   0 -16  104.14    6.64
  -1   0 -16  109.70    7.04
  -1  -1   0    1.52    0.23
   1  -1  -1  281.60    3.40
  -1  -1  -1  265.49    2.85
  -1  -1   2 1815.00   20.23
   1   1  -2 1817.14   20.13
  -1   1   2 1864.56   21.83
   1  -1  -2 1815.10   21.55
  -1  -1  -2 1864.96   20.41
  -1   1  -2 1800.24   19.67
   1  -1   2 1835.15   19.63
   1   1   2 1827.83   20.33
   1   1  -3  104.69    2.57
  -1  -1   3   96.80    2.67
   1  -1   3  105.66    2.23
  -1  -1  -3  106.51    2.61
  -1   1  -3  104.74    2.23
   1   1   3  105.38    2.55
  -1   1   3  104.97    3.40
   1  -1  -3  100.78    3.30
   1   1  -4  153.30    3.70
  -1   1   4  135.48    3.43
  -1   1  -4  133.13    3.02
  -1  -1  -4  156.45    3.56
   1   1   4  147.54    3.40
   1  -1   4  130.27    2.96
  -1   1   4  143.55    4.46
   1  -1  -4  139.61    4.30
  -1  -1   4  156.64    4.04
   1   1  -5 2630.39   32.99
  -1   1   5 2830.78   32.26
   1  -1   5 2789.06   31.39
   1   1   5 2810.25   32.01
  -1  -1  -5 2809.23   32.23
  -1   1  -5 2826.05   31.48
  -1  -1   5 2814.26   33.79
  -1   1  -5 2813.76   32.94
   1  -1  -5 2757.80   34.63
  -1   1   5 2802.64   34.92
  -1   1   6   -0.10    0.35
   1   1   6    0.68    0.35
   1  -1   6    1.13    0.40
  -1   1  -6    0.32    0.34
  -1  -1  -6    0.47    0.38
   1  -1  -6    0.67    0.76
  -1   1  -6    1.46    0.57
  -1  -1   6    0.43    0.72
  -1   1   6    1.42    0.75
  -1  -1  -6    1.60    0.66
   1   1  -6    0.03    0.38
   1   1  -7  119.71    4.49
  -1   1  -7  124.28    3.73
  -1   1   7  126.58    4.04
   1   1   7  123.39    3.88
  -1  -1  -7  123.25    3.97
  -1  -1   7  125.00    3.86
   1  -1   7  120.47    3.60
  -1   1  -7  122.93    4.55
  -1  -1  -7  124.09    4.86
  -1   1   7  129.17    5.12
   1  -1  -7  120.47    5.09
  -1  -1   7  122.17    4.78
  -1   1  -8    0.63    0.41
  -1   1   8    0.44    0.37
   1   1   8   -0.14    0.33
  -1  -1   8    0.74    0.45
   1  -1   8    0.92    0.37
  -1  -1  -8    0.45    0.44
  -1   1  -8   -0.33    0.57
  -1   1   8    1.17    0.77
  -1  -1  -8    0.81    0.65
   1   1  -8    0.40    0.50
   1  -1  -8    1.13    0.81
  -1  -1   8    1.05    0.82
  -1  -1  -9   39.52    2.45
   1  -1   9   34.83    2.16
  -1   1   9   39.60    2.51
   1   1   9   39.42    2.41
  -1   1  -9   38.39    2.28
  -1  -1   9   39.49    2.39
  -1   1  -9   39.46    2.94
  -1  -1   9   35.35    2.87
  -1  -1  -9   38.79    3.06
  -1   1   9   34.12    2.96
   1   1  -9   31.47    2.72
   1  -1  -9   38.59    3.20
   1   1  10   40.88    2.58
  -1  -1 -10   44.01    2.72
  -1  -1  10   38.69    2.50
  -1   1  10   32.49    2.36
   1  -1  10   35.78    2.30
  -1   1 -10   35.66    2.34
  -1   1  10   35.00    3.03
   1  -1 -10   31.82    3.01
  -1   1 -10   34.41    2.96
   1   1 -10   37.44    3.04
  -1  -1  10   41.44    3.30
  -1  -1 -10   40.96    3.34
  -1  -1 -11  136.77    5.16
  -1   1  11  131.70    5.09
  -1  -1  11  137.39    5.08
   1   1  11  136.33    5.01
  -1   1 -11  145.00    5.07
   1  -1  11  131.95    4.79
   1   1 -11  141.25    6.13
  -1  -1 -11  139.76    6.67
  -1  -1  11  125.23    6.06
   1  -1 -11  135.79    6.49
  -1   1 -11  138.47    6.37
  -1   1  11  132.86    6.29
  -1  -1 -12    4.27    1.01
   1  -1  12    6.22    1.13
  -1  -1  12    3.63    0.86
  -1   1  12    7.00    1.20
   1   1  12    3.76    0.92
   1   1 -12    4.66    1.28
  -1   1  12    6.56    1.52
  -1   1 -12    3.63    1.21
  -1  -1  12    4.54    1.35
   1  -1 -12    5.03    1.55
  -1  -1 -12    4.46    1.31
   1  -1  13   83.03    4.11
  -1   1  13   82.99    4.41
   1   1  13   87.29    4.29
  -1  -1 -13   74.48    4.12
  -1  -1  13   83.92    4.25
   1   1 -13   77.39    4.94
  -1   1 -13   81.56    5.31
  -1  -1 -13   66.30    5.12
  -1  -1  13   72.05    4.80
   1  -1 -13   79.95    5.43
   1   1 -14   64.19    4.67
  -1   1  14   62.38    3.88
   1  -1  14   67.88    3.84
   1   1  14   62.62    3.77
  -1  -1  14   66.74    3.94
  -1  -1 -14   59.67    3.86
  -1  -1  14   61.55    4.70
  -1  -1 -14   60.47    4.96
   1  -1 -14   59.27    4.79
  -1   1 -14   68.84    5.03
   1   1 -15   44.94    4.15
  -1  -1  15   44.42    3.43
   1  -1  15   43.90    3.22
  -1   1  15   41.50    3.25
   1   1  15   49.07    3.49
  -1  -1 -15   46.35    4.51
  -1   1 -15   45.90    4.27
   1  -1 -15   40.21    4.20
   1   1 -16  167.05    8.22
  -1   1 -16  168.71    8.56
  -1  -1  16  162.74    6.75
   1  -1  16  171.35    6.70
   1   2   0    0.57    0.17
  -1  -2   0    1.18    0.26
   1  -2  -1  664.12    9.30
  -1   2   1  698.29    9.49
  -1   2   1  663.40    8.25
   1   2   1  674.04    8.44
  -1  -2  -1  690.56    8.50
  -1   2   2 1289.52   16.53
   1  -2  -2 1277.96   16.44
  -1  -2  -2 1253.65   14.90
  -1   2   2 1248.26   14.81
   1   2   2 1227.53   14.81
  -1  -2   3   94.30    2.31
   1   2  -3   94.36    2.12
  -1  -2  -3   96.72    2.60
   1  -2   3   79.31    1.75
  -1   2   3   79.30    2.39
   1   2   3   93.66    2.48
  -1   2  -3   79.94    1.78
   1  -2  -3   79.24    3.12
  -1   2  -3   86.70    2.03
  -1   2   3   83.10    3.14
  -1  -2   4  403.39    6.84
   1   2  -4  363.57    6.06
  -1  -2  -4  415.74    6.90
   1  -2   4  381.42    5.67
  -1   2  -4  385.13    5.71
   1   2   4  400.65    6.64
  -1   2   4  378.69    6.62
  -1   2  -4  401.66    6.45
  -1   2   4  413.01    8.40
   1  -2  -4  377.18    8.27
   1   2  -5  703.95   10.30
   1   2   5  686.36   10.47
  -1   2  -5  714.45    9.64
   1  -2   5  688.13    9.49
  -1   2   5  695.32   10.63
  -1  -2  -5  712.74   10.79
  -1   2   5  728.72   12.82
  -1   2  -5  705.07   10.67
   1  -2  -5  661.37   12.65
  -1  -2   5  689.28   11.08
   1   2  -6   62.07    2.63
  -1   2  -6   53.82    2.11
  -1   2   6   54.86    2.50
   1   2   6   61.20    2.56
   1  -2   6   54.13    2.06
  -1  -2  -6   65.30    2.74
  -1   2   6   51.64    3.25
  -1  -2   6   60.79    3.05
   1  -2  -6   54.09    3.34
  -1   2  -6   53.84    2.61
   1   2  -7  636.82   11.41
   1   2   7  675.23   11.26
   1  -2   7  703.28   10.52
  -1  -2  -7  705.42   11.72
  -1   2   7  707.04   11.67
  -1   2  -7  717.74   10.71
  -1  -2  -7  686.26   13.73
  -1  -2   7  673.58   12.58
  -1   2   7  696.78   13.88
  -1   2  -7  700.75   12.32
   1  -2  -7  714.19   14.20
   1   2  -8 1668.74   24.09
  -1   2   8 1776.15   23.79
   1   2   8 1733.79   23.38
  -1  -2   8 1772.50   23.07
  -1  -2  -8 1775.20   23.79
   1  -2   8 1809.38   22.53
  -1   2  -8 1807.79   22.75
  -1  -2   8 1708.79   25.27
  -1  -2  -8 1755.15   26.73
  -1   2   8 1800.17   26.92
   1  -2  -8 1788.15   27.34
  -1   2  -8 1793.30   25.14
   1   2  -9 1056.91   17.54
   1  -2   9 1002.87   15.12
   1   2   9 1044.62   16.16
  -1  -2   9 1061.61   15.86
  -1   2   9 1037.66   16.45
  -1  -2  -9 1048.20   16.53
   1  -2  -9  996.28   19.49
  -1  -2  -9 1032.21   19.30
  -1   2   9  978.64   18.67
  -1   2  -9 1021.05   17.64
  -1  -2   9 1022.47   18.08
   1   2 -10   35.00    2.76
  -1  -2  10   34.61    2.30
  -1  -2 -10   32.92    2.41
   1  -2  10   30.00    2.08
   1   2  10   35.11    2.41
  -1   2  10   31.22    2.37
  -1   2 -10   29.97    2.67
  -1  -2  10   28.93    2.77
  -1  -2 -10   29.76    2.98
  -1   2  10   32.81    3.07
   1  -2 -10   29.96    3.00
   1   2 -11 1921.45   28.96
  -1  -2 -11 1898.87   27.27
   1   2  11 1913.68   26.90
  -1  -2  11 1936.62   26.57
  -1   2  11 1924.33   27.40
   1  -2  11 1917.94   26.00
  -1  -2 -11 1941.89   31.63
  -1   2  11 2004.92   31.66
  -1   2 -11 1976.02   29.77
   1  -2 -11 1983.88   31.71
  -1  -2  11 1916.00   29.80
  -1  -2  12    0.22    0.38
  -1   2  12   -0.06    0.39
   1  -2  12    0.05    0.52
  -1  -2 -12    0.22    0.55
   1   2  12    0.34    0.52
  -1  -2  12   -0.68    0.74
   1   2 -12    0.12    0.78
   1  -2 -12    1.24    0.98
  -1   2 -12    0.28    0.69
  -1  -2 -12   -0.25    0.74
   1   2 -13   43.00    3.53
  -1  -2  13   38.72    2.80
  -1  -2 -13   39.70    3.03
   1   2  13   37.43    2.82
  -1   2  13   34.78    2.88
   1  -2  13   35.60    2.60
  -1   2 -13   33.47    3.31
   1  -2 -13   32.13    3.61
  -1  -2  13   37.96    3.51
  -1  -2 -13   38.23    3.78
   1   2 -14  297.14    9.95
   1   2  14  307.29    8.78
   1  -2  14  286.52    8.17
  -1   2  14  293.03    8.82
  -1  -2 -14  278.02    8.74
  -1  -2  14  299.85    8.63
   1  -2 -14  286.58   11.11
  -1  -2  14  280.84   10.11
  -1  -2 -14  279.03   11.37
  -1   2 -14  273.95   10.06
   1   2 -15  441.89   12.82
  -1  -2  15  421.57   10.92
   1  -2  15  410.55   10.45
  -1  -2 -15  425.21   11.45
  -1  -2  15  416.89   13.18
  -1  -2 -15  411.75   14.27
  -1   2 -15  402.59   12.82
   1   2 -16   56.27    4.59
   1  -2  16   62.99    3.97
  -1  -2  16   56.74    3.86
  -1   2 -16   60.52    4.96
  -1   2 -17  245.55   10.49
   1   2 -17  243.89   10.04
   1  -3   0    0.03    0.23
   1   3   0    0.22    0.17
  -1  -3   0    0.16    0.17
  -1  -3   1    0.36    0.19
   1  -3  -1    0.33    0.31
  -1   3   1    0.38    0.32
  -1   3   1    0.20    0.17
   1   3   1   -0.19    0.22
  -1  -3  -1    0.13    0.21
   1  -3  -2   66.29    2.76
  -1   3   2   69.06    2.70
  -1   3   2   69.44    2.07
  -1  -3  -2   94.31    2.50
   1   3   2   78.35    2.28
  -1  -3   3   48.34    1.53
   1  -3  -3   45.66    2.58
  -1   3   3   48.62    2.50
  -1   3   3   46.73    1.86
  -1  -3  -3   48.18    1.93
   1   3   3   51.76    1.91
  -1  -3   4  120.06    2.97
   1  -3   4  107.45    2.27
  -1   3   4  107.84    3.19
  -1  -3  -4  127.36    3.50
   1   3   4  123.65    3.29
  -1   3   4  104.37    4.06
  -1   3  -4  106.59    2.45
   1  -3  -4  101.87    4.25
   1   3  -5  498.43    7.53
  -1  -3   5  518.78    8.63
  -1   3   5  509.38    8.80
  -1  -3  -5  521.16    8.93
   1  -3   5  507.83    7.24
   1   3   5  514.68    8.63
  -1   3   5  507.03   10.55
   1  -3  -5  512.84   10.93
  -1   3  -5  515.29    7.96
   1   3  -6  216.12    4.79
   1  -3   6  223.35    4.45
  -1  -3  -6  228.11    5.62
  -1   3   6  220.80    5.57
   1   3   6  226.01    5.41
  -1   3   6  218.44    6.95
   1  -3  -6  215.30    7.21
  -1  -3   6  231.11    5.75
  -1   3  -6  230.36    5.25
   1   3  -7  424.10    7.89
   1  -3   7  427.74    7.32
  -1  -3  -7  438.03    8.78
  -1   3   7  425.89    8.64
   1   3   7  423.59    8.41
   1  -3  -7  420.70   10.92
  -1  -3  -7  431.05   10.78
  -1   3  -7  441.06    8.55
  -1   3   7  416.09   10.77
  -1  -3   7  420.35    9.02
   1   3  -8   23.12    1.76
  -1  -3  -8   21.37    1.85
  -1  -3   8   21.41    1.60
   1  -3   8   20.91    1.48
   1   3   8   21.65    1.78
  -1   3   8   17.48    1.65
   1  -3  -8   20.52    2.37
  -1   3  -8   19.35    1.73
  -1   3   8   12.71    2.31
  -1  -3  -8   20.69    2.25
  -1  -3   8   20.13    1.98
   1   3  -9  161.74    5.19
   1  -3   9  157.25    4.51
  -1  -3  -9  167.16    5.51
   1   3   9  160.54    5.20
  -1   3   9  150.48    5.25
  -1  -3   9  160.25    4.85
   1  -3  -9  159.84    6.97
  -1  -3  -9  146.18    6.62
  -1   3  -9  152.83    5.42
  -1  -3   9  161.50    5.96
   1   3 -10  257.80    7.16
   1  -3  10  252.27    6.27
  -1  -3 -10  254.96    7.28
   1   3  10  256.97    7.03
  -1   3  10  258.78    7.22
  -1  -3  10  249.16    6.57
  -1  -3 -10  252.82    9.23
  -1   3 -10  251.74    7.57
   1  -3 -10  253.21    9.26
  -1  -3  10  250.94    8.01
   1   3 -11  282.03    8.02
  -1  -3 -11  272.76    7.84
   1   3  11  288.22    7.81
   1  -3  11  276.22    6.97
  -1  -3  11  273.54    7.22
  -1   3  11  287.84    8.02
  -1   3 -11  285.45    8.54
   1  -3 -11  277.33   10.22
  -1  -3 -11  275.08   10.06
  -1  -3  11  273.37    8.73
  -1  -3  12    1.85    0.58
   1   3  12    2.17    0.75
  -1  -3 -12    2.80    0.93
   1  -3  12    2.22    0.61
  -1   3  12    1.12    0.66
  -1  -3 -12    2.67    1.08
  -1  -3  12    1.86    1.03
   1   3 -12    1.43    0.71
  -1   3 -12    1.98    0.98
   1  -3 -12    1.05    0.69
   1   3 -13   45.29    3.40
  -1  -3 -13   39.91    3.15
   1   3  13   42.52    3.05
  -1   3  13   46.76    3.26
  -1  -3  13   44.01    2.99
   1  -3  13   43.04    2.86
  -1  -3 -13   42.53    4.29
  -1  -3  13   43.78    3.70
   1  -3 -13   41.11    4.15
  -1   3 -13   46.94    3.68
  -1   3  14    2.60    0.93
  -1  -3  14    3.71    1.01
   1  -3  14    2.52    0.74
   1   3  14    3.77    0.95
  -1  -3 -14    3.09    1.10
   1  -3 -14    1.78    1.15
  -1  -3 -14    3.02    1.26
  -1  -3  14    2.69    1.04
  -1   3 -14    0.79    0.60
   1   3 -14    2.66    0.87
   1  -3  15   12.09    1.70
  -1  -3  15   10.17    1.59
  -1  -3 -15    9.59    1.77
   1   3 -15   11.40    1.98
  -1   3 -15   10.62    1.92
  -1  -3  15   13.16    2.28
  -1  -3  16   12.80    1.90
   1  -3  16   15.62    1.99
  -1   3 -16   10.18    1.97
   1   3 -16   14.36    2.22
   1  -3  17    0.17    0.52
  -1   3 -17    2.02    1.21
   1   3 -17    0.61    0.86
  -1   3 -18   40.84    4.27
   1  -4   0   -0.05    0.28
   1   4   0    0.42    0.22
  -1   4   0    0.07    0.12
  -1  -4   0    0.36    0.24
   1  -4  -1   31.25    1.79
  -1   4   1   32.87    1.20
  -1  -4  -1   32.64    1.39
  -1  -4   1   34.20    1.19
   1   4   1   32.14    1.34
  -1  -4   2 1516.03   16.82
   1  -4  -2 1439.10   20.15
  -1   4   2 1442.19   17.54
  -1  -4  -2 1485.04   18.06
   1   4   2 1476.73   17.79
  -1  -4   3   34.53    1.25
   1  -4  -3   42.83    2.61
  -1   4   3   41.76    1.77
   1  -4  -3   44.59    1.91
  -1  -4  -3   35.68    1.76
   1   4   3   36.80    1.70
  -1  -4   4  629.51    8.54
   1  -4  -4  598.79   12.00
   1  -4   4  601.92    7.34
  -1   4   4  584.70    9.46
  -1  -4  -4  624.25    9.91
   1  -4  -4  607.90    9.73
   1   4   4  624.39    9.62
  -1  -4   5  166.58    4.05
  -1   4  -5  172.92    2.94
  -1  -4  -5  162.99    4.62
   1   4   5  161.92    4.37
   1  -4   5  170.56    3.20
  -1   4   5  170.34    4.53
   1  -4  -5  179.65    4.74
   1  -4  -5  171.24    6.18
  -1   4  -6  280.07    5.07
   1   4  -6  293.74    5.18
  -1  -4  -6  302.18    6.85
   1   4   6  291.90    6.47
   1  -4   6  288.63    5.04
  -1   4   6  283.68    6.53
  -1  -4   6  295.36    6.43
   1  -4  -6  287.49    8.64
  -1   4  -7 1448.88   18.39
   1   4  -7 1405.58   17.81
  -1   4   7 1398.90   19.86
  -1  -4  -7 1411.92   20.22
   1  -4   7 1408.33   17.57
   1   4   7 1430.01   19.72
  -1  -4  -7 1338.73   23.41
   1  -4  -7 1381.55   23.78
  -1  -4   7 1416.42   20.00
   1   4  -8 1810.94   22.76
  -1   4  -8 1776.61   23.48
  -1  -4  -8 1826.33   25.07
  -1   4   8 1821.76   24.77
   1   4   8 1811.74   24.47
   1  -4   8 1830.20   22.41
   1  -4  -8 1823.72   29.35
  -1  -4   8 1813.56   25.34
  -1  -4  -8 1803.17   28.59
  -1   4  -9   23.62    1.89
   1   4  -9   23.23    1.72
   1  -4   9   23.39    1.62
  -1  -4   9   21.57    1.70
   1   4   9   21.12    1.84
  -1   4   9   25.71    2.12
  -1  -4  -9   24.94    2.16
  -1  -4  -9   23.56    2.70
   1  -4  -9   25.13    2.83
  -1  -4   9   24.68    2.23
   1   4 -10   32.19    2.19
  -1   4 -10   29.09    2.24
  -1  -4 -10   29.30    2.47
   1   4  10   30.41    2.32
  -1   4  10   27.93    2.26
  -1  -4  10   30.54    2.13
   1  -4  10   32.38    2.04
  -1  -4  10   33.47    2.74
   1  -4 -10   30.55    3.40
  -1  -4 -10   31.60    3.29
   1   4 -11    3.81    0.81
  -1   4  11    3.10    0.88
   1  -4  11    3.70    0.76
   1   4  11    4.87    1.06
  -1  -4 -11    4.54    1.04
  -1  -4  11    4.90    0.92
  -1  -4 -11    5.48    1.50
  -1   4 -11    4.59    1.01
   1  -4 -11    4.09    1.27
  -1  -4  11    2.62    0.93
   1   4 -12  295.40    8.07
  -1   4 -12  287.92    8.49
   1  -4  12  295.04    7.40
  -1  -4 -12  273.33    8.40
   1   4  12  287.40    8.21
  -1  -4  12  282.21    7.62
  -1   4  12  292.03    8.44
  -1  -4 -12  276.28   10.96
  -1  -4  12  279.37    9.06
   1  -4 -12  290.07   11.12
   1   4 -13   63.94    3.81
  -1   4 -13   65.64    4.05
  -1  -4 -13   66.24    4.16
  -1  -4  13   66.35    3.67
   1  -4  13   71.54    3.60
   1   4  13   70.67    4.04
  -1   4  13   71.45    4.11
   1  -4 -13   68.87    5.41
  -1  -4  13   71.66    4.61
  -1  -4 -13   63.93    5.27
   1   4 -14  822.59   16.21
  -1   4 -14  818.98   17.09
  -1  -4 -14  789.47   16.71
  -1  -4  14  822.32   15.57
   1  -4  14  823.89   15.04
  -1  -4  14  818.76   17.96
   1   4 -15   63.86    4.14
  -1   4 -15   61.44    4.32
  -1  -4 -15   59.78    4.20
  -1  -4  15   61.91    3.84
   1  -4  15   61.65    3.69
  -1  -4  15   68.17    4.93
  -1   4 -16  139.20    6.81
   1   4 -16  131.11    6.27
   1  -4  16  135.12    5.71
  -1  -4 -16  131.92    6.51
  -1  -4  16  135.41    5.97
   1   4 -17  239.32    8.84
  -1   4 -17  234.13    9.30
  -1  -4  17  237.11    8.30
   1  -4  17  230.35    7.88
   1   4 -18  311.84   10.61
  -1   4 -18  316.91   11.28
   1  -5   0    0.34    0.34
   1   5   0   -0.25    0.23
  -1   5   0    0.26    0.13
  -1  -5   0    0.08    0.23
   1  -5  -1  118.30    3.92
   1  -5   1  125.15    2.81
  -1  -5  -1  121.45    3.06
  -1   5   1  123.87    2.65
  -1  -5   1  121.82    2.66
   1   5   1  118.62    2.92
   1  -5  -2   32.70    2.28
  -1  -5  -2   46.13    1.95
  -1   5   2   35.22    1.54
  -1  -5   2   44.51    1.44
   1   5   2   46.02    1.83
   1  -5  -3  136.43    5.09
  -1  -5  -3  145.90    3.95
  -1   5   3  138.52    3.57
   1  -5  -3  142.01    3.76
   1   5   3  143.48    3.70
  -1  -5   4   13.67    0.88
   1  -5  -4   11.98    1.62
  -1   5   4   14.33    1.18
  -1  -5  -4   12.62    1.21
   1  -5  -4   16.11    1.34
   1   5   4   13.52    1.16
  -1  -5   5   21.49    1.28
   1  -5  -5   28.22    2.59
   1  -5  -5   28.91    1.90
   1  -5   5   26.76    0.97
  -1  -5  -5   20.90    1.67
  -1   5   5   27.31    1.76
   1   5   5   22.30    1.59
  -1  -5   6   45.17    2.21
  -1  -5  -6   37.35    3.30
   1  -5  -6   40.91    3.25
  -1   5   6   44.84    2.42
   1  -5   6   44.59    1.55
  -1  -5  -6   42.12    2.52
   1   5   6   42.12    2.32
  -1   5  -7    0.16    0.18
   1  -5  -7   -0.20    0.77
  -1  -5   7    0.54    0.40
  -1  -5  -7   -0.15    0.55
  -1   5   7    0.11    0.30
  -1  -5  -7    0.35    0.48
   1  -5   7    0.57    0.26
   1   5   7    0.35    0.36
   1   5  -8  120.17    3.33
  -1   5  -8  125.39    3.31
   1  -5   8  127.50    3.48
   1   5   8  122.80    4.50
  -1   5   8  127.23    4.65
  -1  -5  -8  122.95    4.74
   1  -5  -8  133.27    6.54
  -1  -5   8  125.70    4.61
  -1  -5  -8  132.80    6.42
  -1   5  -9   48.38    2.28
   1   5  -9   47.48    2.21
   1   5   9   51.01    2.96
  -1   5   9   50.09    3.02
  -1  -5   9   45.32    2.40
  -1  -5  -9   45.99    2.99
   1  -5   9   50.04    2.28
   1  -5  -9   45.24    3.90
  -1  -5  -9   47.62    4.07
  -1  -5   9   46.00    2.97
  -1   5 -10   63.25    2.91
   1   5 -10   67.07    2.87
  -1   5  10   68.20    3.67
  -1  -5 -10   62.93    3.71
   1   5  10   68.28    3.58
   1  -5  10   68.84    2.91
  -1  -5  10   63.36    3.04
  -1  -5  10   63.60    3.68
   1  -5 -10   66.34    5.00
  -1  -5 -10   64.23    4.89
   1   5 -11   25.55    1.91
  -1   5 -11   27.95    2.10
   1  -5 -11   31.89    3.68
  -1  -5 -11   23.79    3.18
  -1  -5  11   28.21    2.60
  -1   5  11   29.01    2.47
   1  -5  11   26.55    1.91
   1   5  11   29.67    2.45
  -1  -5  11   26.72    2.07
  -1  -5 -11   21.97    2.28
   1   5 -12    0.07    0.37
   1  -5 -12    1.42    1.00
  -1   5 -12    0.20    0.45
  -1  -5 -12    0.15    0.83
  -1  -5  12   -0.16    0.62
  -1   5  12    0.66    0.52
  -1  -5  12    1.81    0.68
   1  -5  12    0.47    0.37
  -1  -5 -12    0.60    0.76
   1   5  12    0.60    0.44
   1   5 -13    6.36    1.12
  -1   5 -13    6.63    1.15
  -1  -5  13    7.22    1.42
   1  -5 -13    6.85    1.92
  -1  -5  13    7.51    1.22
  -1   5  13    7.11    1.36
  -1  -5 -13    7.84    1.52
   1  -5  13    6.91    1.16
   1   5  13    7.36    1.31
   1   5 -14   11.23    1.54
   1  -5  14   16.86    1.80
  -1  -5 -14   12.87    2.01
  -1  -5  14   13.44    1.78
  -1   5 -14   17.27    2.03
  -1  -5  14   11.94    1.92
   1   5 -15    7.47    1.34
   1  -5  15    7.22    1.23
  -1  -5 -15    6.61    1.56
  -1  -5  15    6.87    1.29
  -1   5 -15    8.57    1.60
   1   5 -16    2.08    0.81
   1  -5  16    1.43    0.65
  -1  -5  16    1.43    0.74
  -1  -5 -16    1.71    1.08
  -1   5 -16    1.33    0.85
  -1   5 -17   26.18    2.89
   1   5 -17   27.39    2.74
   1  -5  17   24.41    2.42
  -1  -5  17   24.88    2.54
  -1   5 -18    2.06    0.84
   1   5 -18    2.24    1.01
  -1   5 -19   54.14    4.36
   1  -6   0   -0.15    0.31
  -1  -6   0    0.57    0.30
  -1   6   0   -0.01    0.16
   1  -6  -1  169.91    5.08
   1  -6   1  160.75    3.77
  -1  -6  -1  170.25    3.99
   1   6   1  169.46    3.79
  -1   6   1  174.08    3.38
  -1  -6   1  171.56    3.48
   1  -6  -2   35.99    2.46
  -1   6   2   35.47    1.57
  -1  -6  -2   30.88    1.71
   1   6   2   31.80    1.61
  -1  -6   2   33.24    1.31
   1  -6  -3  269.62    7.77
  -1  -6  -3  284.34    6.11
  -1   6   3  264.97    5.45
   1   6   3  285.34    5.77
  -1  -6   3  290.13    4.62
  -1  -6   4    5.30    0.53
  -1  -6   4    4.73    0.51
   1  -6  -4    6.09    1.32
  -1  -6  -4    5.86    0.88
  -1   6   4    5.58    0.74
   1   6   4    4.10    0.68
  -1  -6   5 1708.31   20.05
   1  -6  -5 1597.70   26.14
  -1   6   5 1628.61   21.76
  -1  -6  -5 1680.36   22.59
   1   6   5 1650.45   21.83
  -1  -6   6  170.83    4.36
   1  -6  -6  175.30    7.22
  -1  -6  -6  163.08    7.14
   1  -6   6  174.64    3.00
  -1  -6  -6  166.56    5.29
  -1   6   6  171.25    5.03
   1   6   6  167.88    4.94
  -1  -6   7  475.94    8.94
   1  -6  -7  475.78   13.05
  -1  -6  -7  468.71   12.69
   1  -6   7  481.04    7.00
  -1   6   7  483.51    9.72
  -1  -6  -7  473.44   10.14
   1   6   7  471.45    9.54
   1   6   8  249.77    6.76
   1  -6   8  243.91    4.85
  -1   6   8  244.98    6.82
  -1  -6  -8  250.94    7.26
   1  -6  -8  246.92    9.42
  -1  -6  -8  256.85    9.48
  -1  -6   8  261.51    6.65
  -1   6  -9  322.50    5.55
  -1  -6   9  328.74    8.17
  -1  -6  -9  341.39   11.56
   1  -6  -9  330.32   11.48
  -1  -6  -9  343.11    9.02
   1   6   9  339.59    8.32
  -1   6   9  335.71    8.49
   1  -6   9  332.02    6.35
  -1  -6   9  328.19    7.02
  -1   6 -10    0.64    0.32
   1  -6 -10    0.27    0.65
  -1  -6 -10    0.09    0.77
  -1  -6  10    0.40    0.53
  -1  -6 -10    1.09    0.81
   1  -6  10    1.62    0.47
  -1   6  10    0.72    0.52
  -1  -6  10    0.58    0.36
   1   6  10    1.02    0.55
   1   6 -11  473.70    8.74
  -1   6 -11  476.99    8.60
   1  -6 -11  470.81   14.87
  -1  -6 -11  469.20   14.95
  -1  -6  11  491.27   11.38
  -1  -6  11  465.94    9.58
  -1   6  11  475.28   11.21
   1   6  11  484.75   11.09
   1  -6  11  466.99    8.93
  -1  -6 -11  470.71   11.60
   1   6 -12    2.69    0.71
  -1   6 -12    2.63    0.69
  -1  -6  12    1.03    0.70
  -1  -6 -12   -0.12    0.94
   1  -6 -12    3.98    1.55
  -1   6  12    1.64    0.66
  -1  -6 -12    0.63    0.59
  -1  -6  12    1.15    0.48
   1  -6  12    1.47    0.53
   1   6  12    2.60    0.85
  -1   6 -13  214.55    6.15
   1   6 -13  221.23    6.16
  -1  -6 -13  220.34    8.11
   1  -6  13  226.72    6.34
  -1  -6  13  208.89    6.53
  -1  -6  13  224.88    7.82
   1   6 -14   23.94    2.11
  -1   6 -14   25.30    2.20
  -1  -6  14   28.13    2.44
   1  -6  14   26.30    2.18
  -1  -6 -14   30.17    3.04
  -1  -6  14   32.72    3.14
  -1   6 -15  433.26   10.28
   1   6 -15  424.09   10.02
  -1  -6 -15  447.34   12.67
   1  -6  15  425.33    9.99
  -1  -6  15  434.15   10.61
  -1   6 -16    1.08    0.79
   1   6 -16    0.08    0.59
   1  -6  16    0.47    0.60
  -1  -6  16    0.50    0.58
   1   6 -17  601.83   13.30
  -1   6 -17  604.36   13.68
  -1  -6  17  604.85   13.71
   1  -6  17  621.63   13.41
   1   6 -18   81.89    4.59
  -1   6 -18   85.38    4.91
   1  -6  18   84.28    4.66
  -1   6 -19    1.09    0.74
  -1   7   0   -0.06    0.16
   1  -7   0    0.07    0.35
  -1  -7   0    0.05    0.23
   1  -7   1  192.53    4.37
   1  -7  -1  185.75    5.66
  -1  -7  -1  184.36    4.42
  -1  -7   1  183.72    3.86
   1   7   1  185.85    4.22
  -1   7   1  192.80    3.69
   1  -7  -2  268.34    7.49
  -1  -7  -2  259.61    5.72
   1   7   2  245.72    5.24
  -1   7   2  272.34    5.05
  -1  -7   2  255.60    4.51
   1  -7  -3    0.99    0.69
  -1  -7  -3    1.33    0.59
  -1   7   3    1.65    0.41
   1   7   3    2.29    0.51
  -1  -7   3    1.64    0.32
  -1  -7   4   20.07    1.06
   1  -7  -4   21.86    2.37
  -1  -7  -4   21.64    1.73
  -1   7   4   18.47    1.39
  -1  -7   4   21.91    1.04
   1   7   4   20.90    1.52
  -1  -7   5   30.03    1.44
  -1  -7  -5   25.20    2.81
   1  -7  -5   25.88    2.69
  -1  -7  -5   29.75    2.13
  -1   7   5   23.06    1.70
  -1  -7   5   29.79    1.27
   1   7   5   30.11    1.96
  -1  -7  -6   -0.35    0.60
   1  -7  -6   -0.06    0.72
  -1  -7   6    0.83    0.36
  -1  -7  -6    1.06    0.53
   1   7   6    0.39    0.37
  -1   7   6   -0.35    0.44
  -1  -7  -7    0.76    0.77
  -1  -7   7    0.70    0.38
   1  -7  -7   -0.05    0.88
  -1  -7  -7    0.97    0.55
   1  -7   7    0.50    0.18
   1   7   7    0.89    0.56
  -1   7   7    0.42    0.45
  -1  -7   8    9.41    1.19
  -1  -7  -8   10.83    2.03
   1  -7  -8   13.10    2.26
  -1  -7   8    9.75    0.99
  -1  -7  -8    9.71    1.50
  -1   7   8   13.21    1.57
   1  -7   8   14.91    0.91
   1   7   8   10.34    1.37
   1  -7  -9   39.17    4.01
  -1  -7  -9   39.37    4.00
  -1  -7   9   34.16    2.26
  -1   7   9   34.37    2.59
  -1  -7  -9   36.05    2.84
  -1  -7   9   38.36    2.08
   1  -7   9   37.49    1.69
   1   7   9   41.70    2.80
   1  -7 -10   37.06    4.05
  -1  -7  10   43.28    2.71
  -1  -7 -10   43.99    4.46
  -1   7  10   38.97    2.87
  -1  -7  10   41.56    2.30
   1  -7  10   39.65    1.94
  -1  -7 -10   39.64    3.13
   1   7  10   43.81    2.98
  -1  -7 -11   98.58    5.17
  -1  -7  11   97.72    3.86
   1  -7  11  139.45    4.20
  -1   7  11   94.09    4.69
   1   7  11  104.95    4.86
  -1  -7 -11   99.22    6.81
  -1  -7  11   99.81    4.50
   1  -7 -11   94.97    6.65
  -1   7 -12    3.97    0.68
   1  -7  12    2.56    0.63
  -1   7  12    4.26    1.12
  -1  -7  12    2.66    0.71
  -1  -7 -12    2.86    1.14
  -1  -7  12    3.50    0.96
  -1   7 -13    0.78    0.41
  -1  -7 -13    0.63    0.81
  -1  -7  13    0.75    0.60
   1  -7  13    0.29    0.32
  -1   7 -14   10.56    1.23
  -1  -7  14   12.46    1.58
   1  -7  14    8.25    1.22
  -1  -7 -14   11.04    1.91
  -1   7 -15   20.02    1.76
   1   7 -15   25.74    2.08
  -1  -7 -15   27.45    3.19
  -1  -7  15   24.57    2.27
   1  -7  15   21.23    1.99
  -1   7 -16   37.92    2.62
   1   7 -16   34.04    2.59
  -1  -7  16   36.25    2.86
   1  -7  16   40.78    2.89
   1   7 -17    1.66    0.87
  -1   7 -17    1.48    0.80
  -1  -7  17    1.48    0.70
   1  -7  17    2.27    0.84
   1  -8   0    0.86    0.46
  -1  -8   0   -0.34    0.27
   1   8   1   61.64    2.30
   1  -8   1   55.30    2.32
   1  -8  -1   54.82    3.10
  -1  -8  -1   63.03    2.53
  -1  -8   1   65.07    2.20
  -1   8   1   58.34    1.89
   1  -8   2  281.29    4.46
   1  -8  -2  274.93    7.97
  -1  -8   2  297.12    5.07
  -1  -8  -2  303.46    6.50
  -1   8   2  299.09    5.46
   1   8   2  292.04    5.95
  -1  -8  -3   34.88    3.13
   1  -8  -3   35.32    2.93
  -1  -8  -3   35.97    2.17
  -1  -8   3   36.87    1.40
  -1   8   3   33.80    1.76
   1   8   3   38.86    2.04
  -1  -8   4  577.67    8.07
   1  -8  -4  571.69   13.63
  -1  -8  -4  549.02   13.52
  -1  -8  -4  601.29   11.01
  -1  -8   4  593.69    7.89
   1   8   4  584.07   10.08
  -1   8   4  586.65    9.81
  -1  -8   5   49.70    1.82
  -1  -8  -5   48.12    3.80
   1  -8  -5   44.78    3.66
  -1  -8  -5   49.33    2.86
  -1   8   5   43.00    2.36
   1   8   5   45.19    2.48
  -1  -8   5   49.78    1.58
  -1  -8   6   96.51    2.90
   1  -8  -6   89.25    5.52
  -1  -8  -6   94.21    5.73
  -1  -8  -6   97.59    4.26
  -1   8   6   90.59    3.68
   1   8   6   92.90    3.76
  -1  -8   6   99.70    2.48
  -1  -8  -7   19.74    2.78
  -1  -8   7   21.81    1.46
   1  -8  -7   24.06    3.04
  -1  -8  -7   22.78    2.16
  -1   8   7   19.54    1.80
   1   8   7   19.46    1.79
   1  -8  -8  862.71   20.18
  -1  -8   8  879.42   12.86
  -1  -8  -8  865.61   20.29
  -1  -8   8  841.40   11.99
  -1   8   8  846.89   14.85
  -1  -8  -8  839.23   15.84
   1  -8   8  830.28    9.62
   1   8   8  844.25   14.82
   1  -8  -9   -0.02    1.06
  -1  -8   9   -1.00    0.52
  -1  -8  -9    0.61    0.77
  -1  -8   9    0.68    0.37
  -1  -8  -9    1.72    0.91
   1  -8   9    1.44    0.32
   1   8   9    0.77    0.54
  -1   8   9    1.14    0.61
  -1  -8  10   15.65    1.50
  -1  -8 -10   14.80    2.73
   1  -8 -10   20.13    3.06
   1  -8  10   19.55    1.16
  -1  -8 -10   13.43    1.95
  -1  -8  10   16.97    1.45
  -1   8  10   20.35    2.07
   1   8  10   16.81    1.89
  -1  -8  11   69.85    3.37
  -1  -8 -11   54.75    3.96
  -1   8  11   53.44    3.55
  -1  -8  11   56.60    2.74
   1  -8  11   57.13    2.31
   1   8  11   57.70    3.61
   1  -8  12   19.30    1.45
  -1  -8  12   18.52    1.68
  -1  -8 -12   18.93    2.42
  -1  -8  13   16.16    1.66
   1  -8  13   14.25    1.35
  -1  -8 -13   18.62    2.46
  -1  -8  14  133.42    4.99
   1  -8  14  130.10    4.46
  -1  -8 -14  142.21    7.05
   1  -8  15   31.00    2.25
  -1  -8  15   34.22    2.59
  -1  -8  16   48.41    3.22
   1  -9   0    0.45    0.41
  -1  -9   0    0.26    0.32
   1  -9   1   24.75    1.52
   1  -9  -1   23.27    2.09
  -1  -9  -1   17.58    2.11
  -1  -9   1   18.96    1.22
  -1  -9  -1   20.01    1.49
  -1   9   1   24.06    1.19
   1   9   2    8.48    0.92
   1  -9  -2    7.72    1.39
  -1  -9  -2    8.56    1.47
  -1  -9  -2    9.01    1.08
  -1  -9   2   10.06    0.80
  -1   9   2    7.61    0.77
   1  -9  -3   16.71    2.06
  -1  -9  -3   18.45    2.24
  -1  -9  -3   19.10    1.65
  -1  -9   3   18.88    0.99
  -1   9   3   18.10    1.31
   1   9   3   19.74    1.52
  -1  -9   4    4.77    0.55
   1  -9  -4    7.71    1.64
  -1  -9  -4    6.89    1.60
  -1  -9  -4    4.02    0.86
   1   9   4    4.06    0.72
  -1  -9   4    4.21    0.44
  -1   9   4    6.05    0.83
  -1  -9   5   25.47    1.22
   1  -9  -5   15.52    2.30
  -1  -9  -5   25.99    2.99
  -1  -9  -5   25.05    2.14
   1   9   5   24.50    1.90
  -1   9   5   18.40    1.57
  -1  -9   5   25.09    1.02
  -1  -9   6   73.41    2.21
  -1  -9  -6   65.27    4.91
   1  -9  -6   60.46    4.66
  -1  -9  -6   74.31    3.83
  -1  -9   6   71.91    1.83
  -1   9   6   67.21    3.18
   1   9   6   70.54    3.34
  -1  -9  -7   15.33    2.46
  -1  -9   7   18.08    1.04
   1  -9  -7   18.99    2.75
  -1  -9   7   19.59    1.08
  -1  -9  -7   18.12    2.01
  -1  -9   7   19.74    0.98
   1   9   7   18.85    1.78
  -1   9   7   20.26    1.86
  -1  -9  -8   87.08    6.20
   1  -9  -8   99.44    6.49
  -1  -9   8  103.91    2.61
  -1  -9   8   88.23    2.63
  -1  -9  -8   89.63    4.63
  -1   9   8   95.52    4.24
  -1  -9   8   88.91    2.41
   1   9   8   85.29    4.03
   1  -9  -9    2.21    1.27
  -1  -9  -9    2.69    1.28
  -1  -9  -9    6.07    1.34
  -1  -9   9    4.30    0.62
  -1   9   9    4.26    0.97
   1   9   9    6.83    1.22
   1  -9 -10  310.64   12.57
  -1  -9 -10  294.53    9.39
  -1   9  10  317.93    8.76
  -1  -9  10  294.68    6.16
   1  -9  10  300.58    4.34
   1   9  10  313.24    8.73
  -1  -9  11   22.06    1.61
  -1  -9 -11   23.69    2.69
  -1   9  11   25.18    2.51
   1  -9  11   26.39    1.23
  -1  -9  12    4.63    0.84
  -1  -9 -12    2.74    1.05
   1  -9  12    5.86    0.66
  -1  -9 -13   29.38    3.16
  -1  -9  13   32.55    2.19
   1  -9  13   32.27    1.78
  -1 -10   0   -0.07    0.31
  -1 -10   0    0.84    0.56
   1 -10   0    0.20    0.41
   1 -10   1  389.34    6.91
   1 -10  -1  367.92    9.03
  -1 -10   1  363.89    8.70
  -1 -10  -1  345.25    9.66
  -1 -10   1  388.36    6.69
  -1 -10  -1  395.89    7.67
   1  10   2   55.92    2.41
   1 -10  -2   44.98    3.23
  -1 -10  -2   44.70    3.45
  -1 -10   2   50.35    2.68
  -1 -10  -2   55.22    2.74
  -1 -10   2   56.47    1.91
  -1  10   2   53.43    2.04
   1 -10  -3  279.50    8.98
  -1 -10   3  274.21    6.17
  -1 -10  -3  278.01    9.53
  -1 -10  -3  298.35    7.27
  -1 -10   3  302.95    4.67
   1  10   3  304.07    6.62
  -1  10   3  296.13    6.01
  -1 -10   4   63.02    1.86
  -1 -10  -4   56.35    4.32
   1 -10  -4   61.36    4.30
  -1 -10   4   58.46    2.17
  -1 -10  -4   64.10    3.33
  -1  10   4   62.72    2.67
   1  10   4   60.60    2.87
   1 -10  -5  301.52   10.42
  -1 -10  -5  307.61   10.89
  -1 -10  -5  322.87    8.29
  -1  10   5  320.10    7.08
   1  10   5  310.19    7.36
  -1 -10  -6    0.36    0.76
   1 -10  -6   -0.23    0.89
  -1 -10  -6    0.49    0.56
   1  10   6    1.49    0.68
  -1  10   6   -0.48    0.46
   1 -10  -7  189.52    8.88
  -1 -10  -7  179.55    8.93
  -1 -10  -7  197.07    6.86
   1  10   7  185.52    5.94
  -1  10   7  191.28    5.89
  -1 -10  -8   54.12    5.05
   1 -10  -8   58.06    5.06
  -1 -10  -8   63.51    3.93
  -1 -10   8   59.24    1.60
  -1  10   8   55.50    3.24
   1  10   8   54.04    3.22
  -1 -10   8   58.15    1.46
   1 -10  -9  160.09    8.87
  -1 -10  -9  172.12    6.90
  -1 -10   9  177.03    3.52
  -1 -10   9  181.63    3.35
  -1  10   9  164.12    5.96
   1  10   9  183.93    6.34
  -1 -10 -10   27.58    2.90
  -1 -10  10   26.43    1.38
  -1 -10  10   27.69    1.26
  -1  10  10   26.62    2.44
  -1 -10 -11   81.26    5.03
  -1 -10 -12   65.70    4.78
  -1 -11   0    0.66    0.39
   1 -11   0   -0.03    0.40
  -1 -11   0   -0.74    0.76
   1 -11   1   14.35    0.98
  -1 -11   1   14.86    1.03
  -1 -11  -1   16.03    1.36
  -1 -11  -1   12.31    1.75
  -1 -11   1   14.04    1.60
   1 -11  -1   15.64    1.69
  -1  11   2    0.50    0.32
   1 -11  -2    0.63    0.60
  -1 -11  -2    0.53    0.63
  -1 -11   2    0.38    0.37
  -1 -11   2    0.62    0.27
  -1 -11  -2    0.77    0.44
   1  11   3    8.88    1.01
  -1 -11   3    8.93    0.70
  -1 -11   3    7.35    0.88
   1 -11  -3    9.08    1.61
  -1 -11  -3    9.92    1.91
  -1 -11  -3    9.41    1.25
  -1  11   3   10.47    1.00
  -1 -11  -4   22.43    2.88
   1 -11  -4   26.83    2.95
  -1 -11  -4   19.70    1.92
  -1  11   4   24.82    1.67
   1  11   4   19.97    1.67
   1 -11  -5   10.36    1.83
  -1 -11  -5   13.98    2.41
  -1 -11  -5   18.00    1.88
  -1  11   5   11.64    1.25
   1  11   5   16.51    1.60
  -1 -11  -6    5.00    1.65
   1 -11  -6    5.85    1.47
  -1 -11  -6    4.72    1.02
  -1  11   6    6.41    1.03
   1  11   6    5.49    0.98
   1 -11  -7   43.80    4.34
  -1 -11  -7   42.04    4.49
  -1 -11  -7   43.37    3.20
  -1  11   7   44.92    2.75
   1  11   7   40.43    2.68
   1 -11  -8    0.25    0.97
  -1 -11  -8    2.10    0.93
   1  11   8    0.50    0.57
  -1  11   8    1.26    0.75
  -1 -11  -9   13.27    2.01
   1  11   9   13.03    1.73
  -1  11   9   12.34    1.61
  -1 -11 -10    0.73    0.80
  -1 -12  -1  119.32    5.72
  -1 -12  -2  213.21    8.22
   1 -12  -3    0.15    0.53
  -1 -12  -3    0.00    0.89
   1  12   4   16.84    1.50
   1 -12  -4   18.59    2.42
  -1 -12  -4   17.87    2.66
  -1 -12  -4   16.92    1.73
   1 -12  -5  133.20    6.88
  -1 -12  -5  113.36    6.96
   1  12   5  130.79    4.63
   1 -12  -6    1.07    1.08
  -1 -12  -6    2.10    1.11
   1  12   6    0.48    0.49
   1  12   7   37.70    2.64
  -2   0  -1    0.65    0.23
   2   0   1    0.41    0.17
   2   0  -2  466.48    6.82
  -2   0   2  495.80    7.09
  -2   0  -2  486.82    6.58
   2   0   2  462.40    6.54
  -2   0   3    1.47    0.46
   2   0  -3    0.86    0.34
   2   0   3    1.95    0.34
  -2   0  -3    0.99    0.32
   2   0  -4   52.24    2.31
  -2   0   4   53.22    2.50
  -2   0  -4   55.81    1.97
   2   0   4   52.53    1.88
  -2   0   5    1.14    0.72
   2   0  -5    2.03    0.61
  -2   0  -5    1.86    0.52
   2   0   5    1.94    0.43
   2   0  -6   14.64    1.56
  -2   0   6   15.17    1.69
  -2   0  -6   17.17    1.32
   2   0   6   15.49    1.21
  -2   0   7    0.21    0.69
   2   0  -7   -0.54    0.49
  -2   0  -7    0.23    0.36
   2   0   7    0.38    0.27
  -2   0   8    4.29    1.67
   2   0  -8    3.10    1.13
  -2   0  -8    5.04    0.88
   2   0   8    5.41    0.87
  -2   0   9    1.12    0.83
   2   0  -9   -0.18    0.54
  -2   0  -9    0.56    0.54
  -2   0  -9    0.09    0.60
  -2   0   9    0.39    0.39
   2   0   9    0.69    0.44
   2   0 -10 4474.17   56.12
  -2   0 -10 4496.52   52.62
   2   0  10 4476.03   52.07
  -2   0  10 4449.43   52.95
  -2   0 -10 4428.87   56.11
  -2   0  10 4451.03   57.17
  -2   0 -11   -0.01    0.50
  -2   0  11    0.59    0.57
   2   0  11    0.55    0.64
  -2   0 -11    0.01    0.62
   2   0 -11    4.02    1.49
  -2   0  11   -0.42    0.89
   2   0 -12  901.88   18.50
   2   0  12  901.50   15.53
  -2   0 -12  877.88   15.71
  -2   0  12  901.18   16.09
  -2   0 -12  899.06   19.01
  -2   0  12  853.92   19.14
   2   0  13    0.59    0.55
  -2   0  13    0.11    0.52
  -2   0 -13   -0.23    0.64
  -2   0  13   -0.65    1.02
   2   0 -13    1.28    0.73
  -2   0 -13   -0.52    0.97
   2   0 -14  221.57    9.02
  -2   0 -14  220.55    9.38
  -2   0  14  217.71    9.25
  -2   0 -14  208.22    7.28
   2   0  14  223.07    7.18
  -2   0  14  230.06    7.70
   2   0 -15    0.63    0.76
  -2   0  15   -0.70    0.87
  -2   0 -15    0.93    0.94
  -2   0 -15    0.79    0.64
   2   0  15   -0.02    0.51
  -2   0  15    1.20    0.67
  -2   0 -16 1265.02   27.45
  -2   0  16 1284.17   26.59
  -2   0 -16 1278.91   22.66
  -2   0  17    0.32    1.41
   2  -1  -1  537.81    7.20
  -2   1   1  559.65    7.44
  -2   1  -1  546.78    6.73
  -2  -1  -1  504.09    7.14
   2   1   1  514.41    7.21
  -2   1   2  266.38    5.03
   2  -1  -2  253.61    4.73
  -2  -1   2  249.35    4.38
  -2  -1  -2  266.23    4.50
   2   1   2  253.43    4.37
   2  -1   2  253.54    3.94
  -2   1  -2  265.18    3.97
  -2  -1   3   64.68    2.13
   2  -1  -3   43.65    1.99
  -2   1   3   40.01    2.19
   2   1  -3   49.35    1.91
   2   1   3   58.07    1.89
  -2   1  -3   47.60    1.53
   2  -1   3   44.81    1.47
  -2  -1  -3   63.03    2.00
   2   1  -4   44.07    1.95
   2  -1  -4   42.37    2.29
  -2  -1   4   44.44    2.10
  -2   1   4   49.98    2.67
  -2  -1  -4   45.66    1.90
  -2   1  -4   49.22    1.74
   2  -1   4   46.66    1.66
   2   1   4   42.60    1.78
  -2  -1   5  373.68    7.61
   2  -1  -5  357.20    7.76
   2   1  -5  311.77    6.83
  -2   1   5  345.96    8.26
   2  -1   5  338.75    5.88
  -2   1  -5  336.99    6.06
  -2  -1  -5  370.75    6.75
   2   1   5  370.28    6.49
   2   1  -6  100.36    3.58
   2  -1  -6   87.38    3.96
  -2  -1  -6   96.20    3.30
   2  -1   6   98.07    2.94
  -2   1  -6   93.37    3.00
   2   1   6   96.87    3.15
  -2   1   6   92.69    4.31
  -2  -1   6  102.91    4.13
   2  -1  -7  318.75    8.59
   2   1  -7  312.57    7.61
  -2  -1   7  320.04    8.40
  -2   1   7  359.23    9.37
   2   1   7  323.98    6.86
   2  -1   7  338.41    6.57
  -2   1  -7  352.87    6.84
  -2  -1  -7  340.82    7.17
  -2   1  -8    3.16    0.91
  -2  -1   8    2.89    1.09
  -2   1   8    2.24    0.77
   2   1  -8    2.74    0.73
   2  -1  -8    3.02    1.02
  -2  -1  -8    3.25    0.78
  -2   1  -8    4.71    0.83
  -2   1   8    3.70    0.81
   2  -1   8    3.52    0.70
   2   1   8    4.52    0.77
   2   1  -9  953.14   17.12
  -2  -1  -9  939.67   18.76
   2  -1  -9 1057.53   18.78
  -2  -1   9 1017.33   18.69
  -2   1  -9  997.56   17.58
  -2   1   9 1011.62   19.25
   2  -1   9 1025.15   15.25
  -2   1  -9 1044.39   15.58
   2   1   9 1000.69   15.56
  -2   1   9 1015.74   16.24
  -2  -1  -9 1010.08   15.98
  -2   1  10    9.57    1.89
  -2   1 -10   11.75    1.78
  -2  -1  10    8.61    1.79
   2   1 -10    5.49    1.26
   2  -1 -10   12.39    1.93
  -2  -1 -10   11.64    1.79
  -2   1  10   10.36    1.36
  -2  -1  10    8.78    1.27
  -2   1 -10   10.68    1.29
   2  -1  10    9.38    1.15
  -2  -1 -10    7.48    1.16
   2   1  10    7.76    1.14
   2   1 -11  123.32    5.68
  -2   1 -11  124.78    4.69
   2   1  11  124.11    4.74
  -2  -1 -11  123.66    4.92
  -2  -1  11  119.75    4.82
   2  -1  11  127.56    4.64
  -2   1  11  120.12    4.88
  -2  -1  11  115.11    6.05
  -2   1 -11  122.88    5.83
  -2   1  11  110.83    6.15
  -2  -1 -11  124.59    6.16
   2  -1 -11  120.43    6.10
   2   1 -12   44.53    3.50
  -2   1  12   39.67    3.75
  -2   1 -12   44.49    3.75
  -2  -1  12   45.99    3.86
  -2  -1 -12   42.66    3.79
   2  -1 -12   47.14    3.87
  -2   1 -12   46.44    2.97
  -2  -1 -12   45.75    3.07
   2   1  12   49.37    3.07
  -2  -1  12   44.25    3.00
  -2   1  12   44.87    3.11
   2  -1  12   45.20    2.86
  -2   1  13   -0.03    1.08
  -2   1 -13    0.90    0.85
   2  -1 -13    1.89    0.71
  -2  -1 -13    0.03    0.89
  -2  -1  13    1.36    0.94
   2   1 -13    0.22    0.76
  -2  -1  13    1.37    0.72
  -2   1  13    0.55    0.47
  -2  -1 -13    1.48    0.82
   2  -1  13    1.47    0.67
  -2   1 -13    0.02    0.65
   2   1  13    2.45    0.84
   2   1 -14   13.92    2.29
   2  -1 -14   17.87    2.65
  -2   1  14   14.96    2.57
  -2   1 -14   16.48    2.60
  -2  -1 -14   18.04    2.77
  -2  -1  14   16.21    2.65
  -2   1  14   19.16    2.13
  -2   1 -14   17.53    2.02
  -2  -1 -14   13.33    1.86
  -2  -1  14   13.34    1.83
   2  -1  14   18.62    1.98
   2   1  14   15.53    1.89
   2   1 -15  101.68    6.06
   2  -1 -15  108.23    6.57
   2   1  15  105.60    5.05
  -2   1  15  101.92    5.27
  -2  -1  15   99.05    5.10
  -2   1 -15  102.55    5.11
  -2  -1 -15   96.73    5.11
   2  -1  15  103.40    4.92
  -2  -1  15   95.72    6.25
  -2   1  15  106.10    6.67
  -2  -1 -15  109.25    6.93
  -2   1 -15  107.48    6.64
   2   1 -16   66.32    5.02
  -2   1 -16   73.24    5.69
  -2  -1  16   61.80    5.20
  -2   1  16   64.76    5.58
  -2  -1 -16   64.45    4.32
   2  -1  16   69.53    4.14
  -2  -1  17  131.05    7.88
  -2  -1 -17  129.86    6.40
   2  -2   0 2774.32   30.03
  -2   2   0 2791.36   30.42
  -2  -2   0 2865.81   30.72
   2  -2  -1 2664.07   29.28
  -2   2   1 2701.12   29.92
  -2  -2  -1 2639.10   29.15
   2   2   1 2585.70   29.17
  -2   2   2   51.10    2.26
   2  -2  -2   54.02    2.11
  -2   2  -2   52.88    1.28
   2   2   2   47.26    1.70
  -2  -2  -2   44.74    1.72
   2  -2   2   52.81    1.28
  -2  -2   3 3310.02   35.49
   2  -2  -3 3211.82   37.53
  -2   2   3 3301.18   38.28
  -2   2  -3 3165.94   34.41
   2  -2   3 3178.27   34.33
   2   2   3 3239.38   35.80
  -2  -2  -3 3279.61   36.06
   2  -2  -4  135.26    4.37
   2   2  -4  108.38    3.06
  -2  -2   4  133.77    3.47
  -2   2   4  139.41    4.73
  -2   2  -4  131.51    2.84
  -2  -2  -4  132.96    3.53
   2  -2   4  125.01    2.72
   2   2   4  128.67    3.40
   2   2  -5    9.56    0.97
   2  -2  -5   11.08    1.36
  -2   2   5   10.12    1.46
  -2  -2   5    7.61    1.09
  -2  -2  -5   10.55    1.07
  -2   2  -5    9.00    0.75
   2   2   5   10.50    0.99
   2  -2   5    9.33    0.76
   2   2  -6  116.79    3.60
  -2  -2   6  114.18    4.18
  -2  -2  -6  115.32    3.78
  -2   2  -6  113.76    3.22
   2  -2   6  112.61    3.07
   2   2   6  110.14    3.52
  -2   2   6  112.74    3.77
   2  -2  -6  109.74    4.68
  -2   2   6  107.80    4.89
   2   2  -7 1224.45   17.30
  -2   2  -7 1220.54   16.26
  -2  -2  -7 1221.21   17.39
  -2   2   7 1181.91   17.46
   2  -2   7 1195.37   15.92
   2   2   7 1206.13   16.98
   2  -2  -7 1199.03   20.07
  -2  -2   7 1218.78   18.85
  -2   2   7 1208.92   20.53
  -2   2  -7 1233.05   17.84
   2   2  -8  301.38    7.41
   2  -2   8  330.58    6.65
  -2   2  -8  327.65    6.85
  -2  -2  -8  317.85    7.50
   2   2   8  321.65    7.21
  -2   2   8  325.23    7.63
  -2   2  -8  328.27    8.04
   2  -2  -8  339.26    9.49
  -2   2   8  342.73    9.79
  -2  -2   8  316.59    8.68
   2   2  -9 1720.44   23.98
  -2   2   9 1691.78   23.66
  -2   2  -9 1696.74   22.41
  -2  -2  -9 1650.06   23.53
   2   2   9 1666.38   23.06
   2  -2   9 1671.81   22.09
  -2  -2   9 1664.36   25.91
   2  -2  -9 1626.57   26.99
  -2   2  -9 1691.36   24.98
  -2   2   9 1737.58   27.48
   2   2 -10   80.53    3.99
   2  -2  10   81.25    3.40
  -2  -2 -10   75.10    3.71
  -2   2  10   77.86    3.80
  -2   2 -10   79.46    3.48
   2   2  10   77.78    3.57
   2  -2 -10   76.07    4.87
  -2  -2 -10   79.85    4.85
  -2   2  10   78.43    4.92
  -2  -2  10   71.47    4.38
  -2   2 -10   74.51    4.17
   2   2 -11  329.87    9.01
  -2   2 -11  321.22    7.85
  -2  -2 -11  318.03    8.45
  -2  -2  11  322.48    8.20
  -2   2  11  334.23    8.76
   2   2  11  318.77    8.10
   2  -2  11  320.23    7.66
  -2  -2  11  295.30    9.71
  -2  -2 -11  308.41   10.28
  -2   2  11  322.82   10.58
   2  -2 -11  326.90   10.68
  -2   2 -11  308.09    9.39
   2   2 -12  172.07    6.62
  -2  -2 -12  160.87    6.12
  -2  -2  12  165.05    5.89
   2  -2  12  170.19    5.58
  -2   2 -12  158.70    5.54
   2   2  12  170.66    5.90
  -2   2  12  164.20    6.11
  -2   2 -12  163.78    7.05
   2  -2 -12  166.62    7.98
  -2  -2 -12  160.91    7.68
  -2  -2  12  154.30    7.17
  -2   2  12  154.64    7.52
   2   2 -13 1031.28   19.25
  -2   2 -13  959.65   20.17
  -2  -2 -13 1005.09   21.96
  -2   2  13  913.55   20.92
   2  -2 -13  991.66   21.44
  -2  -2  13  967.28   20.55
  -2  -2 -13  975.56   17.91
  -2   2  13  991.12   18.05
   2   2  13  986.17   17.39
  -2   2 -13  963.83   16.96
   2  -2  13  985.81   16.74
  -2  -2  13 1011.26   17.65
   2  -2 -14    6.71    1.70
  -2   2 -14    5.78    1.57
  -2   2  14    6.97    1.80
   2   2 -14    4.40    1.38
  -2  -2  14    5.45    1.62
  -2  -2 -14    7.50    1.93
   2  -2  14    4.19    1.04
  -2  -2  14    3.60    1.05
  -2   2  14    5.83    1.25
  -2  -2 -14    4.01    1.10
   2   2  14    3.87    1.03
   2   2 -15  397.53   11.87
  -2   2 -15  411.08   13.12
  -2   2  15  419.96   14.03
  -2  -2  15  361.44   12.60
   2  -2  15  407.46   10.22
  -2  -2 -15  370.76   10.74
  -2  -2  15  376.75   10.47
  -2   2 -16    6.02    1.54
   2   2 -16   13.54    2.28
  -2  -2  16    8.28    2.03
   2  -2  16    8.40    1.45
  -2  -2  16   10.20    1.73
  -2  -2 -16    9.01    1.68
  -2  -2  17  837.98   20.83
  -2   2 -17  871.80   21.18
  -2  -2 -17  816.33   17.95
  -2  -2  18    2.60    1.24
  -2   3   0  264.69    4.84
   2  -3   0  264.92    4.20
  -2  -3   0  257.31    4.54
  -2   3   1  710.92   10.57
   2  -3  -1  669.86    9.65
  -2   3  -1  688.91    8.60
   2   3   1  692.49    9.44
  -2  -3  -1  704.71    9.47
  -2   3   2 1223.60   17.28
   2  -3  -2 1224.94   16.60
  -2  -3  -2 1240.72   15.52
   2   3   2 1247.79   15.39
   2  -3   3    2.90    0.29
   2  -3  -3    3.85    0.73
  -2   3   3    2.61    0.74
  -2   3  -3    3.40    0.33
  -2  -3  -3    1.32    0.42
   2   3   3    1.18    0.37
  -2  -3   4  445.98    7.28
   2  -3  -4  458.98    9.54
  -2   3   4  465.95    9.92
  -2  -3  -4  448.89    7.86
  -2   3   4  458.61    7.85
  -2   3  -4  454.85    6.28
   2   3   4  422.67    7.51
   2  -3   4  464.78    6.14
  -2  -3   5  143.49    3.98
   2  -3  -5  144.16    5.25
  -2   3  -5  155.31    3.78
  -2   3   5  148.79    5.48
  -2  -3  -5  141.92    4.16
  -2   3   5  147.95    4.19
  -2   3  -5  143.13    3.17
   2  -3   5  139.31    3.00
   2   3   5  134.74    3.89
  -2  -3   6   67.86    3.00
   2   3  -6   72.90    2.62
   2  -3  -6   68.34    3.83
  -2   3   6   66.69    3.88
  -2   3  -6   69.21    2.73
  -2  -3  -6   79.95    3.21
   2  -3   6   67.01    2.18
  -2   3  -6   67.77    2.30
  -2   3   6   65.92    2.89
   2   3   6   77.97    3.03
   2   3  -7  240.96    5.55
  -2  -3   7  245.30    6.66
   2   3   7  244.79    6.00
  -2   3   7  245.27    6.25
   2  -3   7  245.29    5.03
  -2   3  -7  245.82    5.20
  -2  -3  -7  248.57    6.34
  -2   3   7  249.88    8.00
  -2   3  -7  248.41    6.12
   2  -3  -7  231.93    7.77
   2   3  -8   49.62    2.58
  -2  -3   8   51.92    3.25
  -2   3   8   49.92    3.70
  -2   3  -8   53.59    2.90
   2  -3  -8   47.74    3.61
   2  -3   8   48.34    2.19
  -2  -3  -8   51.21    2.86
  -2   3   8   51.46    2.84
  -2   3  -8   52.88    2.39
   2   3   8   52.97    2.75
   2   3  -9    9.14    1.28
  -2   3   9    5.21    1.35
   2  -3  -9    4.48    1.24
  -2   3  -9    4.65    1.03
  -2  -3   9   11.60    1.70
  -2   3  -9    7.75    1.05
  -2  -3  -9   10.44    1.41
  -2   3   9    6.13    1.04
   2   3   9    9.76    1.28
   2  -3   9    5.70    0.85
   2   3 -10    1.95    0.61
  -2  -3 -10    2.08    0.94
  -2  -3  10    3.46    1.08
   2  -3 -10    1.27    0.59
  -2   3  10    4.05    1.39
  -2   3 -10    2.09    0.70
   2  -3  10    1.88    0.51
  -2   3  10    1.97    0.67
  -2  -3 -10    3.14    1.02
  -2   3 -10    2.70    0.62
   2   3  10    2.67    0.71
   2   3 -11   24.00    2.27
  -2   3  11   26.56    2.34
  -2  -3 -11   27.98    2.44
  -2   3 -11   28.89    2.12
  -2  -3  11   27.66    2.24
   2   3  11   28.97    2.33
   2  -3  11   26.65    1.98
  -2   3  11   27.48    3.09
   2  -3 -11   26.41    3.21
  -2  -3 -11   22.03    2.69
  -2   3 -11   26.91    2.61
  -2  -3  11   22.51    2.56
   2   3 -12  115.51    5.10
  -2   3 -12  111.36    5.62
  -2  -3 -12  118.86    6.70
  -2   3  12  103.67    6.15
   2  -3 -12  103.01    6.37
  -2  -3  12  115.07    6.02
  -2  -3 -12  118.17    5.30
   2  -3  12  108.56    4.33
  -2  -3  12  117.75    4.86
   2   3  12  117.71    4.95
  -2   3  12  113.54    5.11
   2   3 -13    7.57    1.53
   2  -3 -13    4.82    1.35
  -2  -3  13    4.84    1.51
  -2   3  13    3.82    1.43
  -2   3 -13    3.85    1.20
  -2  -3 -13    6.74    1.71
  -2  -3 -13    6.57    1.40
   2  -3  13    6.13    1.12
  -2  -3  13    7.93    1.38
  -2   3  13    6.59    1.33
   2   3  13    5.93    1.15
   2   3 -14   14.47    1.99
  -2  -3  14   13.96    2.35
  -2   3 -14    8.74    1.65
  -2  -3 -14   13.63    2.49
   2  -3 -14   10.43    2.37
  -2   3  14   10.35    1.80
  -2  -3 -14   15.29    2.08
  -2  -3  14   12.86    1.73
   2  -3  14   13.06    1.60
   2   3  14   15.05    1.90
   2   3 -15   25.76    2.71
  -2  -3  15   22.73    3.14
  -2   3 -15   29.99    3.33
  -2  -3 -15   21.30    2.49
  -2  -3  15   25.61    2.55
   2  -3  15   27.29    2.44
   2   3 -16    1.86    0.94
  -2  -3  16    1.38    1.14
  -2   3 -16    0.38    0.94
  -2  -3 -16    0.30    0.70
  -2  -3  16    0.33    0.55
   2  -3  16    1.27    0.71
   2   3 -17  127.39    6.58
  -2  -3  17  127.23    7.41
  -2   3 -17  134.34    7.50
  -2  -3 -17  123.42    6.41
   2  -3  17  136.31    5.95
  -2   3 -18   48.95    4.70
  -2  -3  18   55.46    5.24
  -2  -3 -18   54.24    4.38
   2  -4   0  923.34   11.68
  -2   4   0  925.39   12.48
  -2   4   0  907.88   10.83
  -2  -4   0  951.90   12.03
   2   4   1    1.84    0.38
   2  -4   1    2.75    0.29
  -2  -4   1    2.89    0.43
   2  -4  -1    0.07    0.28
  -2   4  -1    0.67    0.30
  -2   4   1   -0.23    0.46
  -2   4   1    0.54    0.21
  -2  -4  -1    2.58    0.47
   2  -4  -2    1.93    0.61
  -2   4   2    1.49    0.47
  -2   4   2    2.21    0.43
  -2  -4  -2    2.36    0.48
   2   4   2    2.41    0.51
   2  -4  -3  226.73    6.11
  -2   4   3  224.71    6.22
  -2  -4  -3  232.85    5.04
  -2   4   3  215.82    4.71
   2   4   3  222.87    4.84
  -2  -4   4 1518.40   18.14
   2  -4  -4 1444.34   21.74
  -2   4   4 1521.95   22.20
  -2  -4  -4 1538.33   19.59
  -2   4  -4 1469.99   16.44
  -2   4   4 1447.96   19.08
   2   4   4 1490.61   19.06
   2  -4   4 1480.32   16.26
  -2  -4   5   13.71    1.12
  -2   4   5   14.94    1.77
  -2   4  -5   16.30    1.01
   2  -4  -5   16.06    1.86
  -2  -4  -5   14.08    1.33
  -2   4   5   16.00    1.36
  -2   4  -5   14.39    0.83
   2   4   5   14.38    1.26
   2  -4   5   14.14    0.77
  -2  -4   6 2919.76   34.75
   2  -4  -6 2832.88   38.86
  -2   4  -6 2952.38   33.39
  -2   4   6 2993.68   39.14
  -2  -4  -6 2952.26   35.54
  -2   4   6 2899.96   35.25
   2   4   6 2904.40   34.82
   2  -4   6 2883.25   32.16
  -2  -4   7   19.66    1.74
   2   4  -7   19.15    1.35
   2  -4  -7   24.33    2.56
  -2   4  -7   24.25    1.64
  -2   4   7   21.76    2.42
  -2   4   7   24.34    1.90
   2  -4   7   22.41    1.27
  -2  -4  -7   20.02    1.80
   2   4   7   22.32    1.74
   2   4  -8    2.27    0.58
  -2  -4   8    7.30    1.29
  -2   4  -8    3.03    0.70
  -2   4   8    4.33    1.33
   2  -4  -8    3.63    1.10
  -2  -4  -8    1.88    0.62
  -2   4   8    3.95    0.80
   2   4   8    1.77    0.52
   2  -4   8    3.17    0.56
   2   4  -9  303.15    6.82
   2  -4   9  319.77    6.47
  -2  -4  -9  310.26    8.11
   2   4   9  306.74    7.64
  -2   4   9  317.33    8.06
  -2   4  -9  317.28    7.77
  -2   4   9  302.35    9.84
   2  -4  -9  318.17   10.25
  -2  -4   9  295.92    8.47
   2   4 -10 1263.00   18.53
   2   4  10 1258.86   19.58
  -2  -4 -10 1242.21   20.31
   2  -4  10 1268.91   17.74
  -2   4  10 1288.03   20.28
  -2  -4  10 1271.76   21.64
  -2   4 -10 1256.49   19.94
   2  -4 -10 1256.95   24.10
  -2  -4 -10 1196.52   23.85
  -2   4  10 1317.39   24.15
   2   4 -11   98.20    4.13
  -2  -4 -11   93.45    4.60
  -2   4  11   98.20    4.62
   2  -4  11   93.70    3.69
   2   4  11   93.28    4.30
  -2  -4  11   94.38    4.17
   2  -4 -11   92.51    5.93
  -2  -4  11  100.06    5.27
  -2   4 -11   93.60    4.56
  -2  -4 -11   96.42    5.92
  -2   4  11   98.71    5.99
   2   4 -12  830.13   14.95
  -2  -4 -12  841.32   19.97
  -2  -4  12  832.13   17.64
   2  -4 -12  832.62   19.90
  -2   4 -12  839.88   16.40
   2  -4  12  831.28   14.00
  -2   4  12  841.94   16.04
   2   4  12  816.14   15.42
  -2  -4  12  807.71   14.89
  -2  -4 -12  817.13   16.21
   2   4 -13    5.62    1.11
  -2  -4  13    3.38    1.05
  -2  -4 -13    5.84    1.85
   2  -4 -13    4.91    1.52
  -2   4 -13    4.14    1.06
  -2  -4 -13    4.43    1.11
   2  -4  13    7.03    1.14
  -2  -4  13    6.19    1.21
  -2   4  13    6.53    1.39
   2   4  13    4.05    0.94
   2   4 -14   22.72    2.34
  -2   4 -14   21.62    2.56
  -2  -4  14   23.49    2.88
   2  -4  14   22.98    2.11
  -2  -4  14   23.81    2.35
  -2  -4 -14   24.74    2.65
   2   4 -15    2.23    0.95
  -2  -4  15    2.80    1.10
  -2   4 -15    0.91    0.68
  -2  -4  15    2.80    1.01
  -2  -4 -15    2.16    1.03
   2  -4  15    1.86    0.68
   2   4 -16 1467.08   24.77
  -2   4 -16 1410.44   26.48
  -2  -4  16 1460.51   27.85
  -2  -4 -16 1386.88   25.57
   2  -4  16 1497.22   23.37
  -2  -4  16 1456.55   24.31
   2   4 -17    8.77    1.67
  -2   4 -17    9.55    1.94
  -2  -4  17    9.33    2.24
  -2  -4 -17    8.58    1.83
   2  -4  17   12.85    1.82
  -2   4 -18   12.05    2.30
  -2  -4  18   11.92    2.67
  -2  -4 -18   10.73    1.95
   2  -5   0   74.64    2.35
  -2   5   0   73.91    1.73
  -2  -5   0   79.16    2.45
   2  -5   1   24.65    0.94
   2  -5  -1   24.90    1.63
  -2   5   1   23.30    1.11
  -2  -5   1   20.84    1.19
   2   5   1   23.74    1.36
  -2  -5  -1   22.58    1.35
   2  -5  -2    7.26    1.03
  -2   5   2    5.68    1.20
  -2   5   2    8.21    0.77
  -2  -5  -2    8.27    0.88
  -2  -5   2    9.88    0.82
   2   5   2    7.76    0.81
   2  -5  -3   12.44    1.52
  -2   5   3   10.35    1.48
  -2   5   3   12.64    1.06
   2   5   3   10.31    1.02
  -2  -5  -3    9.74    1.04
  -2  -5   4  209.16    4.29
   2  -5  -4  200.53    6.50
  -2   5   4  201.56    6.58
  -2   5   4  199.27    4.91
  -2  -5  -4  211.35    5.32
   2   5   4  204.36    4.98
  -2  -5   5    0.11    0.28
  -2   5   5   -0.01    0.54
   2  -5  -5   -0.90    0.81
  -2  -5  -5    0.15    0.37
  -2   5   5    0.71    0.45
   2   5   5    0.25    0.31
   2  -5   5   -0.11    0.14
  -2   5  -6  284.87    4.07
  -2  -5   6  272.15    6.08
  -2   5   6  256.73    8.82
   2  -5  -6  284.20    8.82
  -2  -5  -6  274.41    6.92
  -2   5   6  290.56    6.83
   2  -5   6  287.12    4.49
   2   5   6  281.17    6.61
  -2  -5   7    0.69    0.46
   2  -5  -7    0.36    0.68
  -2   5  -7    0.05    0.23
  -2   5   7    1.02    1.13
  -2   5   7   -0.06    0.35
  -2  -5  -7   -0.18    0.48
   2  -5   7    0.70    0.29
   2   5   7    0.86    0.46
  -2   5  -8  100.83    3.23
  -2  -5   8   97.04    4.16
   2  -5  -8   97.40    5.51
  -2  -5  -8  104.11    4.42
   2  -5   8   95.67    2.83
  -2   5   8  107.49    4.32
   2   5   8  100.30    4.06
  -2   5  -9   18.48    1.53
  -2  -5   9   13.85    1.73
  -2  -5  -9   16.01    2.58
   2  -5  -9   18.34    2.40
   2  -5   9   17.32    1.27
  -2   5   9   17.03    1.75
  -2  -5  -9   15.98    1.82
   2   5   9   15.00    1.62
   2   5 -10   67.60    2.95
  -2   5 -10   61.87    3.08
  -2  -5 -10   59.06    4.60
  -2  -5  10   60.95    3.77
   2  -5 -10   63.72    4.82
  -2  -5 -10   68.61    3.91
   2   5  10   67.59    3.58
  -2   5  10   69.78    3.77
   2  -5  10   60.21    2.64
   2   5 -11   11.44    1.32
   2  -5 -11   13.67    2.36
  -2   5 -11   11.63    1.48
  -2  -5  11    9.15    1.72
  -2  -5 -11   11.36    2.19
  -2   5  11   11.30    1.61
  -2  -5  11   14.20    1.62
   2  -5  11   12.03    1.24
  -2  -5 -11   11.13    1.62
   2   5  11   11.88    1.54
   2   5 -12   89.08    3.85
  -2   5 -12   97.86    4.49
  -2   5  12   98.24    4.82
  -2  -5  12   75.53    3.84
   2  -5  12   91.79    3.72
  -2  -5 -12   85.14    4.71
   2   5  12   81.39    4.28
   2  -5 -12   93.77    6.28
  -2  -5  12   83.39    5.02
  -2  -5 -12   87.08    6.11
   2   5 -13  126.67    4.96
  -2   5 -13  139.57    5.74
   2  -5  13  136.98    4.84
  -2  -5  13  134.11    5.36
   2   5  13  127.07    5.51
  -2   5  13  143.19    6.11
  -2  -5 -13  128.90    6.03
  -2  -5  13  132.59    6.51
  -2   5 -14   32.44    2.87
   2   5 -14   29.11    2.49
  -2  -5 -14   25.34    2.72
  -2  -5  14   24.24    2.31
   2  -5  14   29.89    2.32
  -2  -5  14   27.60    3.16
  -2   5 -15   82.98    4.81
   2   5 -15   76.44    4.18
  -2  -5  15   72.16    5.25
  -2  -5  15   78.49    4.40
  -2  -5 -15   75.70    4.92
   2  -5  15   79.60    4.02
   2   5 -16    7.04    1.37
  -2  -5  16    7.64    1.67
  -2   5 -16    7.94    1.68
  -2  -5 -16   10.86    2.03
  -2  -5  16    7.96    1.46
   2  -5  16    8.30    1.36
  -2   5 -17   97.57    5.70
   2   5 -17  103.46    5.28
  -2  -5 -17  100.13    5.99
   2  -5  17   98.22    4.84
  -2  -5  17  105.46    6.63
   2   5 -18    6.58    1.60
  -2   5 -18    4.07    1.16
  -2  -5 -18   11.95    2.26
  -2   5 -19    1.92    1.25
   2  -6   0   82.86    2.73
  -2   6   0   86.65    1.87
  -2  -6   0   86.64    2.73
   2  -6  -1  165.85    4.68
   2  -6   1  163.47    3.14
  -2   6   1  165.20    3.42
   2   6   1  185.86    4.27
  -2  -6  -1  189.34    4.44
  -2  -6   1  192.02    4.04
   2  -6  -2   19.44    1.75
  -2   6   2   17.96    1.14
  -2  -6  -2   19.84    1.44
  -2  -6   2   19.82    1.18
   2   6   2   20.66    1.39
   2  -6  -3 1326.69   20.67
  -2   6   3 1324.63   17.39
  -2  -6  -3 1366.60   18.43
   2   6   3 1349.59   17.85
  -2  -6   3 1368.23   16.73
  -2  -6   4  197.50    4.18
   2  -6  -4  200.76    6.80
  -2   6   4  198.05    4.91
  -2  -6  -4  197.98    5.39
   2   6   4  197.95    5.05
  -2  -6   5  146.58    3.75
   2  -6  -5  145.14    6.05
  -2  -6  -5  153.48    4.88
  -2   6   5  147.48    4.44
   2   6   5  138.71    4.35
  -2  -6   6   15.68    1.29
   2  -6  -6   17.23    2.18
  -2  -6  -6   14.58    1.55
  -2   6   6   16.97    1.55
   2   6   6   15.06    1.44
   2  -6   6   15.98    0.64
  -2  -6   7 1266.01   18.05
   2  -6  -7 1233.67   22.96
  -2  -6  -7 1253.03   19.48
  -2   6   7 1249.43   18.82
   2  -6   7 1254.28   14.69
   2   6   7 1272.26   18.69
  -2  -6   8  107.42    4.30
  -2   6  -8  113.32    2.29
   2  -6  -8  112.80    6.16
  -2  -6  -8  111.22    4.74
  -2   6   8  111.86    4.50
   2  -6   8  112.13    2.83
   2   6   8  110.33    4.37
  -2   6  -9  150.97    3.45
   2  -6  -9  151.61    7.45
  -2  -6  -9  155.77    7.85
  -2  -6   9  159.25    5.74
   2  -6   9  150.90    3.75
  -2  -6  -9  155.44    5.88
  -2   6   9  150.01    5.52
   2   6   9  153.98    5.41
  -2   6 -10   37.92    1.90
  -2  -6  10   36.23    2.87
  -2  -6 -10   42.29    4.02
   2  -6 -10   35.52    3.71
   2  -6  10   36.39    1.88
  -2  -6 -10   37.48    2.95
  -2   6  10   35.27    2.73
   2   6  10   39.53    2.78
  -2   6 -11  111.52    3.78
   2  -6 -11  112.60    6.91
  -2  -6 -11  113.92    7.03
  -2  -6  11  108.75    5.35
  -2  -6 -11  117.64    5.45
   2  -6  11  114.25    3.74
  -2  -6  11  109.38    4.39
  -2   6  11  107.63    5.01
   2   6  11  115.47    5.04
  -2   6 -12   55.72    2.87
   2   6 -12   54.48    2.77
   2  -6 -12   50.90    4.77
  -2  -6  12   55.43    3.96
  -2  -6 -12   49.96    3.74
  -2  -6  12   50.92    3.09
  -2   6  12   52.09    3.56
   2  -6  12   51.65    2.63
   2   6  12   53.75    3.52
   2   6 -13  537.58   10.57
  -2   6 -13  520.46   10.71
  -2  -6 -13  526.56   13.28
  -2  -6  13  524.90   11.42
   2  -6  13  527.72   10.29
  -2  -6  13  550.40   13.75
   2   6 -14   52.83    3.17
  -2   6 -14   60.35    3.46
  -2  -6 -14   51.82    4.00
  -2  -6  14   50.90    3.39
   2  -6  14   57.98    3.14
  -2  -6  14   56.29    4.29
   2   6 -15   74.76    3.87
  -2   6 -15   65.43    3.83
  -2  -6  15   73.02    4.21
  -2  -6 -15   72.53    4.92
   2  -6  15   67.12    3.56
  -2  -6  15   68.71    5.01
   2   6 -16  103.74    4.89
  -2   6 -16  109.28    5.19
   2  -6  16  103.28    4.68
  -2  -6  16  106.59    5.24
  -2  -6 -16  103.45    6.08
  -2  -6  16  109.91    6.28
   2   6 -17  233.60    7.68
  -2   6 -17  234.96    8.16
  -2  -6  17  257.42   10.24
   2  -6  17  234.73    7.51
  -2  -6  17  218.94    8.05
  -2  -6 -17  241.62    9.68
   2   6 -18    4.95    1.39
  -2   6 -18    5.63    1.36
  -2  -6 -18    5.70    1.61
   2  -6  18    5.77    1.24
   2  -7   0    3.14    0.58
  -2   7   0    2.33    0.29
  -2  -7   0    0.61    0.32
   2  -7  -1    2.40    0.64
   2  -7   1    0.49    0.18
   2   7   1    0.51    0.30
  -2  -7   1    0.71    0.30
  -2  -7  -1    0.98    0.40
  -2   7   1    1.18    0.31
   2  -7  -2   63.68    3.28
  -2  -7  -2   60.09    2.68
  -2   7   2   61.91    2.18
  -2  -7   2   62.31    2.21
   2   7   2   62.75    2.57
   2  -7  -3   45.25    3.02
  -2   7   3   40.46    1.94
  -2  -7  -3   38.05    2.21
   2   7   3   36.08    2.01
  -2  -7   3   36.84    1.65
   2  -7  -4  140.03    5.82
  -2  -7  -4  128.75    4.44
  -2   7   4  145.84    4.16
   2   7   4  126.44    4.06
  -2  -7   4  129.21    3.30
  -2  -7   5   76.26    2.65
   2  -7  -5   78.62    4.59
  -2  -7  -5   76.25    3.52
  -2   7   5   78.68    3.22
   2   7   5   77.53    3.27
  -2  -7   6   12.75    1.18
   2  -7  -6   12.10    1.86
  -2  -7  -6   13.09    1.54
  -2   7   6   14.15    1.46
   2   7   6   13.24    1.43
  -2  -7   7    8.48    1.10
   2  -7  -7    5.70    1.39
  -2  -7  -7   10.88    1.49
  -2   7   7    5.13    0.97
   2   7   7    7.51    1.12
  -2  -7   8   95.67    3.97
  -2  -7  -8   82.94    5.83
   2  -7  -8   85.59    5.53
  -2  -7  -8   90.39    4.40
  -2   7   8   90.29    4.09
   2  -7   8   88.84    2.08
   2   7   8   90.10    4.00
   2  -7  -9  238.20    9.78
  -2  -7   9  246.55    7.17
  -2  -7  -9  241.30    9.89
  -2   7   9  249.99    7.39
  -2  -7  -9  249.96    7.89
   2  -7   9  242.60    4.51
   2   7   9  254.59    7.28
  -2  -7  10   22.97    2.36
   2  -7 -10   27.72    3.40
  -2  -7 -10   27.52    3.49
  -2   7  10   30.19    2.57
  -2  -7 -10   23.34    2.55
   2  -7  10   31.37    1.57
   2   7  10   27.47    2.40
  -2   7 -11   30.38    1.42
  -2  -7  11   30.09    2.80
   2  -7 -11   30.25    3.71
  -2  -7 -11   35.21    3.10
  -2  -7  11   31.76    2.26
  -2   7  11   30.92    2.67
   2   7  11   30.68    2.61
   2  -7  11   30.43    1.72
  -2   7 -12   48.77    2.12
  -2  -7  12   52.98    3.74
   2  -7  12   47.73    2.36
  -2   7  12   48.74    3.51
  -2  -7  12   45.16    2.87
  -2  -7 -12   42.19    3.50
  -2   7 -13   11.02    1.15
  -2  -7  13   10.78    1.77
  -2  -7 -13   14.51    2.13
  -2  -7  13   15.49    1.78
   2  -7  13   11.53    1.27
  -2   7 -14   43.80    2.48
   2  -7  14   46.12    2.66
  -2  -7 -14   45.55    3.84
  -2  -7  14   43.73    3.09
  -2  -7  14   45.82    3.77
  -2   7 -15   25.50    2.00
  -2  -7  15   25.38    2.95
   2  -7  15   23.07    1.96
  -2  -7  15   21.17    2.24
  -2  -7 -15   21.44    2.77
  -2   7 -16    1.33    0.68
  -2  -7  16    0.86    0.97
  -2  -7  16    1.94    0.93
  -2  -7 -16    1.25    1.01
   2  -7  16    0.86    0.64
   2   7 -17    0.59    0.55
  -2  -7  17    1.52    0.86
  -2  -7 -17   -0.45    1.29
   2  -7  17   -0.21    0.56
  -2  -7 -18   25.20    3.35
   2  -8   0  528.48    8.91
  -2  -8   0  544.07    9.06
  -2   8   0  538.63    6.66
   2  -8   1    7.14    0.62
   2  -8  -1    6.11    0.99
  -2  -8  -1    5.82    0.84
  -2   8   1    6.13    0.58
  -2  -8   1    4.38    0.67
   2  -8  -2  134.82    5.02
  -2  -8  -2  146.36    4.46
   2   8   2  140.52    4.10
  -2  -8   2  144.97    3.66
  -2   8   2  135.33    3.37
   2  -8  -3  185.21    6.54
  -2  -8  -3  197.89    5.54
  -2   8   3  188.01    4.51
  -2  -8   3  191.87    4.22
   2   8   3  197.29    5.15
   2  -8  -4  319.54    9.41
  -2   8   4  317.13    6.62
  -2  -8  -4  319.87    7.63
   2   8   4  312.35    7.01
  -2  -8   4  311.42    5.64
  -2  -8   5   57.29    2.25
   2  -8  -5   53.39    3.95
  -2   8   5   56.26    2.72
  -2  -8  -5   59.71    3.25
   2   8   5   59.60    2.92
  -2  -8   5   55.44    2.07
  -2  -8   6  995.55   14.20
   2  -8  -6  987.75   20.22
  -2   8   6  990.10   15.68
  -2  -8  -6 1013.75   16.99
  -2  -8   6  998.69   13.40
   2   8   6 1015.00   15.91
  -2  -8   7   86.43    3.34
   2  -8  -7   82.93    5.48
  -2  -8  -7   73.92    5.80
  -2  -8  -7   87.79    4.31
  -2   8   7   80.48    3.71
   2   8   7   84.73    3.83
   2  -8  -8   67.85    5.07
  -2  -8   8   65.60    3.17
  -2  -8  -8   73.71    5.39
  -2   8   8   69.17    3.61
  -2  -8  -8   69.04    4.01
   2   8   8   68.19    3.55
  -2  -8   9   56.35    3.15
   2  -8  -9   58.79    4.90
  -2  -8  -9   53.13    4.85
  -2  -8  -9   49.10    3.50
  -2   8   9   58.90    3.47
   2   8   9   55.56    3.31
   2  -8   9   55.79    1.39
   2  -8 -10  443.03   14.60
  -2  -8  10  438.86   10.23
  -2  -8 -10  444.64   14.96
  -2  -8 -10  467.30   11.87
  -2   8  10  454.41   10.88
  -2  -8  10  431.38    8.86
   2  -8  10  453.18    6.62
   2   8  10  436.64   10.58
  -2  -8  11  101.02    4.74
  -2  -8  11   99.01    3.98
  -2  -8 -11   97.72    5.33
  -2   8  11  102.54    5.02
   2  -8  11  107.19    2.94
  -2  -8  12  351.74    9.59
  -2  -8 -12  336.01   10.60
  -2  -8  12  330.26    8.08
   2  -8  12  338.60    6.49
  -2  -8  13  140.86    6.00
  -2  -8 -13  129.90    6.58
  -2  -8  13  124.57    4.92
   2  -8  13  136.16    4.06
  -2   8 -14   65.50    2.43
  -2  -8  14   69.25    4.28
  -2  -8 -14   66.19    4.79
  -2  -8  14   59.40    3.48
   2  -8  14   64.47    2.92
  -2  -8  15    1.39    0.84
  -2  -8 -15    1.83    1.04
  -2  -8  15    1.12    0.70
   2  -8  15    1.81    0.71
  -2  -8 -16  454.96   13.82
  -2  -8  16  398.36   10.55
  -2  -8 -17   16.91    2.77
   2  -9   0   22.44    1.46
  -2  -9   0   19.67    1.49
   2  -9   1    0.11    0.17
   2  -9  -1   -0.55    0.52
  -2  -9  -1    0.34    0.42
  -2   9   1    0.31    0.19
  -2  -9   1    1.07    0.43
   2   9   2   11.34    1.19
   2  -9  -2   13.05    1.62
  -2  -9  -2   11.23    1.29
  -2  -9   2   12.34    1.03
  -2   9   2   10.64    0.89
   2  -9  -3   20.89    2.23
  -2  -9  -3   15.18    1.52
  -2   9   3   21.07    1.38
  -2  -9   3   16.27    1.13
   2   9   3   14.78    1.41
  -2  -9   4   65.59    2.31
   2  -9  -4   57.66    3.95
  -2  -9  -4   63.10    3.29
  -2   9   4   59.63    2.60
   2   9   4   64.17    3.01
  -2  -9   4   64.30    2.22
  -2  -9   5    1.29    0.38
   2  -9  -5    0.39    0.72
  -2  -9  -5    0.40    0.46
   2   9   5    0.53    0.35
  -2  -9   5    1.11    0.33
  -2   9   5    0.54    0.37
  -2  -9   6    1.50    0.53
  -2  -9  -6    2.33    1.03
   2  -9  -6    0.68    0.65
  -2  -9  -6    1.29    0.55
  -2   9   6    0.40    0.48
   2   9   6    2.05    0.73
  -2  -9   6    0.86    0.34
  -2  -9  -7   11.59    2.29
   2  -9  -7   11.31    2.12
  -2  -9   7    9.99    1.14
  -2  -9  -7   10.72    1.59
   2   9   7    9.17    1.31
  -2  -9   7   10.28    0.91
  -2   9   7   12.03    1.44
  -2  -9   8   12.56    1.04
  -2  -9   8   11.03    1.26
  -2  -9  -8   15.55    2.77
   2  -9  -8    6.34    1.77
  -2  -9  -8   10.49    1.56
   2   9   8   11.47    1.49
  -2   9   8    8.89    1.30
  -2  -9  -9   17.17    2.93
  -2  -9   9   16.03    1.61
   2  -9  -9   26.26    3.51
  -2   9   9   24.66    2.24
  -2  -9  -9   16.32    2.13
   2   9   9   13.00    1.65
   2  -9 -10   10.05    2.11
  -2  -9  10    9.41    1.30
  -2  -9  10   10.51    1.17
  -2  -9 -10    9.51    1.80
  -2   9  10   11.48    1.61
   2   9  10    8.84    1.46
  -2  -9  11   36.25    2.57
  -2  -9 -11   43.55    3.64
  -2  -9  11   38.79    2.32
  -2   9  11   39.63    3.10
   2  -9  11   36.98    1.21
  -2  -9  12    0.64    0.67
  -2  -9 -12   -0.11    0.69
  -2  -9  12    2.08    0.67
   2  -9  12    0.79    0.29
  -2  -9 -13    1.55    1.11
  -2  -9  13    0.40    0.50
  -2  -9  13    0.44    0.63
  -2  -9 -14   27.96    3.28
  -2  -9 -15   17.37    2.69
  -2  -9 -16    8.84    2.05
   2 -10   0  191.43    4.55
  -2 -10   0  183.91    4.95
   2 -10  -1  324.94    7.40
   2 -10   1  317.66    4.79
  -2 -10   1  319.93    6.52
  -2 -10  -1  313.48    7.12
  -2  10   1  326.67    4.89
   2 -10  -2   22.52    2.07
  -2 -10  -2   20.34    1.77
  -2 -10   2   21.79    1.39
  -2  10   2   20.71    1.18
   2 -10  -3  621.73   13.25
  -2 -10  -3  500.33   14.64
  -2 -10  -3  623.14   11.70
  -2 -10   3  635.17    9.29
  -2  10   3  610.24    9.48
   2  10   3  588.49   10.61
   2 -10  -4   55.72    3.88
  -2 -10   4   63.30    2.29
  -2 -10  -4   59.37    4.49
  -2 -10  -4   63.79    3.46
  -2 -10   4   62.27    2.15
  -2  10   4   65.99    2.71
   2  10   4   60.79    3.01
  -2 -10   5   16.63    1.19
  -2 -10  -5   19.03    2.54
   2 -10  -5   13.87    2.16
  -2 -10  -5   19.53    2.01
  -2  10   5   14.69    1.39
  -2 -10   5   18.83    1.10
   2  10   5   17.27    1.67
  -2 -10   6  155.30    4.01
  -2 -10  -6  137.70    7.55
   2 -10  -6  146.97    7.24
  -2 -10  -6  151.87    5.85
  -2 -10   6  150.11    3.38
   2  10   6  144.47    5.11
  -2  10   6  150.69    4.87
  -2 -10   7  624.83    9.99
  -2 -10  -7  570.30   16.89
   2 -10  -7  581.55   15.93
  -2 -10  -7  623.80   13.49
   2  10   7  588.26   11.88
  -2  10   7  581.37   11.49
  -2 -10   7  602.11    8.66
  -2 -10  -8  117.98    7.48
   2 -10  -8  120.45    7.18
  -2 -10   8  126.49    3.88
  -2 -10  -8  114.14    5.50
  -2  10   8  115.49    4.74
   2  10   8  117.08    4.93
  -2 -10   8  119.33    3.08
   2 -10  -9  120.52    7.46
  -2 -10   9  134.86    4.08
  -2 -10  -9  127.36    5.99
  -2 -10   9  125.70    3.69
  -2  10   9  119.80    5.07
  -2 -10   9  126.42    3.35
   2  10   9  119.98    5.20
  -2 -10  10    8.10    0.85
  -2 -10  10    9.32    1.09
  -2 -10 -10    7.21    1.54
  -2 -10  10    8.30    1.01
  -2  10  10    9.80    1.50
  -2 -10 -11    2.37    1.26
  -2 -10  11    2.56    0.63
  -2 -10 -12  122.92    6.54
  -2 -10 -13  266.91   10.08
  -2 -10 -14   34.82    3.63
  -2 -10 -15   83.78    5.88
   2 -11   0   70.03    2.40
  -2 -11   0   59.07    2.69
  -2 -11   0   52.63    3.68
   2 -11  -1    3.29    0.72
  -2 -11  -1    1.29    0.47
  -2 -11   1    2.63    0.62
  -2 -11  -1    1.50    0.96
  -2  11   2    0.21    0.21
   2 -11  -2    0.67    0.42
  -2 -11  -2    1.79    0.78
  -2 -11   2    1.21    0.44
  -2 -11  -2    1.60    0.68
  -2 -11  -3    3.70    1.32
   2 -11  -3    3.20    0.75
  -2 -11  -3    5.14    0.97
  -2 -11   3    4.58    0.59
  -2  11   3    4.15    0.59
   2  11   4    0.31    0.47
  -2 -11   4    0.22    0.31
   2 -11  -4    1.02    0.85
  -2 -11  -4    0.98    0.88
  -2 -11   4    0.04    0.26
  -2 -11  -4   -0.16    0.50
  -2  11   4    0.09    0.37
  -2 -11   5    7.65    0.78
   2  11   5    6.34    1.03
  -2 -11  -5    5.87    1.46
   2 -11  -5    6.45    1.55
  -2 -11   5    7.26    0.64
  -2 -11  -5    6.89    1.27
  -2  11   5    5.77    0.86
   2 -11  -6    7.83    1.70
  -2 -11  -6    9.33    2.13
  -2 -11   6    6.64    0.75
  -2 -11  -6    8.24    1.40
  -2 -11   6    5.98    0.53
  -2  11   6   11.13    1.29
   2  11   6    6.46    1.14
   2 -11  -7    1.26    0.91
  -2 -11   7    0.08    0.18
  -2 -11  -7   -1.68    1.28
  -2 -11  -7    0.00    0.60
  -2 -11   7    0.20    0.22
  -2  11   7    0.17    0.49
   2  11   7    0.10    0.56
   2 -11  -8   10.46    2.18
  -2 -11  -8   14.81    2.01
   2  11   8   12.54    1.64
  -2  11   8   11.39    1.53
  -2 -11   8   10.36    0.71
  -2 -11  -9   45.07    3.65
  -2  11   9   36.80    2.76
  -2 -11 -10    2.39    1.01
  -2  11  10    2.53    0.91
  -2 -11 -11   32.91    3.34
  -2 -11 -12    4.58    1.42
  -2 -11 -13   -2.08    1.24
  -2 -11 -14    0.21    0.80
  -2 -12   0  217.64    5.47
  -2 -12  -1  156.37    4.84
  -2 -12   1  155.70    4.18
  -2 -12  -1  144.58    6.57
  -2 -12  -2    4.52    0.88
  -2 -12   2    3.36    0.55
  -2 -12  -2    2.69    1.13
  -2 -12   3   72.79    2.42
  -2 -12  -3   76.99    3.67
  -2 -12  -3   63.92    4.81
  -2 -12  -4  198.52    6.39
  -2 -12  -4  179.46    8.60
   2  12   5   -0.55    0.54
  -2 -12  -5   -0.76    1.15
  -2 -12  -5    0.24    0.49
  -2 -12  -6  185.62    9.50
  -2 -12  -6  213.88    7.27
   2  12   6  201.62    6.35
  -2 -12  -7   32.24    2.87
   2  12   7   31.98    2.59
  -2 -12  -8    0.18    0.56
  -2 -12  -9   61.06    4.23
  -2 -12 -10   96.19    5.60
  -2 -12 -11    8.35    1.79
  -2 -12 -12   67.06    5.01
  -2 -13  -4    1.00    0.65
  -2 -13  -5    7.57    1.27
  -2 -13  -6    1.67    0.73
  -2 -13  -7    0.69    0.78
  -2 -13  -8   24.67    2.68
  -3   0  -1    0.32    0.30
  -3   0   2  890.61   11.65
  -3   0  -2  865.82   11.21
   3   0   2  838.32   11.18
  -3   0   3    0.86    0.48
   3   0  -3    0.47    0.31
  -3   0  -3    0.40    0.34
   3   0   3    0.54    0.31
   3   0  -4   58.14    2.58
  -3   0   4   67.33    2.86
  -3   0  -4   67.37    2.34
   3   0   4   67.74    2.26
  -3   0   5   -0.03    0.54
   3   0  -5    0.66    0.37
  -3   0  -5    0.79    0.42
   3   0   5    1.01    0.39
  -3   0   6   87.86    3.96
   3   0  -6   69.83    3.23
  -3   0  -6   85.75    3.08
   3   0   6   82.16    2.88
   3   0  -7    0.20    0.41
  -3   0   7    0.08    0.59
  -3   0  -7    2.74    0.71
   3   0   7    1.12    0.49
   3   0  -8  790.28   14.22
  -3   0   8  813.51   15.85
  -3   0  -8  780.98   12.88
   3   0   8  780.15   12.54
   3   0  -9    0.92    0.59
  -3   0   9   -0.25    0.95
  -3   0  -9    0.34    0.47
   3   0   9    0.64    0.49
   3   0 -10  240.80    7.90
  -3   0  10  231.41    8.76
  -3   0 -10  248.07    6.79
   3   0  10  239.57    6.38
  -3   0  11   -1.67    1.18
   3   0 -11   -0.37    0.63
  -3   0 -11   -0.07    0.63
  -3   0  11   -0.27    0.41
  -3   0 -11    0.81    0.46
   3   0  11    0.76    0.48
   3   0 -12  489.70   12.90
  -3   0  12  485.42   13.97
  -3   0 -12  484.75   13.09
   3   0  12  509.41   10.70
  -3   0 -12  495.80   11.08
  -3   0  12  524.85   11.59
   3   0 -13    0.47    0.84
  -3   0 -13    0.10    0.70
  -3   0  13    0.52    1.16
  -3   0  13   -0.44    0.51
  -3   0 -13   -0.69    0.69
   3   0  13    0.51    0.58
   3   0 -14 2222.57   34.65
  -3   0  14 2109.16   36.50
  -3   0 -14 2210.25   36.44
  -3   0 -14 2108.33   31.34
  -3   0  14 2219.56   32.00
   3   0  14 2151.56   30.63
  -3   0 -15    0.67    1.04
  -3   0  15    0.36    0.93
   3   0 -15   -1.23    0.83
  -3   0  15   -0.31    0.71
  -3   0 -15   -0.16    0.76
   3   0  15    0.22    0.46
  -3   0  16   13.89    2.63
  -3   0 -16   14.54    2.03
  -3   0  17    0.36    0.83
  -3   0 -17   -0.23    0.73
  -3   0  18  397.76   14.56
  -3   0 -18  401.50   12.00
  -3   0  19    3.14    1.75
  -3   1   1  113.78    2.83
  -3  -1  -1  112.21    2.88
   3  -1  -2 1361.55   16.81
  -3   1   2 1351.28   17.27
   3  -1   2 1311.21   16.11
  -3  -1  -2 1426.41   16.84
   3   1   2 1432.17   16.79
  -3   1  -2 1359.60   16.16
  -3  -1   3  323.83    5.99
  -3   1   3  336.92    6.72
   3  -1  -3  336.35    6.23
  -3  -1  -3  341.14    5.95
  -3   1  -3  333.85    5.42
   3  -1   3  319.87    5.37
   3   1   3  313.73    5.82
  -3   1   4    3.27    0.82
   3  -1  -4   -0.19    0.41
  -3  -1   4    0.25    0.35
   3   1  -4    1.05    0.41
  -3  -1  -4    0.27    0.32
  -3   1  -4    0.76    0.32
   3   1   4    0.20    0.24
   3  -1   4    0.92    0.35
  -3   1   5    3.68    1.02
  -3  -1   5    2.82    0.92
   3  -1  -5    2.33    0.68
   3   1  -5    3.16    0.77
   3   1   5    3.53    0.62
   3  -1   5    2.97    0.52
  -3  -1  -5    3.99    0.70
  -3   1  -5    3.24    0.55
   3   1  -6   61.16    2.85
  -3  -1   6   62.54    3.27
   3  -1  -6   61.59    3.20
  -3   1   6   64.74    3.69
  -3  -1  -6   66.73    2.79
  -3   1  -6   71.22    2.64
   3  -1   6   66.46    2.48
   3   1   6   63.87    2.62
   3   1  -7  336.25    7.80
   3  -1  -7  320.46    8.57
  -3  -1   7  375.23    9.03
  -3   1   7  338.26    9.49
  -3   1  -7  356.15    7.10
  -3  -1  -7  359.57    7.50
   3   1   7  348.87    7.19
   3  -1   7  342.99    6.77
   3  -1  -8  292.61    8.18
   3   1  -8  307.50    7.59
  -3  -1   8  297.69    8.58
  -3   1   8  291.90    9.04
  -3  -1  -8  297.13    7.08
  -3   1  -8  288.07    6.58
   3   1   8  296.36    6.82
   3  -1   8  287.41    6.39
   3   1  -9    4.73    1.07
  -3   1   9    2.33    1.09
   3  -1  -9    3.30    1.08
  -3  -1   9    3.05    0.98
  -3   1  -9    3.24    0.76
  -3  -1  -9    4.87    0.93
   3   1   9    3.86    0.76
   3  -1   9    4.09    0.83
   3  -1 -10  187.19    7.16
   3   1 -10  173.19    6.18
  -3  -1  10  171.80    7.19
  -3   1  10  182.62    7.75
   3   1  10  168.79    5.39
  -3  -1 -10  174.29    5.74
  -3   1 -10  177.51    5.57
   3  -1  10  179.53    5.31
  -3   1  10  191.26    6.17
   3   1 -11    3.33    1.13
  -3   1  11    5.83    1.58
  -3  -1  11    4.55    1.40
  -3   1 -11    3.62    0.99
   3  -1 -11    6.06    1.28
  -3  -1 -11    4.03    0.98
  -3   1  11    6.12    1.11
  -3   1 -11    6.20    1.11
   3  -1  11    6.49    1.06
   3   1  11    4.45    0.93
   3   1 -12    3.14    1.12
  -3  -1 -12    2.79    1.05
  -3   1  12    2.25    0.97
  -3  -1  12    1.31    0.99
  -3   1 -12    1.51    0.79
   3  -1 -12    2.43    0.89
  -3  -1  12    3.24    0.89
  -3   1  12    1.29    0.72
  -3   1 -12    1.50    0.62
  -3  -1 -12    3.61    1.06
   3  -1  12    3.26    0.84
   3   1  12    2.14    0.68
   3   1 -13   26.65    2.78
   3  -1 -13   20.85    2.69
  -3  -1  13   20.47    2.80
  -3   1  13   19.22    3.10
  -3  -1 -13   17.05    2.49
  -3   1 -13   21.72    2.74
   3  -1  13   20.36    2.00
  -3   1  13   20.30    2.22
  -3   1 -13   19.06    2.09
   3   1  13   23.39    2.18
  -3  -1 -13   21.02    2.26
  -3  -1  13   20.28    2.18
   3   1 -14    4.28    1.09
   3  -1 -14    5.14    1.39
  -3  -1  14    0.52    0.85
  -3  -1 -14    3.84    1.46
  -3   1 -14    4.90    1.52
  -3   1  14    4.39    1.51
  -3   1  14    6.12    1.27
  -3   1 -14    4.83    1.25
  -3  -1  14    3.40    1.09
  -3  -1 -14    2.51    0.88
   3   1  14    3.11    0.82
   3  -1  14    6.08    1.21
   3   1 -15   63.03    4.56
  -3  -1 -15   54.03    3.84
   3  -1  15   58.14    3.64
  -3  -1  15   63.45    4.08
   3   1  15   62.73    3.84
  -3   1 -15   61.93    3.98
  -3  -1 -15   61.25    5.24
  -3   1  15   58.68    5.15
  -3  -1  15   54.94    4.92
  -3   1 -15   58.78    4.96
  -3  -1 -16   42.11    3.55
   3  -1  16   45.14    3.28
  -3   1 -16   40.72    3.36
  -3   1  16   38.66    4.40
  -3  -1  16   40.52    4.39
  -3   1 -16   43.95    4.37
  -3   1 -17   14.21    2.15
  -3  -1 -17   11.53    1.96
  -3   1  17   30.55    3.94
  -3  -1  17   16.73    2.90
  -3  -1 -18   52.69    4.22
  -3  -1  18   51.58    5.11
  -3   1  18   53.79    5.34
  -3  -1 -19    9.57    1.87
  -3  -1  19   10.20    2.84
  -3  -1  20    1.61    1.68
  -3  -2   0    0.39    0.28
  -3   2   0    1.39    0.34
  -3   2   1 9777.79  101.52
   3  -2  -1 9690.66  100.95
   3   2   1 9569.38  101.38
  -3  -2  -1 9618.69  101.43
   3  -2  -2  312.55    5.82
  -3   2   2  318.64    6.33
  -3   2  -2  312.39    4.90
  -3  -2  -2  332.32    5.84
   3   2   2  329.26    5.80
  -3  -2   3  163.59    3.89
  -3   2   3  171.10    4.88
   3  -2  -3  147.51    4.20
  -3   2  -3  160.06    3.21
   3   2   3  165.28    3.95
   3  -2   3  160.70    3.22
  -3  -2  -3  167.07    4.02
  -3   2   4  623.83   11.54
   3  -2  -4  616.90   10.61
  -3  -2   4  618.23    9.69
   3   2   4  617.13    9.57
  -3   2  -4  623.43    8.65
   3  -2   4  608.72    8.51
  -3  -2  -4  625.53    9.78
  -3  -2   5 1313.87   17.71
   3  -2  -5 1257.00   18.87
   3   2  -5 1276.60   16.84
  -3   2   5 1294.32   20.44
  -3  -2  -5 1291.93   17.38
  -3   2  -5 1312.56   16.22
   3  -2   5 1308.98   15.95
   3   2   5 1244.82   17.01
   3  -2  -6  153.98    5.59
   3   2  -6  165.46    4.52
  -3  -2   6  178.97    5.33
  -3   2   6  162.49    6.18
  -3  -2  -6  186.20    4.98
  -3   2  -6  164.45    4.08
   3   2   6  179.81    4.68
   3  -2   6  165.99    3.93
   3  -2  -7   56.25    3.57
   3   2  -7   76.95    3.17
  -3  -2   7   76.53    3.68
  -3   2   7   65.37    4.05
  -3  -2  -7   68.03    3.10
  -3   2  -7   64.95    2.65
   3   2   7   69.63    2.96
   3  -2   7   63.44    2.49
   3   2  -8   56.99    2.92
   3  -2  -8   48.38    3.58
  -3  -2   8   48.29    3.26
  -3   2   8   55.09    3.89
  -3  -2  -8   54.84    2.93
  -3   2  -8   51.43    2.48
   3  -2   8   53.47    2.42
   3   2   8   58.47    2.82
   3   2  -9  875.52   15.07
   3  -2  -9  925.15   17.63
  -3  -2   9  917.74   17.31
  -3   2   9  918.76   18.77
  -3   2   9  884.62   15.33
  -3   2  -9  917.91   14.29
  -3  -2  -9  895.15   15.15
   3  -2   9  899.49   13.77
   3   2   9  903.02   14.71
   3   2 -10  538.41   11.26
   3  -2 -10  539.49   13.25
  -3   2  10  527.84   14.02
  -3  -2  10  513.40   13.10
  -3   2 -10  537.26   11.99
  -3   2 -10  521.40   10.27
   3  -2  10  524.85    9.89
  -3  -2 -10  547.33   11.25
  -3   2  10  526.90   11.27
   3   2  10  532.14   10.70
   3   2 -11 1149.62   19.01
   3  -2 -11 1104.73   21.60
  -3  -2  11 1128.53   21.54
  -3   2 -11 1115.49   20.16
  -3   2  11 1094.61   22.56
  -3   2  11 1120.82   18.84
   3   2  11 1126.43   17.96
  -3   2 -11 1121.54   17.69
  -3  -2 -11 1098.41   18.58
   3  -2  11 1093.23   16.97
   3   2 -12    4.19    1.16
   3  -2 -12    2.90    1.06
  -3  -2  12    6.06    1.66
  -3   2  12    3.89    1.37
  -3  -2 -12    3.41    1.42
  -3   2 -12    4.23    1.26
  -3   2  12    3.86    1.02
  -3  -2 -12    5.54    1.22
  -3   2 -12    3.76    0.87
   3  -2  12    3.50    0.81
   3   2  12    4.39    0.99
   3   2 -13   24.80    2.60
   3  -2 -13   27.35    3.21
  -3   2 -13   26.32    2.93
  -3  -2  13   20.90    2.78
  -3  -2 -13   28.14    3.28
  -3   2  13   26.38    3.35
  -3   2  13   27.74    2.56
  -3  -2 -13   26.17    2.57
   3  -2  13   26.08    2.19
   3   2  13   26.14    2.30
  -3   2 -13   29.33    2.50
  -3  -2  13   23.65    2.29
   3   2 -14   -0.43    0.54
  -3  -2  14    1.22    1.21
  -3   2  14    0.94    1.04
   3  -2 -14    1.20    1.01
  -3  -2 -14   -0.12    0.65
  -3   2 -14   -0.09    0.91
  -3   2 -14   -0.39    0.72
  -3  -2  14    0.36    0.52
  -3   2  14    0.39    0.53
  -3  -2 -14    1.27    0.75
   3  -2  14   -0.06    0.43
   3   2  14    0.08    0.42
   3   2 -15  217.48    8.33
  -3  -2  15  214.48    7.70
  -3  -2 -15  195.15    7.61
  -3   2 -15  206.56    7.32
   3  -2  15  224.95    7.25
  -3  -2  15  192.71    9.22
  -3   2  15  201.01    9.67
  -3   2 -15  208.53    9.30
   3   2 -16  159.48    7.33
   3  -2  16  155.84    6.23
  -3  -2 -16  150.99    6.86
  -3   2 -16  150.44    6.46
  -3  -2  16  138.48    8.06
  -3   2  16  146.00    8.33
  -3   2 -16  156.15    8.33
  -3  -2 -17  244.14    9.11
  -3   2  17  244.15   11.40
  -3  -2  17  244.82   10.99
  -3   2 -17  250.95   10.98
  -3  -2 -18   18.08    2.56
  -3  -2  18   17.38    3.09
  -3  -2 -19   14.35    2.35
  -3  -2  19   17.32    3.05
  -3  -2 -20    1.42    0.98
  -3  -2  20    0.96    1.32
  -3  -3   0   -0.04    0.33
  -3   3   0   -0.51    0.39
  -3   3   1 2164.65   26.13
   3   3   1 2200.10   25.45
   3  -3  -1 2148.96   24.96
  -3   3  -1 2164.18   24.22
  -3  -3  -1 2206.71   25.46
   3  -3  -2   23.76    1.47
  -3   3   2   26.92    1.83
   3   3   2   34.25    1.68
  -3   3  -2   26.12    1.02
  -3  -3  -2   33.05    1.66
  -3   3   3  355.36    8.10
   3  -3  -3  357.43    7.21
   3   3   3  350.38    6.56
  -3  -3  -3  348.10    6.62
  -3   3  -3  353.36    5.17
   3  -3  -4   43.69    2.50
  -3  -3   4   38.10    1.85
  -3   3   4   41.58    2.81
  -3   3  -4   42.64    1.51
  -3  -3  -4   41.66    2.11
   3  -3   4   42.60    1.49
   3   3   4   38.44    1.94
  -3  -3   5  381.45    7.42
   3  -3  -5  402.22    9.00
  -3   3   5  399.19    9.91
  -3  -3  -5  394.99    7.76
  -3   3  -5  399.09    6.37
   3  -3   5  392.09    6.15
   3   3   5  389.71    7.49
   3  -3  -6  127.05    5.16
  -3  -3   6  132.72    4.36
  -3   3   6  123.67    5.66
  -3   3  -6  131.34    3.42
  -3  -3  -6  133.70    4.37
   3   3   6  129.97    4.08
   3  -3   6  129.00    3.22
   3  -3  -7  273.52    8.15
   3   3  -7  245.30    5.84
  -3  -3   7  249.63    6.86
  -3   3   7  267.69    8.76
  -3   3  -7  263.64    5.54
  -3  -3  -7  261.97    6.63
  -3   3   7  263.11    6.74
   3   3   7  258.02    6.32
   3  -3   7  267.77    5.35
   3   3  -8   18.91    1.61
  -3  -3   8   26.20    2.32
   3  -3  -8   30.83    2.79
  -3   3   8   28.59    3.00
  -3  -3  -8   23.79    1.96
  -3   3  -8   27.36    1.74
  -3   3   8   29.05    2.16
   3  -3   8   29.73    1.70
   3   3   8   23.44    1.86
   3   3  -9   14.89    1.56
   3  -3  -9   13.97    2.14
  -3   3   9   17.62    2.37
  -3  -3   9   11.44    1.70
  -3   3  -9   14.75    1.62
  -3   3  -9   14.06    1.33
  -3   3   9   14.76    1.66
  -3  -3  -9   12.11    1.50
   3  -3   9   16.33    1.36
   3   3   9   14.74    1.53
   3   3 -10    4.46    0.95
   3  -3 -10    4.77    1.25
  -3   3 -10    5.31    1.11
  -3   3  10    5.81    1.56
  -3  -3  10    5.70    1.49
  -3   3  10    7.37    1.23
  -3  -3 -10    5.36    1.13
  -3   3 -10    6.61    1.03
   3  -3  10    5.92    0.91
   3   3  10    6.63    1.16
   3   3 -11  150.69    5.53
   3  -3 -11  122.43    6.60
  -3   3 -11  143.84    6.01
  -3   3  11  128.13    6.89
  -3  -3  11  131.39    6.39
  -3   3  11  134.09    5.45
  -3   3 -11  133.25    4.76
   3  -3  11  130.42    4.48
  -3  -3 -11  139.88    5.54
   3   3  11  148.91    5.38
   3  -3 -12   34.76    3.72
   3   3 -12   40.35    2.97
  -3   3  12   41.09    3.16
  -3  -3 -12   41.17    3.12
  -3   3 -12   41.89    2.74
   3   3  12   38.51    2.81
   3  -3  12   42.98    2.62
  -3   3 -12   41.31    3.40
  -3  -3 -12   37.73    3.97
  -3   3  12   34.04    3.86
  -3  -3  12   37.95    3.63
   3   3 -13   19.07    2.11
  -3   3  13   20.27    2.23
   3  -3  13   21.03    1.93
   3   3  13   23.67    2.27
  -3  -3 -13   23.12    2.45
  -3   3 -13   20.05    2.01
  -3  -3  13   24.14    2.35
   3  -3 -13   20.05    2.80
  -3   3  13   16.89    2.62
  -3  -3 -13   22.14    3.01
  -3  -3  13   19.97    2.96
  -3   3 -13   18.34    2.34
   3   3 -14   60.12    3.93
  -3  -3  14   58.84    3.79
  -3  -3 -14   58.96    4.04
   3  -3  14   55.30    3.29
  -3   3  14   50.98    3.70
  -3   3 -14   52.22    3.38
  -3   3 -14   55.51    4.42
  -3   3  14   48.84    4.59
  -3  -3  14   52.77    4.61
   3   3 -15   46.68    3.57
  -3  -3  15   42.64    3.35
  -3  -3 -15   44.40    3.61
   3  -3  15   47.83    3.18
  -3   3  15   44.11    4.52
  -3   3 -15   44.92    4.13
  -3  -3  15   42.92    4.28
   3   3 -16  130.20    6.32
  -3  -3  16  123.08    7.46
  -3   3 -16  125.67    7.17
  -3   3  16  134.11    8.21
   3  -3  16  125.08    5.45
  -3  -3 -16  126.06    6.31
  -3  -3  17   16.79    2.87
  -3   3 -17   18.51    2.90
  -3  -3 -17   16.88    2.41
   3  -3  17   16.23    2.03
  -3  -3  18    1.35    1.40
  -3  -3 -18    1.64    1.25
  -3  -3  19    8.84    2.24
  -3  -3 -19    9.92    1.95
  -3  -3  20    2.91    1.85
  -3  -3 -20    2.39    1.33
  -3   4   0    0.44    0.36
   3  -4   0    0.86    0.32
  -3  -4   0   -0.34    0.36
  -3   4  -1    1.70    0.36
  -3   4   1    0.42    0.38
   3  -4  -1    0.63    0.32
  -3  -4   1    0.70    0.37
   3   4   1    1.09    0.41
  -3  -4  -1    0.33    0.33
  -3   4   2 1695.18   23.02
   3  -4  -2 1658.54   21.33
  -3   4  -2 1679.08   18.94
   3   4   2 1693.84   20.87
  -3   4  -2 1674.84   18.39
  -3  -4  -2 1689.91   20.98
  -3   4   3    2.88    0.86
   3  -4  -3    2.53    0.67
  -3   4  -3    3.03    0.31
   3   4   3    3.20    0.60
  -3  -4  -3    1.77    0.49
  -3   4  -3    3.14    0.35
   3  -4  -4 1639.68   22.87
  -3  -4   4 1613.33   20.17
  -3   4   4 1703.28   24.59
  -3   4  -4 1617.21   18.40
  -3  -4  -4 1645.19   21.27
   3   4   4 1591.51   20.85
  -3  -4   5  237.46    5.44
   3  -4  -5  257.81    7.37
  -3   4   5  262.55    8.00
  -3   4  -5  250.54    4.41
  -3  -4  -5  242.42    6.04
  -3   4   5  258.50    6.06
   3  -4   5  251.07    4.28
   3   4   5  242.63    5.79
   3  -4  -6  162.33    6.11
  -3  -4   6  160.78    4.69
  -3   4   6  174.37    6.76
  -3   4   6  164.85    5.01
  -3   4  -6  168.67    3.80
  -3  -4  -6  168.87    5.14
   3   4   6  166.12    4.81
   3  -4   6  170.58    3.56
   3  -4  -7   30.15    2.68
  -3  -4   7   27.77    2.10
  -3   4   7   30.03    2.83
  -3   4  -7   31.11    1.88
  -3   4   7   28.21    2.09
  -3   4  -7   29.33    1.56
  -3  -4  -7   28.68    2.19
   3  -4   7   28.79    1.45
   3   4   7   26.34    1.92
  -3  -4   8 2213.31   29.53
   3  -4  -8 2092.44   31.80
  -3   4   8 2075.87   32.88
  -3   4  -8 2144.18   27.55
  -3   4   8 2082.73   28.43
  -3   4  -8 2114.92   25.81
  -3  -4  -8 2104.20   28.65
   3  -4   8 2114.41   25.38
   3   4   8 2136.89   27.96
   3   4  -9   92.57    3.59
  -3  -4   9   97.80    4.68
   3  -4  -9   93.94    5.31
  -3   4   9   99.15    5.70
  -3   4  -9   95.28    4.11
  -3   4  -9   94.32    3.40
  -3   4   9   97.01    4.30
  -3  -4  -9   99.09    4.39
   3  -4   9   94.97    3.22
   3   4   9   98.29    4.12
   3  -4 -10  328.81   10.72
   3   4 -10  334.60    7.73
  -3  -4  10  312.91    9.49
  -3   4 -10  328.73    8.64
  -3   4  10  342.10   11.23
  -3   4 -10  326.93    7.31
  -3   4  10  336.10    8.83
  -3  -4 -10  331.08    8.82
   3   4  10  345.89    8.45
   3  -4  10  341.24    7.12
   3   4 -11    5.61    1.04
   3  -4 -11    5.65    1.83
  -3   4  11    5.55    1.77
  -3   4 -11    4.42    1.07
  -3  -4  11    6.29    1.40
  -3  -4 -11    4.87    1.14
  -3   4 -11    4.10    0.85
  -3   4  11    5.35    1.11
   3   4  11    6.62    1.20
   3  -4  11    6.12    0.95
   3  -4 -12  968.46   21.23
   3   4 -12  994.10   16.74
  -3  -4 -12 1020.21   22.35
  -3  -4  12  957.70   20.06
  -3   4 -12  972.92   18.57
  -3   4  12  940.83   21.59
  -3   4  12  993.45   18.06
  -3   4 -12  985.00   16.18
   3  -4  12  987.10   15.63
  -3  -4 -12  962.82   18.19
   3   4  12 1001.63   17.41
   3   4 -13    2.59    1.12
  -3   4  13    3.54    1.58
  -3   4 -13    3.90    1.23
  -3  -4 -13    5.34    1.61
  -3  -4  13    2.85    1.17
   3  -4 -13    3.48    1.56
  -3  -4  13    3.66    1.07
  -3  -4 -13    2.32    0.99
  -3   4  13    3.06    1.03
   3  -4  13    1.39    0.55
   3   4  13    2.86    0.92
   3   4 -14  754.48   14.99
  -3   4  14  775.99   19.96
  -3  -4  14  692.57   17.97
  -3   4 -14  756.40   16.96
   3  -4  14  749.58   13.76
  -3  -4 -14  726.38   16.06
  -3  -4  14  734.00   15.12
   3   4 -15    2.02    0.93
  -3  -4  15    0.53    0.88
  -3   4 -15    1.83    1.12
  -3   4  15    2.06    1.33
  -3  -4  15    2.65    0.88
  -3  -4 -15    3.63    1.21
   3  -4  15    2.18    0.73
   3   4 -16  129.12    6.02
  -3   4 -16  120.34    6.68
  -3  -4  16  118.12    7.16
  -3  -4 -16  122.74    6.39
  -3  -4  16  126.30    5.97
   3  -4  16  120.62    5.22
  -3   4 -17  118.51    6.88
  -3  -4  17  108.06    7.17
   3  -4  17  119.38    5.36
  -3  -4 -17  109.36    6.20
  -3   4 -18  118.77    7.10
  -3  -4  18  115.04    7.60
  -3  -4 -18  124.64    6.89
  -3  -4  19   16.56    2.97
  -3  -4 -19   12.75    2.26
  -3  -4  20  214.14   10.95
  -3  -4 -20  206.54    9.47
  -3   5   0   -0.17    0.36
   3  -5   0    0.12    0.19
  -3  -5   0   -0.17    0.31
   3  -5  -1   39.91    1.88
   3   5   1   37.91    1.89
  -3   5  -1   37.86    1.78
  -3   5   1   38.31    2.28
  -3   5   1   37.77    1.58
  -3  -5   1   38.17    1.83
  -3  -5  -1   37.49    1.89
   3  -5  -2   45.63    2.30
  -3   5  -2   42.02    1.57
  -3   5   2   44.09    2.64
  -3   5   2   46.92    1.96
  -3  -5  -2   44.94    2.17
   3   5   2   45.60    2.14
  -3  -5   2   44.74    1.98
   3  -5  -3  152.50    4.91
  -3   5   3  161.82    5.61
  -3   5   3  150.48    4.04
  -3  -5  -3  153.62    4.39
   3   5   3  149.66    4.24
   3  -5  -4  159.30    5.49
  -3   5   4  164.05    5.99
  -3   5   4  149.39    4.28
  -3   5  -4  151.78    2.47
  -3  -5  -4  129.77    4.25
   3   5   4  137.17    4.17
  -3  -5   5    3.57    0.61
   3  -5  -5    7.39    1.32
  -3   5   5    6.40    1.35
  -3   5  -5    6.47    0.51
  -3   5   5    7.05    0.97
  -3  -5  -5    4.26    0.79
   3   5   5    4.57    0.77
   3  -5  -6   46.19    3.31
  -3  -5   6   38.80    2.18
  -3   5   6   48.99    3.60
  -3   5  -6   43.80    1.73
  -3   5  -6   41.43    1.56
  -3  -5  -6   40.04    2.53
  -3   5   6   46.76    2.63
   3   5   6   42.35    2.41
   3  -5   6   43.58    1.51
  -3  -5   7   14.84    1.51
   3  -5  -7   14.38    2.06
  -3   5   7   15.35    2.13
  -3   5  -7   16.74    1.25
  -3   5  -7   15.98    1.08
  -3   5   7   17.66    1.74
  -3  -5  -7   13.87    1.56
   3   5   7   15.19    1.50
   3  -5   7   16.63    1.03
  -3  -5   8   29.42    2.32
   3  -5  -8   33.60    3.10
  -3   5  -8   33.26    2.00
  -3   5   8   33.33    3.33
  -3   5   8   35.46    2.50
  -3  -5  -8   32.66    2.47
   3   5   8   34.16    2.34
   3  -5   8   34.28    1.63
  -3  -5   9  156.25    5.91
   3  -5  -9  166.86    7.45
  -3   5   9  166.21    7.51
  -3   5  -9  167.16    5.14
  -3   5   9  163.05    5.76
  -3  -5  -9  160.54    5.88
   3   5   9  156.80    5.44
   3  -5   9  167.13    4.19
  -3  -5  10   22.29    2.36
  -3   5 -10   23.02    1.98
   3  -5 -10   20.00    2.69
  -3   5  10   19.65    2.80
  -3  -5 -10   21.94    2.25
  -3   5  10   23.43    2.21
   3   5  10   21.17    2.01
   3  -5  10   19.69    1.46
   3   5 -11   19.37    1.74
  -3   5 -11   26.97    2.31
   3  -5 -11   26.18    3.18
  -3  -5  11   18.40    2.26
  -3   5  11   25.20    3.16
  -3   5  11   28.07    2.53
  -3  -5 -11   21.09    2.30
   3   5  11   21.76    2.10
   3  -5  11   26.30    1.79
   3   5 -12   11.83    1.49
  -3  -5  12   14.68    2.30
   3  -5 -12    9.01    1.94
  -3  -5 -12   14.03    2.50
  -3   5  12   12.74    2.49
  -3   5 -12    9.70    1.48
  -3   5  12   10.00    1.62
  -3  -5 -12   16.83    2.10
   3  -5  12   11.43    1.28
   3   5  12   16.83    1.90
   3   5 -13   19.28    1.93
  -3  -5  13   15.22    2.41
  -3   5  13   18.87    3.15
  -3   5 -13   18.54    2.16
  -3   5  13   20.54    2.28
  -3  -5 -13   16.84    2.20
  -3  -5  13   19.47    2.12
   3  -5  13   17.18    1.67
   3   5 -14   39.27    2.89
  -3   5 -14   44.91    3.56
  -3  -5  14   38.21    3.79
  -3  -5 -14   39.21    3.41
   3  -5  14   40.47    2.67
  -3  -5  14   39.41    3.05
   3   5 -15   10.40    1.62
  -3   5 -15   12.77    2.00
  -3  -5  15   13.27    2.46
  -3  -5  15   10.07    1.57
  -3  -5 -15   10.73    1.95
   3  -5  15   14.95    1.71
   3   5 -16   10.41    1.70
  -3   5 -16   12.41    2.06
  -3  -5  16   12.69    2.42
  -3  -5  16   10.87    1.69
  -3  -5 -16    9.94    1.94
   3  -5  16   13.44    1.72
   3   5 -17   19.99    2.35
  -3  -5  17   19.54    3.10
  -3   5 -17   20.03    2.68
  -3  -5 -17   15.49    2.48
   3  -5  17   20.66    2.14
  -3  -5  18    2.99    1.24
  -3   5 -18    8.85    1.85
  -3  -5 -18    8.81    2.03
  -3   5 -19    9.69    2.13
  -3  -5  19   15.39    2.88
  -3  -5 -19   17.55    2.85
  -3  -5 -20    0.62    0.98
   3  -6   0   -0.16    0.20
  -3   6   0    0.36    0.41
  -3   6   0    0.12    0.19
  -3  -6   0   -0.02    0.40
   3  -6  -1 1734.46   21.55
  -3   6   1 1700.33   22.84
  -3   6   1 1672.44   20.23
  -3  -6   1 1732.29   21.34
  -3  -6  -1 1770.15   21.88
   3  -6  -2   49.19    2.55
  -3   6   2   51.49    2.90
  -3   6   2   48.43    2.03
  -3  -6   2   51.90    2.19
  -3  -6  -2   46.27    2.33
   3   6   2   52.24    2.40
  -3  -6   3    1.43    0.47
   3  -6  -3    1.79    0.53
  -3   6   3    0.35    0.53
  -3   6   3    2.00    0.54
  -3  -6  -3    0.68    0.42
   3   6   3    1.22    0.46
   3  -6  -4  176.56    6.09
  -3   6   4  178.59    6.36
  -3   6   4  172.00    4.74
  -3  -6  -4  171.18    5.10
   3   6   4  167.69    4.81
  -3  -6   5 1820.84   22.59
   3  -6  -5 1829.89   27.20
  -3   6   5 1801.97   27.54
  -3  -6  -5 1834.80   24.66
  -3   6   5 1760.32   23.79
   3   6   5 1812.02   23.90
  -3  -6   6    7.95    0.99
   3  -6  -6    8.44    1.62
  -3   6   6    7.96    1.61
  -3  -6  -6    6.91    1.17
  -3   6   6    5.51    0.93
   3   6   6    7.46    1.06
   3  -6  -7 1101.86   20.84
  -3  -6   7 1138.64   16.90
  -3   6   7 1118.57   21.21
  -3   6   7 1133.56   17.67
  -3  -6  -7 1109.68   18.11
   3  -6   7 1114.91   13.37
   3   6   7 1121.92   17.36
  -3   6  -8   14.12    0.88
  -3  -6   8    9.71    1.29
   3  -6  -8   11.44    2.12
  -3   6   8   13.93    2.25
  -3   6   8   13.55    1.58
  -3  -6  -8   10.14    1.42
   3   6   8   11.01    1.37
   3  -6   8   12.82    0.90
  -3   6  -9  412.89    7.24
  -3  -6   9  413.16   10.04
  -3   6   9  410.04   12.82
   3  -6  -9  402.90   12.30
  -3   6   9  411.67    9.92
  -3  -6  -9  408.04   10.24
   3  -6   9  415.98    6.96
   3   6   9  420.26    9.60
   3  -6 -10    4.42    1.36
  -3  -6  10    1.06    0.63
  -3   6 -10    2.76    0.60
  -3   6  10    2.11    0.75
  -3  -6 -10    3.27    1.09
   3   6  10    2.99    0.82
   3  -6  10    2.08    0.48
  -3   6 -11  489.18    9.63
  -3  -6  11  478.80   12.33
  -3  -6 -11  496.05   15.84
   3  -6 -11  496.48   14.86
  -3  -6 -11  483.80   12.11
  -3   6  11  506.35   11.86
   3   6  11  510.18   11.42
   3  -6  11  500.40    8.85
  -3   6 -12   11.11    1.41
  -3  -6  12   10.28    1.91
  -3   6  12    9.14    1.62
  -3  -6 -12    7.94    1.56
   3  -6  12    9.14    1.13
  -3   6 -13   63.81    3.52
  -3  -6  13   54.66    4.38
  -3  -6 -13   60.21    4.20
  -3  -6  13   60.72    3.67
   3  -6  13   60.50    2.97
   3   6 -14    4.10    0.98
  -3  -6  14    4.99    1.55
  -3   6 -14    3.95    1.03
  -3  -6  14    3.56    0.97
  -3  -6 -14    4.16    1.10
   3  -6  14    5.20    0.99
  -3   6 -15  377.55   10.17
   3   6 -15  369.25    9.30
  -3  -6  15  353.01   12.13
  -3  -6 -15  365.22   11.59
  -3  -6  15  362.14   10.13
   3  -6  15  379.34    8.94
   3   6 -16   69.64    3.95
  -3   6 -16   70.31    4.32
  -3  -6  16   64.34    5.17
  -3  -6 -16   64.37    4.81
  -3  -6  16   64.27    4.14
   3  -6  16   68.42    3.71
   3   6 -17  522.20   12.26
  -3   6 -17  532.93   13.35
  -3  -6  17  526.57   15.74
  -3  -6 -17  521.06   14.98
   3  -6  17  526.81   11.78
  -3   6 -18   37.93    3.42
  -3  -6  18   38.11    4.21
  -3  -6 -18   43.43    4.17
   3  -6  18   41.71    3.16
  -3  -6  19   41.79    4.52
  -3  -6 -19   45.27    4.40
  -3  -6 -20    3.98    1.61
   3  -7   0    0.26    0.26
  -3   7   0   -0.18    0.18
  -3  -7   0    0.35    0.29
   3  -7  -1   73.24    2.83
  -3   7   1   70.71    2.16
  -3  -7  -1   70.17    2.89
  -3  -7   1   66.47    2.63
   3  -7  -2   61.12    2.96
  -3   7   2   57.66    2.22
  -3  -7  -2   64.31    2.88
  -3  -7   2   66.16    2.54
   3   7   2   67.15    2.82
   3  -7  -3   70.61    3.56
  -3   7   3   71.46    2.71
  -3  -7  -3   71.76    3.20
   3   7   3   74.51    3.09
  -3  -7   3   71.16    2.66
   3  -7  -4   90.42    4.39
  -3  -7  -4   69.95    3.35
  -3   7   4   82.26    3.15
  -3  -7   4   71.40    2.68
   3   7   4   74.81    3.23
   3  -7  -5   38.77    3.10
  -3  -7   5   46.48    2.20
  -3  -7  -5   48.04    2.85
  -3   7   5   39.80    2.35
   3   7   5   46.80    2.59
   3  -7  -6   41.74    3.37
  -3  -7   6   38.08    2.18
  -3  -7  -6   37.60    2.64
  -3   7   6   43.40    2.60
   3   7   6   39.09    2.45
  -3  -7   7    5.41    0.93
   3  -7  -7    6.42    1.48
  -3  -7  -7    4.66    1.02
  -3   7   7    6.06    1.13
   3   7   7    5.60    1.03
   3  -7  -8   19.53    2.57
  -3  -7   8    9.91    1.30
  -3  -7  -8   11.45    1.68
  -3   7   8   16.00    1.80
   3   7   8   12.79    1.56
   3  -7   8   16.00    0.81
  -3  -7   9    3.53    0.97
   3  -7  -9    1.49    1.08
  -3  -7  -9    6.50    1.50
  -3   7   9    2.06    0.70
   3  -7   9    3.11    0.46
   3   7   9    4.60    0.99
  -3   7 -10   46.05    1.43
   3  -7 -10   50.00    4.48
  -3  -7  10   44.80    3.28
  -3  -7 -10   47.46    3.53
  -3   7  10   47.28    3.28
   3  -7  10   45.09    1.86
   3   7  10   50.15    3.24
  -3   7 -11   52.47    1.97
  -3  -7  11   50.88    3.72
   3  -7 -11   50.21    4.67
  -3  -7 -11   48.71    3.72
  -3   7  11   51.10    3.53
   3  -7  11   50.36    2.17
   3   7  11   53.01    3.43
  -3   7 -12    0.97    0.35
  -3  -7  12   -0.06    0.66
  -3   7  12    0.75    0.59
  -3  -7 -12    0.10    0.59
   3  -7  12    1.09    0.44
  -3   7 -13   35.46    2.11
  -3  -7  13   26.83    3.00
  -3  -7  13   29.58    2.55
  -3  -7 -13   31.63    3.27
   3  -7  13   36.13    2.14
  -3   7 -14   34.25    2.29
  -3  -7  14   28.00    3.18
  -3  -7  14   32.05    2.73
  -3  -7 -14   27.98    3.13
   3  -7  14   34.45    2.24
  -3   7 -15    2.13    0.82
  -3  -7  15    0.20    0.87
  -3  -7  15    1.50    0.57
  -3  -7 -15    1.47    1.08
   3  -7  15    1.18    0.64
  -3   7 -16   12.16    1.59
  -3  -7  16   10.87    2.03
  -3  -7 -16   13.04    2.41
  -3  -7  16   10.78    1.71
   3  -7  16   12.80    1.55
  -3  -7  17    0.28    0.81
  -3  -7 -17    0.17    0.90
   3  -7  17    0.42    0.64
  -3  -7  18   15.98    2.68
  -3  -7 -18   12.18    2.37
  -3  -7 -19   -0.55    0.84
  -3  -7 -20    0.94    1.36
   3  -8   0    0.37    0.30
  -3   8   0    0.45    0.16
  -3  -8   0    0.17    0.32
   3  -8  -1  379.93    7.42
  -3  -8  -1  376.69    7.79
  -3   8   1  372.14    5.81
  -3  -8   1  371.75    7.27
   3   8   2  840.54   13.15
   3  -8  -2  819.89   13.75
  -3   8   2  827.45   11.51
  -3  -8  -2  857.65   13.64
  -3  -8   2  831.74   12.36
   3  -8  -3  304.63    8.01
  -3  -8  -3  299.19    7.32
  -3   8   3  297.32    6.11
  -3  -8   3  298.29    6.09
   3   8   3  302.05    7.01
   3  -8  -4  372.67    9.78
  -3   8   4  364.25    7.40
  -3  -8  -4  371.12    8.59
  -3  -8   4  356.95    6.87
   3   8   4  372.03    8.10
  -3  -8   5   90.82    3.17
   3  -8  -5   81.99    4.60
  -3  -8  -5   88.61    4.07
  -3   8   5   81.92    3.42
  -3  -8   5   90.16    3.11
   3   8   5   89.56    3.76
  -3  -8   6  176.38    4.85
   3  -8  -6  173.29    7.24
  -3  -8   6  175.73    4.57
  -3  -8  -6  173.96    6.09
  -3   8   6  180.17    5.51
   3   8   6  178.72    5.61
   3  -8  -7   26.50    2.97
  -3  -8   7   22.19    1.84
  -3  -8  -7   24.83    2.30
  -3   8   7   26.76    2.18
   3   8   7   24.42    2.06
   3  -8  -8 1219.47   23.90
  -3  -8   8 1212.88   18.59
  -3  -8  -8 1194.33   20.57
  -3   8   8 1202.08   19.32
   3   8   8 1213.05   19.32
   3  -8  -9  156.15    7.95
  -3  -8   9  159.43    5.73
  -3   8   9  159.39    5.94
  -3  -8  -9  156.45    6.38
   3   8   9  151.11    5.73
   3  -8 -10  135.33    7.57
  -3  -8  10  132.32    5.57
  -3   8  10  132.27    5.59
  -3  -8 -10  133.59    6.14
   3   8  10  130.44    5.47
   3  -8  10  129.93    2.78
  -3  -8  11    2.97    0.91
  -3   8  11    3.34    0.96
  -3  -8 -11    3.07    0.91
   3  -8  11    3.84    0.78
  -3  -8  12   20.38    2.50
  -3  -8 -12   25.28    2.91
   3  -8  12   21.44    1.35
  -3   8 -13    2.97    0.46
  -3  -8  13    3.28    1.15
  -3  -8  13    1.58    0.71
  -3  -8 -13    3.02    1.27
   3  -8  13    2.27    0.52
  -3   8 -14  437.18    7.38
  -3  -8  14  442.74   12.49
  -3  -8 -14  426.93   12.95
  -3  -8  14  402.36   10.22
   3  -8  14  442.84    8.41
  -3  -8  15    7.71    1.71
  -3  -8  15    9.54    1.57
  -3  -8 -15    8.48    1.79
  -3  -8  16   30.65    3.33
  -3  -8  16   28.53    2.76
  -3  -8 -16   30.44    3.50
  -3  -8  17    9.19    1.98
  -3  -8 -17    5.37    1.60
  -3  -8 -18  329.07   12.48
  -3  -8 -19    2.24    1.30
   3  -9   0    0.39    0.30
  -3  -9   0   -0.50    0.39
   3  -9  -1   11.12    1.11
  -3   9   1   11.00    0.72
  -3  -9   1    7.45    0.96
  -3  -9  -1    7.58    1.07
   3  -9  -2   60.08    3.05
  -3  -9  -2   66.96    3.19
  -3  -9   2   66.18    2.71
  -3   9   2   61.85    2.16
   3   9   3    5.47    0.90
   3  -9  -3    3.95    0.90
  -3  -9  -3    6.23    1.06
  -3   9   3    3.38    0.56
  -3  -9   3    4.94    0.74
   3   9   4   10.65    1.29
   3  -9  -4   11.37    1.63
  -3  -9  -4    9.73    1.37
  -3   9   4    9.52    1.07
  -3  -9   4    9.84    0.99
  -3  -9   5   -0.25    0.36
   3  -9  -5    0.51    0.58
  -3  -9  -5    0.81    0.62
  -3  -9   5    0.10    0.28
  -3   9   5    0.79    0.49
   3   9   5    1.49    0.65
  -3  -9   6    5.21    0.73
  -3  -9   6    5.45    0.92
   3  -9  -6    3.93    1.21
  -3  -9  -6    5.59    1.17
  -3   9   6    5.19    0.98
   3   9   6    5.92    1.06
  -3  -9   7   57.68    2.83
   3  -9  -7   50.99    4.17
  -3  -9  -7   64.90    3.89
  -3   9   7   52.93    3.05
   3   9   7   58.34    3.32
  -3  -9   7   60.35    2.54
  -3  -9   8   21.06    1.85
   3  -9  -8   24.52    2.99
  -3  -9  -8   21.99    2.38
  -3   9   8   20.32    1.99
   3   9   8   22.23    2.11
   3  -9  -9   64.48    5.16
  -3  -9   9   59.98    3.41
  -3  -9  -9   56.87    3.96
  -3   9   9   62.82    3.67
   3   9   9   60.10    3.60
  -3  -9  10   22.00    2.14
  -3   9  10   20.99    2.21
  -3  -9 -10   19.11    2.47
  -3  -9  11   75.11    4.21
  -3  -9 -11   67.25    4.60
  -3   9  11   65.70    4.08
  -3  -9  12   62.44    4.00
  -3  -9 -12   63.02    4.66
  -3  -9  12   53.37    3.09
   3  -9  12   57.11    1.77
  -3  -9  13    7.20    1.39
  -3  -9 -13    7.24    1.78
  -3  -9  13    7.88    1.29
  -3  -9  14    1.21    0.98
  -3  -9 -14   -0.19    1.00
  -3  -9  15   18.73    2.41
  -3  -9 -15   19.59    2.93
  -3  -9  16   -0.65    0.73
  -3  -9 -16    0.97    1.12
  -3  -9 -17   28.69    3.66
  -3  -9 -18    6.25    1.91
  -3  -9 -19   16.78    3.07
   3 -10   0    0.39    0.28
  -3 -10   0   -0.32    0.38
   3 -10  -1  152.75    4.33
  -3 -10  -1  160.14    5.07
  -3 -10   1  154.14    4.59
  -3  10   1  164.28    2.86
   3 -10  -2   99.35    3.95
  -3 -10   2   98.65    3.42
  -3 -10  -2   96.36    4.05
  -3  10   2  102.87    2.71
   3 -10  -3   40.34    2.76
  -3 -10  -3   39.55    2.66
  -3  10   3   36.68    1.80
  -3 -10   3   40.00    2.05
   3 -10  -4   20.93    2.22
  -3 -10  -4   24.03    2.18
  -3  10   4   20.40    1.50
   3  10   4   25.53    2.06
  -3 -10   4   24.65    1.55
   3 -10  -5  236.06    8.29
  -3 -10   5  235.59    5.42
  -3 -10  -5  230.92    7.27
  -3 -10   5  231.36    5.15
   3  10   5  226.90    6.61
  -3  10   5  230.99    5.88
  -3 -10   6    3.21    0.68
   3 -10  -6    3.21    0.86
  -3 -10  -6    5.64    1.22
  -3  10   6    4.28    0.84
   3  10   6    3.66    0.82
  -3 -10   6    3.15    0.52
  -3 -10   7  231.91    5.95
   3 -10  -7  225.72    9.10
  -3 -10  -7  220.51   10.43
  -3  10   7  218.48    6.47
  -3 -10  -7  244.75    7.99
  -3 -10   7  239.39    5.24
   3  10   7  238.99    7.13
  -3 -10   8    2.41    0.55
   3 -10  -8    3.02    1.16
  -3 -10   8    2.13    0.75
  -3 -10  -8    1.48    0.76
  -3  10   8    3.30    0.83
   3  10   8    1.62    0.55
   3 -10  -9   40.48    4.18
  -3 -10   9   42.58    2.75
  -3 -10  -9   40.42    3.43
  -3  10   9   39.40    2.87
  -3 -10   9   39.39    2.04
  -3 -10  10    2.64    3.26
  -3 -10 -10    4.74    1.26
  -3  10  10    3.41    0.95
  -3 -10 -11  254.15    9.44
  -3 -10  11  245.31    7.48
  -3 -10 -12   81.57    5.46
  -3 -10  12   89.84    4.45
  -3 -10 -13    6.84    1.75
  -3 -10 -14  133.15    7.32
  -3 -10 -15  128.88    7.40
  -3 -10 -16   -0.26    1.04
  -3 -10 -17   83.71    6.26
  -3 -10 -18   33.04    4.04
   3 -11   0    0.14    0.19
  -3 -11   0   -0.18    0.42
   3 -11  -1   41.79    2.05
  -3 -11   1   41.75    2.32
  -3 -11  -1   42.67    2.59
   3 -11  -2   10.92    1.24
  -3 -11  -2   18.14    1.79
  -3 -11   2   17.42    1.44
  -3  11   2   12.45    0.82
   3 -11  -3    6.64    1.22
  -3 -11  -3    3.52    0.96
  -3 -11   3    3.56    0.66
  -3  11   3    5.69    0.67
   3  11   4    0.05    0.49
   3 -11  -4    0.24    0.46
  -3 -11   4    0.15    0.32
  -3 -11  -4    0.36    0.52
  -3 -11   4    0.52    0.40
  -3  11   4    0.59    0.36
   3  11   5    2.88    0.77
  -3 -11   5    2.17    0.49
  -3 -11  -5    2.13    1.39
   3 -11  -5    1.65    0.79
  -3 -11  -5    2.28    0.83
  -3 -11   5    2.68    0.52
  -3  11   5    1.78    0.45
   3 -11  -6  114.17    6.05
  -3 -11   6  119.49    3.79
  -3 -11  -6  118.54    7.23
  -3 -11  -6  123.03    5.55
  -3 -11   6  119.27    3.35
  -3  11   6  114.87    4.20
   3  11   6  117.93    4.86
   3  11   7   13.12    1.66
   3 -11  -7   17.02    2.63
  -3 -11   7   12.75    1.25
  -3 -11  -7   12.57    1.87
  -3  11   7   15.59    1.62
  -3 -11   7   12.37    0.99
   3 -11  -8    0.65    0.77
  -3 -11   8    0.22    0.44
  -3 -11  -8    0.58    0.76
  -3 -11   8    0.25    0.29
  -3  11   8    0.24    0.49
  -3 -11  -9    1.83    0.87
  -3 -11   9    0.43    0.29
  -3  11   9    1.61    0.80
  -3 -11 -10    2.54    1.17
  -3  11  10    3.51    1.06
  -3 -11 -11    9.72    1.82
  -3 -11 -12    1.16    0.79
  -3 -11 -13    6.10    1.55
  -3 -11 -14    0.86    0.83
  -3 -11 -15    0.63    0.84
  -3 -11 -16    3.97    1.66
  -3 -11 -17    3.02    1.43
  -3 -12   0   -0.81    0.50
  -3 -12  -1   17.54    1.66
  -3 -12   1   16.89    1.49
  -3 -12  -2  136.20    4.99
  -3 -12   2  133.37    4.05
  -3 -12  -2  107.86    6.40
  -3 -12  -3    7.84    1.27
  -3 -12   3    6.02    0.79
  -3 -12  -3    6.98    1.76
  -3 -12   4   16.43    1.27
  -3 -12   4   15.81    1.19
  -3 -12  -4   16.26    1.88
  -3 -12  -4   13.88    2.52
   3  12   5   75.57    3.75
  -3 -12  -5   84.48    4.49
  -3 -12  -5   78.57    5.96
   3  12   6    1.12    0.64
  -3 -12  -6   -0.30    0.74
  -3 -12  -7    0.30    0.60
  -3 -12  -8  263.82    8.98
  -3 -12  -9   31.75    3.10
  -3 -12 -10   82.78    5.27
  -3 -12 -11   88.47    5.63
  -3 -12 -12   93.31    5.96
  -3 -12 -13   -0.05    1.04
  -3 -12 -14   90.95    6.32
  -3 -12 -15   18.60    3.01
  -3 -13  -3   13.51    1.65
  -3 -13  -4    1.96    0.77
  -3 -13  -5    2.07    0.84
  -3 -13  -6    0.31    0.86
  -3 -13  -7    6.04    1.31
  -3 -13  -8   -1.17    0.84
  -3 -13  -9    0.28    0.69
  -3 -13 -10    1.37    0.76
  -3 -13 -11    0.89    0.82
  -3 -13 -12    1.50    0.80
  -3 -13 -13   -0.54    1.06
  -4   0  -1    1.05    0.42
  -4   0   2  341.34    6.26
  -4   0  -2  341.53    6.10
   4   0   3    0.60    0.39
  -4   0   3   -0.11    0.39
  -4   0  -3    0.59    0.38
   4   0  -4  947.93   13.46
  -4   0   4  908.92   14.08
  -4   0  -4  926.52   12.95
   4   0   4  921.27   12.78
   4   0  -5    0.30    0.32
  -4   0   5   -0.53    0.58
   4   0   5    0.73    0.36
  -4   0  -5    0.69    0.35
  -4   0   6 1791.63   25.39
   4   0  -6 1840.53   24.03
  -4   0  -6 1805.37   22.99
   4   0   6 1778.78   22.62
  -4   0   7    0.06    0.61
   4   0  -7   -0.29    0.47
   4   0   7   -0.40    0.38
  -4   0  -7    0.24    0.42
  -4   0   8  367.10   10.01
   4   0  -8  344.41    8.64
  -4   0  -8  370.76    7.97
   4   0   8  354.11    7.52
   4   0  -9   -0.07    0.57
  -4   0   9    0.94    0.93
  -4   0  -9    0.02    0.44
   4   0   9   -0.13    0.35
   4   0 -10 3158.16   42.01
  -4   0  10 3198.55   45.42
  -4   0 -10 3268.46   40.28
   4   0  10 3267.56   39.56
   4   0 -11    0.63    0.56
  -4   0  11    0.01    0.74
  -4   0 -11    0.96    0.72
   4   0  11   -0.22    0.48
   4   0 -12  879.18   17.72
  -4   0  12  885.49   20.24
  -4   0 -12  884.69   16.17
   4   0  12  917.96   15.60
   4   0 -13    0.03    0.59
  -4   0  13   -1.61    1.60
  -4   0 -13    0.26    0.65
  -4   0 -13   -0.11    0.53
  -4   0  13   -0.23    0.55
   4   0  13    0.05    0.43
   4   0 -14  106.45    5.81
  -4   0  14   98.83    6.63
  -4   0 -14  103.60    6.27
  -4   0 -14   98.33    5.00
  -4   0  14  108.89    5.34
   4   0  14  100.50    4.74
  -4   0 -15    1.05    1.05
  -4   0  15    0.68    1.09
  -4   0 -15    2.62    0.98
   4   0  15   -0.01    0.42
  -4   0  16  222.07   10.61
  -4   0 -16  219.68    8.17
  -4   0  17   -0.87    1.00
  -4   0 -17    1.15    0.94
  -4   0  18  280.35   12.60
  -4   0 -18  278.92   10.00
  -4   0  19   -1.11    1.28
  -4   0 -19   -0.34    0.95
  -4   0  20   87.99    7.25
  -4   0 -20   91.22    5.90
  -4   0  21   -3.54    1.82
  -4   1   1 5843.78   62.79
  -4  -1  -1 5844.10   63.05
   4   1   2  208.55    4.69
  -4   1   2  237.18    5.10
  -4   1  -2  237.14    4.67
  -4  -1  -2  225.19    4.88
   4   1   3    5.71    0.77
  -4  -1   3    5.73    0.86
   4  -1   3    3.00    0.50
   4  -1  -3    3.66    0.63
  -4   1   3    2.00    0.65
  -4   1  -3    4.21    0.58
  -4  -1  -3    5.86    0.80
  -4  -1   4  146.26    4.22
  -4   1   4  141.77    4.56
   4  -1  -4  132.03    4.00
  -4  -1  -4  144.73    3.94
   4   1   4  133.74    3.79
  -4   1  -4  138.43    3.57
   4  -1   4  135.36    3.51
  -4   1   5    6.01    1.20
   4  -1  -5    8.28    1.06
  -4  -1   5    3.44    0.78
   4   1  -5    4.03    0.82
   4  -1   5    5.97    0.73
   4   1   5    5.59    0.81
  -4   1  -5    7.19    0.82
  -4  -1  -5    4.85    0.77
   4   1  -6  119.24    4.17
  -4  -1   6  131.98    4.80
  -4   1   6  143.99    5.54
   4  -1  -6  144.94    4.81
  -4  -1  -6  136.60    4.23
  -4   1  -6  141.93    4.01
   4   1   6  136.11    4.06
   4  -1   6  140.11    3.84
   4  -1  -7   44.96    2.83
  -4  -1   7   35.61    2.68
   4   1  -7   37.59    2.42
  -4   1   7   45.67    3.30
  -4   1  -7   47.52    2.37
  -4  -1  -7   39.02    2.34
   4   1   7   36.76    2.15
   4  -1   7   44.60    2.22
   4   1  -8  482.90    9.98
  -4  -1   8  476.67   11.40
   4  -1  -8  488.58   10.73
  -4   1   8  477.23   12.14
  -4   1  -8  488.90    9.26
  -4  -1  -8  480.69    9.67
   4   1   8  474.20    9.21
   4  -1   8  480.21    8.88
   4   1  -9  168.10    5.67
   4  -1  -9  150.12    6.07
  -4   1   9  156.78    6.98
  -4  -1   9  156.39    6.57
  -4  -1  -9  154.37    5.21
  -4   1  -9  157.20    5.05
   4  -1   9  158.92    4.80
   4   1   9  163.61    5.09
   4   1 -10    0.29    0.56
   4  -1 -10    2.54    1.09
  -4   1  10    2.36    1.13
  -4  -1  10    3.28    1.28
  -4  -1 -10    1.23    0.65
  -4   1 -10    1.73    0.69
   4  -1  10    1.15    0.54
   4   1  10    0.44    0.37
   4  -1 -11    0.01    0.61
   4   1 -11    1.16    0.70
  -4   1  11    0.59    0.82
  -4  -1  11    0.46    0.83
  -4   1 -11    1.40    0.55
  -4  -1 -11    0.88    0.52
   4  -1  11    2.32    0.77
   4   1  11    3.38    0.90
   4   1 -12   27.14    2.70
   4  -1 -12   34.29    3.21
  -4  -1  12   34.37    3.64
  -4   1  12   33.15    3.71
  -4   1  12   37.87    2.99
  -4   1 -12   36.88    2.74
  -4  -1 -12   34.22    2.75
   4  -1  12   36.11    2.51
   4   1  12   35.37    2.58
   4   1 -13   67.52    4.30
   4  -1 -13   61.38    4.48
  -4   1 -13   60.41    4.56
  -4  -1  13   58.28    5.05
  -4   1  13   55.64    4.90
  -4   1 -13   64.92    3.82
  -4  -1 -13   69.60    4.10
  -4   1  13   66.61    4.06
   4  -1  13   68.30    3.64
   4   1  13   67.14    3.71
   4   1 -14    5.57    1.31
  -4  -1 -14    4.19    1.62
   4  -1 -14    6.60    1.68
  -4   1 -14    9.55    1.94
  -4   1  14    5.73    1.62
  -4  -1  14    4.80    1.71
  -4  -1  14    5.82    1.25
  -4   1  14    8.46    1.56
  -4   1 -14    6.46    1.23
  -4  -1 -14    5.24    1.22
   4   1  14    5.34    1.19
   4  -1  14    8.35    1.42
   4   1 -15   61.98    4.52
  -4   1  15   54.96    5.35
  -4   1 -15   61.60    5.04
  -4  -1  15   61.45    5.30
  -4   1 -15   62.36    4.07
  -4  -1 -15   64.23    4.24
   4  -1  15   66.64    3.90
  -4   1 -16  144.18    6.45
  -4  -1 -16  141.58    6.63
  -4  -1  16  146.24    8.56
  -4   1  16  135.69    8.46
  -4   1 -16  147.68    8.15
  -4   1 -17   14.34    2.15
  -4  -1 -17   15.27    2.21
  -4  -1  17   13.35    2.93
  -4   1  17   12.34    2.46
  -4  -1 -18   28.00    3.13
  -4   1 -18   34.22    3.36
  -4   1  18   34.76    4.54
  -4  -1  18   24.26    3.79
  -4   1 -19    0.48    0.78
  -4  -1 -19    1.66    1.01
  -4   1  19   -0.75    1.11
  -4  -1  19    0.64    1.04
  -4  -1 -20    2.91    1.20
  -4  -1  20    2.73    1.79
  -4   1  20    3.18    1.91
  -4  -1 -21    5.67    1.62
  -4  -1  21    3.97    2.03
  -4   2   0 9999.00  104.59
  -4  -2   0 9965.85  105.47
  -4   2   1 2461.59   28.81
  -4  -2  -1 2489.55   28.98
  -4   2   2    1.53    0.40
   4  -2  -2    2.30    0.52
  -4   2  -2    1.61    0.39
   4   2   2    1.75    0.43
  -4  -2  -2    2.84    0.60
  -4   2   3 1163.51   16.87
   4  -2  -3 1183.86   15.87
  -4   2  -3 1156.34   14.58
  -4  -2  -3 1161.87   15.69
   4   2   3 1156.48   15.67
   4  -2  -4   67.49    2.89
  -4   2   4   67.11    3.27
  -4  -2   4   68.96    2.73
  -4  -2  -4   69.70    2.83
   4   2   4   67.16    2.67
   4  -2   4   63.25    2.21
  -4   2  -4   65.11    2.25
  -4   2   5  313.99    8.24
   4  -2  -5  310.03    7.24
  -4  -2   5  298.04    6.82
   4   2   5  309.16    6.49
  -4  -2  -5  313.14    6.73
   4  -2   5  306.64    5.75
  -4   2  -5  319.66    5.92
   4  -2  -6  679.77   12.38
  -4  -2   6  652.84   11.82
   4   2  -6  667.96   10.90
  -4   2   6  665.36   13.74
  -4  -2  -6  659.88   11.31
  -4   2  -6  660.20   10.30
   4  -2   6  665.07   10.06
   4   2   6  648.54   10.97
   4   2  -7  663.93   11.69
   4  -2  -7  656.14   13.30
  -4  -2   7  682.90   12.95
  -4   2   7  732.54   15.14
  -4   2  -7  725.20   11.24
  -4  -2  -7  690.51   12.07
   4  -2   7  696.98   10.78
   4   2   7  707.64   11.78
   4  -2  -8    2.70    0.88
   4   2  -8    1.64    0.65
  -4  -2   8    2.29    0.83
  -4   2   8    2.79    1.09
  -4  -2  -8    0.85    0.45
  -4   2  -8    1.78    0.54
   4   2   8    2.56    0.64
   4  -2   8    2.17    0.54
   4   2  -9 1882.99   26.02
  -4  -2   9 1879.08   28.46
   4  -2  -9 1891.88   28.25
  -4   2   9 1864.00   30.57
  -4  -2  -9 1881.30   26.15
  -4   2  -9 1856.19   24.81
   4   2   9 1863.08   25.33
   4  -2   9 1868.61   24.20
   4   2 -10   77.60    3.96
   4  -2 -10   78.16    4.57
  -4  -2  10   72.17    4.58
  -4   2  10   76.64    5.16
  -4  -2 -10   79.21    3.95
  -4   2 -10   83.37    3.67
   4  -2  10   81.54    3.42
   4   2  10   81.36    3.75
   4   2 -11   17.12    2.02
   4  -2 -11   18.09    2.29
  -4   2  11   14.09    2.64
  -4  -2  11   13.28    2.19
  -4   2 -11   16.79    1.74
  -4  -2 -11   19.78    2.08
  -4   2  11   17.89    1.93
   4  -2  11   19.31    1.74
   4   2  11   18.93    1.89
   4   2 -12    0.57    0.58
   4  -2 -12    1.72    0.96
  -4   2 -12    1.44    0.89
  -4   2  12    0.42    0.92
  -4  -2  12    0.86    0.96
  -4   2  12    1.16    0.65
  -4  -2 -12    0.33    0.50
  -4   2 -12    0.54    0.49
   4   2  12    1.63    0.73
   4  -2  12    0.77    0.51
   4  -2 -13  947.83   19.78
   4   2 -13  902.75   17.51
  -4   2  13  886.45   21.14
  -4  -2  13  838.14   20.20
  -4   2 -13  887.83   19.04
  -4   2  13  899.04   17.43
  -4   2 -13  876.53   16.29
  -4  -2 -13  869.08   17.06
   4   2  13  881.96   16.19
   4  -2  13  925.10   15.70
   4   2 -14  205.64    7.77
  -4   2 -14  195.96    8.57
  -4   2  14  198.14    9.54
  -4  -2 -14  201.07    9.41
  -4  -2  14  189.56    9.30
  -4   2 -14  195.15    6.93
  -4  -2 -14  192.44    7.38
   4   2  14  200.38    6.93
   4  -2  14  198.69    6.56
   4   2 -15  481.64   12.69
  -4   2  15  443.07   15.34
  -4   2 -15  449.75   14.04
  -4  -2  15  444.73   14.78
  -4   2 -15  460.93   11.57
  -4  -2 -15  459.30   12.22
  -4  -2  15  477.51   12.28
   4  -2  15  473.87   11.10
  -4   2 -16  231.11   10.15
  -4   2  16  219.98   10.68
  -4  -2  16  223.94   10.48
  -4   2 -16  230.52    8.17
  -4  -2 -16  240.62    8.86
   4  -2  16  239.57    7.80
  -4  -2  17  143.25    8.75
  -4   2  17  147.70    8.90
  -4   2 -17  150.36    8.48
  -4  -2 -17  156.36    7.27
  -4   2 -17  152.97    6.79
  -4  -2  18   -0.32    1.21
  -4   2  18    3.48    1.81
  -4   2 -18    1.50    0.65
  -4  -2 -18    1.80    1.00
  -4   2  19  571.53   19.08
  -4  -2  19  566.61   18.62
  -4  -2 -19  554.56   15.37
  -4   2  20    7.34    2.62
  -4  -2  20    6.62    2.12
  -4  -2 -20    7.00    1.89
  -4  -2  21   40.69    4.99
  -4  -2 -21   42.16    4.31
  -4  -2  22    6.61    2.33
  -4   3   0 2153.24   25.18
  -4  -3   0 2132.17   25.71
  -4   3   1   70.09    2.66
  -4   3  -1   67.20    2.13
  -4  -3  -1   57.52    2.43
  -4   3   2  219.74    5.65
   4  -3  -2  227.57    4.99
  -4   3  -2  224.28    4.22
   4   3   2  229.21    5.19
  -4  -3  -2  232.42    5.23
  -4   3   3   33.77    2.33
   4  -3  -3   31.27    1.92
  -4   3  -3   34.60    1.44
  -4  -3  -3   36.93    2.00
   4   3   3   32.85    1.88
  -4   3   4    3.24    0.94
   4  -3   4    3.16    0.49
   4  -3  -4    3.45    0.76
  -4  -3   4    1.69    0.54
   4   3   4    1.66    0.52
  -4  -3  -4    2.48    0.68
  -4   3  -4    3.44    0.50
  -4   3   5  328.37    8.95
   4  -3  -5  314.44    7.66
  -4  -3   5  336.13    7.00
   4   3   5  318.75    6.89
   4  -3   5  315.44    5.71
  -4   3  -5  325.52    5.85
  -4  -3  -5  337.62    7.20
   4  -3  -6   12.13    1.51
  -4  -3   6    7.37    1.07
  -4   3   6    9.50    1.63
  -4   3  -6   11.40    1.00
   4   3   6    9.00    1.10
   4  -3   6   10.97    0.95
  -4  -3  -6    7.42    1.07
   4  -3  -7  537.49   11.71
  -4  -3   7  530.44   10.81
  -4   3   7  553.06   13.36
  -4   3  -7  542.22    9.07
  -4  -3  -7  522.86   10.38
   4  -3   7  530.69    8.70
   4   3   7  519.60    9.95
  -4  -3   8   27.36    2.40
   4  -3  -8   22.70    2.49
   4   3  -8   25.51    1.90
  -4   3   8   28.41    3.05
  -4  -3  -8   27.71    2.19
  -4   3  -8   28.46    1.84
   4   3   8   26.02    2.00
   4  -3   8   28.60    1.71
   4  -3  -9  209.81    7.58
  -4  -3   9  204.83    7.20
   4   3  -9  211.22    6.00
  -4   3   9  211.30    8.56
  -4  -3  -9  206.99    6.50
  -4   3  -9  206.42    5.55
   4  -3   9  208.10    5.25
   4   3   9  203.40    6.02
   4   3 -10    0.75    0.48
   4  -3 -10    1.75    0.87
  -4  -3  10    0.48    0.89
  -4   3  10    0.98    1.03
  -4   3 -10    0.82    0.41
  -4  -3 -10    1.60    0.64
  -4   3  10    0.97    0.48
   4   3  10    1.05    0.59
   4  -3  10    2.01    0.58
   4   3 -11    7.41    1.29
  -4   3  11    5.92    1.71
  -4  -3  11    6.08    1.59
   4  -3 -11    7.17    1.62
  -4   3 -11    7.61    1.47
  -4   3  11    7.70    1.34
  -4  -3 -11    5.65    1.23
  -4   3 -11    6.30    1.11
   4   3  11    6.32    1.09
   4  -3  11    6.98    1.04
   4  -3 -12   25.62    2.86
   4   3 -12   26.53    2.37
  -4   3  12   26.91    3.39
  -4   3 -12   24.87    2.65
  -4  -3  12   24.57    2.98
  -4   3  12   23.94    2.41
  -4   3 -12   25.56    2.18
  -4  -3 -12   23.25    2.45
   4   3  12   26.17    2.32
   4  -3  12   23.19    1.92
   4   3 -13   27.95    2.58
   4  -3 -13   27.66    3.32
  -4   3 -13   30.68    3.13
  -4  -3  13   28.13    3.33
  -4   3  13   25.46    3.47
  -4   3  13   29.09    2.71
  -4   3 -13   30.17    2.46
  -4  -3 -13   29.53    2.80
   4   3  13   27.34    2.49
   4  -3  13   31.05    2.40
   4   3 -14    2.66    1.07
  -4  -3  14    1.15    0.84
  -4   3 -14    1.86    1.13
  -4   3  14    0.58    0.94
  -4   3 -14    3.00    1.05
  -4  -3 -14    0.31    0.68
   4  -3  14    3.69    0.96
   4   3 -15    2.94    0.99
  -4   3 -15    1.12    0.78
  -4   3  15    2.52    1.29
  -4  -3  15    1.16    0.89
  -4  -3  15    1.78    0.76
  -4   3 -15    1.98    0.91
  -4  -3 -15    1.16    0.96
   4  -3  15    1.40    0.73
  -4  -3  16    1.96    1.10
  -4   3  16    0.10    0.95
  -4   3 -16    1.75    0.92
  -4   3 -16    0.90    0.89
  -4  -3 -16    2.15    1.27
   4  -3  16    1.53    0.72
  -4   3  17    1.52    1.53
  -4   3 -17    3.31    1.61
  -4  -3  17    0.97    1.10
  -4   3 -17    2.51    1.02
  -4  -3 -17    3.80    1.36
  -4   3  18   21.25    3.67
  -4  -3  18   20.83    3.34
  -4  -3 -18   21.73    2.81
  -4   3  19   16.83    3.56
  -4  -3  19   19.29    3.32
  -4  -3 -19   18.61    2.77
  -4  -3  20   41.15    5.02
  -4  -3 -20   42.11    4.22
  -4  -3  21    7.82    2.27
  -4  -3 -21    6.21    1.73
  -4  -3  22   12.86    3.25
  -4  -3 -22   14.60    2.76
  -4   4   0 1103.78   14.91
  -4  -4   0 1065.01   14.89
  -4   4   1    8.06    1.03
  -4   4  -1    6.42    0.69
   4  -4  -1    7.80    0.79
  -4  -4   1    8.96    0.95
  -4  -4  -1   11.20    1.09
  -4   4  -2  215.54    4.07
  -4   4   2  222.57    6.15
   4  -4  -2  220.69    5.09
  -4  -4  -2  215.00    5.21
   4   4   2  209.35    5.13
  -4   4  -2  218.83    3.91
  -4   4   3    8.32    1.29
   4  -4  -3    8.72    1.09
   4   4   3    6.02    0.88
  -4  -4  -3    5.07    0.81
  -4   4  -3    7.88    0.63
  -4   4   4  272.88    8.03
   4  -4  -4  274.43    6.85
   4   4   4  272.41    6.28
  -4   4  -4  280.70    4.78
  -4  -4  -4  281.27    6.51
   4  -4  -5  121.79    4.67
  -4  -4   5  121.62    3.87
  -4   4   5  125.02    5.57
  -4   4  -5  125.64    3.11
   4  -4   5  120.28    2.95
  -4  -4  -5  124.24    4.27
   4   4   5  118.98    4.02
  -4  -4   6 1229.05   17.70
   4  -4  -6 1166.69   19.59
  -4   4   6 1247.35   21.86
  -4  -4  -6 1228.17   18.23
  -4   4  -6 1223.91   15.60
   4  -4   6 1198.93   15.33
   4   4   6 1211.26   17.64
   4  -4  -7  485.48   11.45
  -4  -4   7  473.76    9.81
  -4   4   7  477.90   12.78
  -4  -4  -7  469.33    9.91
  -4   4  -7  466.91    8.01
   4  -4   7  467.57    7.72
   4   4   7  465.66    9.47
  -4  -4   8   94.94    4.37
   4  -4  -8   82.09    4.80
  -4   4   8   94.91    5.62
  -4   4   8   88.78    4.07
  -4   4  -8   92.23    3.23
  -4  -4  -8   94.02    4.24
   4   4   8   95.21    3.96
   4  -4   8   89.00    2.98
   4  -4  -9   98.29    5.41
  -4  -4   9  101.93    4.88
  -4   4   9   96.60    5.81
  -4  -4  -9   97.17    4.47
  -4   4  -9  101.19    3.68
  -4   4   9  103.28    4.57
   4  -4   9  103.32    3.43
   4   4   9  103.84    4.28
  -4  -4  10  719.77   15.28
   4  -4 -10  723.77   16.35
   4   4 -10  718.88   12.63
  -4   4  10  664.95   17.14
  -4   4 -10  694.98   13.60
  -4   4  10  705.38   14.04
  -4  -4 -10  710.31   14.13
  -4   4 -10  693.37   12.09
   4  -4  10  708.05   11.58
   4   4  10  714.53   13.33
   4   4 -11    8.57    1.29
   4  -4 -11    6.91    1.59
  -4   4 -11    5.61    1.20
  -4   4  11    4.94    1.65
  -4  -4  11    6.72    1.46
  -4   4 -11    6.25    1.05
  -4   4  11    6.45    1.31
  -4  -4 -11    6.06    1.16
   4  -4  11    5.75    0.94
   4   4  11    7.38    1.32
   4  -4 -12  155.41    7.55
   4   4 -12  145.84    5.44
  -4   4 -12  156.01    6.50
  -4  -4  12  146.94    7.08
  -4   4  12  139.73    7.95
  -4   4 -12  151.60    5.30
  -4   4  12  147.13    6.16
  -4  -4 -12  149.63    6.24
   4   4  12  158.37    5.94
   4  -4  12  156.54    5.04
   4   4 -13   66.72    3.75
  -4   4 -13   66.07    4.42
  -4  -4  13   67.43    5.05
  -4   4  13   69.87    5.61
  -4   4  13   66.79    4.18
  -4  -4 -13   64.78    4.28
  -4   4 -13   69.18    3.70
   4  -4  13   66.64    3.37
   4   4 -14   62.40    3.84
  -4  -4  14   54.63    4.78
  -4   4  14   56.89    5.25
  -4   4 -14   52.70    4.21
  -4   4 -14   61.50    3.60
  -4  -4 -14   54.35    4.01
   4  -4  14   56.24    3.23
   4   4 -15    2.06    0.92
  -4  -4  15    0.20    1.03
  -4   4 -15    3.11    1.09
  -4   4  15    2.98    1.38
  -4  -4  15   -0.02    0.66
  -4   4 -15    1.50    0.66
  -4  -4 -15   -0.22    0.86
   4  -4  15    2.40    0.76
   4   4 -16  876.00   17.55
  -4   4 -16  839.79   19.83
  -4   4  16  837.67   22.30
  -4  -4  16  825.03   21.26
  -4  -4 -16  874.57   19.02
   4  -4  16  887.60   16.26
  -4  -4  17    6.73    1.93
  -4   4 -17    6.54    1.52
  -4   4  17   11.38    2.87
  -4  -4 -17    6.42    1.64
   4  -4  17    7.62    1.39
  -4  -4  18    7.79    2.32
  -4   4 -18    5.43    1.71
  -4  -4 -18    6.10    1.73
  -4  -4  19   98.53    7.41
  -4  -4 -19  105.74    6.56
  -4  -4  20  298.10   13.33
  -4  -4 -20  310.37   11.77
  -4  -4  21   22.43    3.86
  -4  -4 -21   27.29    3.53
  -4  -4  22  142.00    9.77
  -4  -4 -22  161.98    8.88
  -4   5   0    0.86    0.50
  -4  -5   0    3.42    0.67
  -4   5   1   30.08    2.17
   4  -5  -1   30.71    1.61
  -4   5  -1   27.47    1.64
  -4  -5  -1   24.90    1.68
  -4  -5   1   26.96    1.70
  -4   5   2  176.31    5.80
  -4   5  -2  174.20    3.86
   4  -5  -2  170.92    4.60
  -4  -5   2  168.46    4.48
  -4   5  -2  172.54    3.12
   4   5   2  170.04    4.66
  -4  -5  -2  167.63    4.71
  -4   5   3  149.21    5.67
   4  -5  -3  134.73    4.42
  -4   5  -3  140.24    2.99
  -4  -5  -3  133.02    4.27
  -4   5  -3  138.80    2.67
   4   5   3  131.19    4.19
   4  -5  -4   55.69    3.05
  -4   5  -4   56.24    1.59
  -4   5   4   63.34    3.86
  -4   5  -4   55.35    1.65
  -4  -5  -4   52.04    2.69
   4   5   4   54.32    2.70
   4  -5  -5   12.13    1.49
  -4  -5   5   10.80    1.20
  -4   5   5   11.69    1.86
  -4   5  -5   11.36    0.80
  -4  -5  -5   11.47    1.33
   4   5   5   10.81    1.28
  -4  -5   6   26.00    1.89
   4  -5  -6   27.82    2.52
  -4   5   6   29.14    2.91
  -4   5  -6   27.38    1.37
  -4  -5  -6   24.98    2.05
  -4   5   6   27.22    2.06
   4  -5   6   26.93    1.30
   4   5   6   25.18    1.93
  -4  -5   7   20.45    1.84
   4  -5  -7   25.58    2.53
  -4   5   7   26.10    2.85
  -4   5   7   26.10    2.14
  -4  -5  -7   23.15    2.06
  -4   5  -7   24.89    1.45
   4  -5   7   24.96    1.36
   4   5   7   23.69    1.97
   4  -5  -8  111.88    5.58
  -4  -5   8  108.01    4.54
  -4   5   8  114.49    6.24
  -4   5  -8  117.84    3.98
  -4   5  -8  111.70    3.43
  -4   5   8  114.20    4.70
  -4  -5  -8  108.74    4.70
   4   5   8  113.68    4.48
   4  -5   8  112.52    3.21
   4  -5  -9  136.76    6.64
  -4  -5   9  137.86    5.59
  -4   5   9  135.06    7.04
  -4   5  -9  137.95    4.77
  -4   5   9  138.26    5.38
  -4  -5  -9  141.66    5.63
  -4   5  -9  131.79    4.04
   4   5   9  145.20    5.25
   4  -5   9  131.71    3.77
  -4  -5  10    0.88    0.85
  -4   5 -10    2.29    0.68
   4  -5 -10    0.98    0.72
  -4   5  10    0.72    0.90
  -4   5 -10    2.47    0.61
  -4   5  10    1.61    0.75
  -4  -5 -10   -0.09    0.77
   4  -5  10    1.72    0.43
   4   5  10    1.47    0.63
   4  -5 -11  144.42    7.38
  -4   5  11  132.17    7.46
  -4  -5  11  134.47    6.35
  -4   5 -11  141.05    5.58
  -4   5 -11  142.70    4.65
  -4   5  11  149.16    6.05
  -4  -5 -11  126.95    5.77
   4   5  11  133.77    5.37
   4  -5  11  144.75    4.42
   4  -5 -12   99.44    6.34
  -4  -5  12   90.65    5.52
  -4   5  12   96.05    6.61
  -4   5 -12  100.37    4.99
  -4   5  12   99.52    5.10
  -4  -5 -12  101.41    5.27
  -4   5 -12   99.11    4.08
   4   5  12   98.46    4.68
   4  -5  12   95.62    3.73
   4   5 -13  292.13    8.02
  -4  -5  13  290.73   10.59
  -4   5 -13  306.19    9.41
  -4   5  13  307.23   12.09
  -4  -5 -13  305.38    9.75
   4  -5  13  300.56    7.38
   4   5 -14    9.27    1.51
  -4   5 -14    8.27    1.54
  -4  -5  14    9.09    2.12
  -4   5  14    7.64    2.17
  -4  -5 -14    8.68    1.76
   4  -5  14    7.77    1.21
   4   5 -15    0.16    0.42
  -4   5 -15    0.97    0.91
  -4   5  15    1.83    1.33
  -4  -5  15    0.21    0.76
  -4  -5  15    0.19    0.57
  -4  -5 -15    0.40    0.74
   4  -5  15   -0.13    0.43
   4   5 -16   40.78    3.21
  -4   5  16   45.45    5.42
  -4  -5  16   44.52    4.55
  -4   5 -16   45.57    3.95
  -4  -5 -16   35.65    3.61
   4  -5  16   45.80    3.11
  -4  -5  17   21.27    3.41
  -4   5 -17   19.67    2.77
  -4  -5 -17   23.61    3.00
   4  -5  17   18.57    2.07
  -4   5 -18   25.76    3.22
  -4  -5  18   30.89    3.93
  -4  -5 -18   30.92    3.64
  -4  -5  19    4.96    1.79
  -4  -5 -19    3.97    1.56
  -4  -5  20    2.41    1.34
  -4  -5 -20    2.85    1.52
  -4  -5  21    7.33    2.52
  -4  -5 -21    5.91    1.71
  -4  -5 -22    2.28    1.50
  -4   6   0  478.30    9.24
  -4  -6   0  439.85    8.34
   4  -6  -1  458.33    7.96
  -4   6  -1  480.98    8.64
  -4   6   1  492.44   10.09
  -4   6   1  480.67    7.72
  -4  -6  -1  469.77    8.79
  -4  -6   1  471.13    8.58
  -4  -6   2    0.96    0.34
   4  -6  -2    1.85    0.47
   4   6   2    2.30    0.62
  -4   6  -2    3.14    0.58
  -4   6   2    1.84    0.66
  -4   6   2    2.23    0.48
  -4   6  -2    2.14    0.27
  -4  -6  -2    2.34    0.67
   4  -6  -3 1644.43   22.52
  -4  -6   3 1651.52   21.24
  -4   6  -3 1608.68   19.21
  -4   6   3 1666.15   24.99
  -4   6   3 1624.34   21.17
  -4   6  -3 1629.85   17.70
  -4  -6  -3 1666.04   22.32
   4   6   3 1697.55   22.19
   4  -6  -4   27.15    2.21
  -4   6   4   23.09    2.38
  -4   6  -4   22.87    0.80
  -4   6   4   25.13    1.79
  -4  -6  -4   24.02    1.92
   4   6   4   22.06    1.76
  -4  -6   5   20.94    1.59
   4  -6  -5   17.88    1.97
  -4   6   5   18.82    2.23
  -4   6   5   19.98    1.71
  -4   6  -5   17.94    0.82
  -4  -6  -5   19.96    1.83
   4   6   5   21.45    1.78
   4  -6  -6   57.59    3.71
  -4  -6   6   55.33    2.73
  -4   6   6   56.00    4.10
  -4   6  -6   58.75    1.76
  -4   6   6   54.80    2.98
  -4  -6  -6   53.30    3.09
  -4   6  -6   53.73    1.68
   4   6   6   53.01    2.90
   4  -6  -7 1306.54   22.69
  -4  -6   7 1317.82   19.30
  -4   6   7 1282.11   24.12
  -4   6  -7 1336.22   16.39
  -4   6   7 1295.23   19.96
  -4  -6  -7 1307.26   20.65
  -4   6  -7 1302.18   16.06
   4   6   7 1344.30   19.88
   4  -6  -8   27.83    2.91
  -4  -6   8   27.20    2.26
  -4   6   8   28.44    3.25
  -4   6  -8   31.79    1.72
  -4   6   8   26.32    2.26
  -4  -6  -8   27.09    2.43
  -4   6  -8   27.75    1.51
   4   6   8   27.04    2.21
   4  -6   8   28.51    1.41
  -4  -6   9  573.72   12.56
   4  -6  -9  618.61   15.35
  -4   6  -9  632.18   10.49
  -4   6   9  614.56   16.07
  -4  -6  -9  584.78   12.89
  -4   6   9  607.97   12.77
   4  -6   9  593.34    9.17
   4   6   9  598.48   12.18
  -4  -6  10   19.03    2.23
   4  -6 -10   21.81    2.72
  -4   6  10   16.97    2.65
  -4   6 -10   20.40    1.74
  -4   6  10   22.49    2.25
  -4  -6 -10   18.19    2.11
   4  -6  10   19.12    1.37
   4   6  10   18.13    1.93
   4  -6 -11  164.89    8.05
  -4   6 -11  171.17    5.56
  -4   6  11  168.94    8.53
  -4  -6  11  176.08    7.18
  -4   6  11  175.90    6.71
  -4  -6 -11  172.39    6.89
   4  -6  11  168.29    4.57
   4   6  11  171.88    6.28
  -4   6 -12   27.80    2.34
  -4  -6  12   24.65    2.86
  -4   6  12   25.64    3.61
  -4   6  12   24.80    2.57
  -4  -6 -12   28.95    2.87
   4  -6  12   24.69    1.77
  -4   6 -13  278.46    8.20
  -4  -6  13  279.71   10.24
  -4   6  13  273.71   11.86
  -4  -6 -13  279.98    9.57
   4  -6  13  283.46    6.85
  -4  -6  14   24.28    3.25
  -4   6 -14   23.68    2.41
  -4  -6 -14   25.42    2.92
   4  -6  14   25.18    2.04
  -4   6 -15   49.55    3.63
  -4  -6  15   52.56    4.79
  -4  -6  15   50.89    3.71
  -4  -6 -15   50.47    4.18
   4  -6  15   50.27    2.98
  -4  -6  16    2.40    1.24
  -4   6 -16    3.74    1.14
  -4  -6 -16    4.03    1.27
   4  -6  16    4.06    0.97
  -4  -6  17  118.69    7.51
  -4   6 -17  109.20    5.87
  -4  -6 -17  125.13    7.02
   4  -6  17  119.35    5.11
  -4  -6  18    1.54    1.31
  -4  -6 -18   -1.45    1.35
  -4  -6  19  339.48   13.45
  -4  -6 -19  355.97   12.80
  -4  -6  20   42.79    4.77
  -4  -6 -20   47.02    4.64
  -4  -6  21    0.83    1.29
  -4  -6 -21    0.00    0.82
  -4  -6 -22    4.31    1.79
   4  -7   0  254.18    4.86
  -4   7   0  262.18    6.26
  -4   7   0  259.41    4.53
  -4  -7   0  227.07    5.79
   4  -7  -1    1.25    0.44
  -4   7  -1    1.04    0.34
  -4   7   1    2.08    0.75
  -4   7  -1    1.07    0.22
  -4   7   1    1.49    0.36
  -4  -7   1    0.95    0.47
  -4  -7  -1    0.91    0.52
   4  -7  -2  133.15    4.25
  -4   7   2  139.11    5.24
  -4   7   2  129.39    3.66
  -4  -7  -2  131.84    4.45
  -4  -7   2  137.14    4.12
  -4  -7   3    0.55    0.37
   4  -7  -3    0.11    0.35
   4   7   3   -0.29    0.38
  -4   7   3    0.03    0.57
  -4   7   3    0.14    0.27
  -4  -7  -3   -0.18    0.41
   4  -7  -4    9.82    1.39
  -4   7   4   12.25    1.75
  -4   7   4   10.56    1.18
  -4  -7  -4   14.66    1.60
   4   7   4   14.97    1.48
  -4  -7   4   13.81    1.27
  -4  -7   5   18.85    1.54
   4  -7  -5   16.61    1.95
  -4   7   5   19.08    2.36
  -4   7   5   17.44    1.60
  -4  -7  -5   21.31    2.03
   4   7   5   19.94    1.79
  -4  -7   6   29.77    2.03
  -4   7   6   24.99    2.75
   4  -7  -6   18.87    2.22
  -4   7   6   21.61    1.89
  -4  -7  -6   28.84    2.37
   4   7   6   29.35    2.21
  -4  -7   7    5.61    0.95
   4  -7  -7    5.23    1.28
  -4   7   7    5.62    1.41
  -4  -7  -7    7.17    1.35
  -4   7   7    4.28    0.93
   4   7   7    4.48    0.92
  -4  -7   8   68.40    3.59
   4  -7  -8   78.93    5.00
  -4   7   8   78.55    5.34
  -4  -7  -8   67.88    3.96
  -4   7   8   77.41    3.97
   4   7   8   70.71    3.69
  -4  -7   9   69.32    3.87
   4  -7  -9   87.65    5.53
  -4   7   9   81.31    5.71
  -4   7   9   83.23    4.27
  -4  -7  -9   72.54    4.23
   4  -7   9   79.28    2.31
   4   7   9   71.76    3.84
  -4   7 -10   12.70    0.89
   4  -7 -10   15.26    2.54
  -4  -7  10   10.96    1.70
  -4   7  10   12.54    2.64
  -4   7  10   12.83    1.79
  -4  -7 -10   11.50    1.82
   4  -7  10   11.80    0.96
   4   7  10    9.91    1.46
  -4   7 -11   12.59    1.09
  -4  -7  11   12.34    1.96
  -4  -7 -11   10.62    1.75
  -4   7  11   13.50    1.88
   4  -7  11   13.88    1.13
  -4   7 -12  116.37    3.86
  -4  -7  12  105.09    5.85
  -4  -7 -12  112.04    5.87
   4  -7  12  111.86    3.59
  -4   7 -13    9.12    1.16
  -4  -7  13    9.32    1.92
  -4  -7 -13   12.95    2.20
   4  -7  13   10.37    1.14
  -4   7 -14    3.03    0.76
  -4  -7  14    4.32    1.34
  -4  -7 -14    2.99    1.05
   4  -7  14    2.76    0.68
  -4   7 -15   25.46    2.23
  -4  -7  15   20.61    3.00
  -4  -7 -15   23.61    3.05
  -4  -7  15   21.75    2.40
   4  -7  15   24.89    1.99
  -4   7 -16   16.08    1.89
  -4  -7  16   17.76    2.82
  -4  -7 -16   17.38    2.71
   4  -7  16   21.44    1.96
  -4  -7  17   28.54    3.48
  -4  -7 -17   26.31    3.32
  -4  -7  18   12.55    2.57
  -4  -7 -18   11.93    2.51
  -4  -7  19    2.13    1.16
  -4  -7 -19    0.96    0.98
  -4  -7  20    0.61    0.94
  -4  -7 -20    3.08    1.64
  -4  -7 -21    4.20    1.55
  -4   8   0  767.21    9.60
  -4  -8   0  790.06   12.73
   4  -8  -1   20.02    1.41
  -4   8   1   20.03    1.17
  -4  -8  -1   16.58    1.55
  -4  -8   1   14.86    1.37
   4  -8  -2   75.19    3.18
  -4   8   2   73.22    2.60
  -4  -8  -2   77.00    3.47
  -4  -8   2   72.56    3.02
   4  -8  -3  409.95    9.06
  -4  -8  -3  405.75    9.07
  -4   8   3  420.32    7.82
  -4  -8   3  422.09    8.13
   4   8   3  411.06    8.74
   4  -8  -4  546.90   11.70
  -4  -8  -4  555.59   11.37
  -4   8   4  561.43   10.08
   4   8   4  580.74   11.10
  -4  -8   4  564.39    9.89
  -4  -8   5   27.89    1.89
   4  -8  -5   24.30    2.38
  -4  -8  -5   31.56    2.50
  -4   8   5   25.69    1.95
   4   8   5   30.71    2.27
  -4  -8   5   27.34    1.83
   4  -8  -6  724.85   15.54
  -4  -8   6  721.81   12.23
  -4  -8  -6  721.44   14.17
  -4   8   6  734.56   13.11
   4   8   6  737.84   13.49
   4  -8  -7  113.34    5.85
  -4  -8   7  121.34    4.44
  -4  -8  -7  116.76    5.23
  -4   8   7  118.34    4.76
   4   8   7  120.16    4.85
   4  -8  -8   61.80    4.52
  -4  -8   8   55.99    3.22
  -4  -8  -8   59.46    3.83
  -4   8   8   58.09    3.42
   4   8   8   56.44    3.36
  -4  -8   9  261.38    7.74
   4  -8  -9  268.66   10.23
  -4   8   9  261.32    8.01
  -4  -8  -9  253.17    8.44
   4   8   9  274.39    8.00
  -4  -8  10  727.77   15.09
   4  -8 -10  778.06   18.93
  -4  -8 -10  735.98   16.02
  -4   8  10  739.79   15.12
  -4  -8  11   33.92    3.12
  -4  -8 -11   30.02    3.05
  -4   8  11   31.58    2.85
   4  -8  11   31.73    1.49
  -4  -8  12  171.01    7.41
  -4  -8 -12  175.17    7.60
   4  -8  12  177.06    4.22
  -4   8 -13  250.19    4.61
  -4  -8  13  251.95    9.41
  -4  -8 -13  257.47    9.61
   4  -8  13  250.43    5.55
  -4  -8  14   37.32    3.72
  -4  -8 -14   39.19    3.76
  -4  -8  14   31.91    2.78
   4  -8  14   40.48    2.21
  -4  -8  15    1.09    1.69
  -4  -8  15    0.63    0.73
  -4  -8 -15    0.80    0.88
  -4  -8  16  228.43    9.71
  -4  -8 -16  223.09    9.69
  -4  -8  17   34.64    3.84
  -4  -8 -17   39.73    4.15
  -4  -8  18  215.07    9.83
  -4  -8 -18  220.06   10.15
  -4  -8  19   23.14    3.27
  -4  -8 -19   20.82    3.08
  -4  -8 -20   64.88    5.75
  -4  -9   0    6.90    1.05
   4  -9  -1   37.37    1.94
  -4  -9  -1   37.77    2.43
  -4   9   1   37.81    1.45
  -4  -9   1   37.97    2.28
   4  -9  -2   55.04    2.73
  -4  -9  -2   57.53    3.10
  -4   9   2   55.58    2.12
  -4  -9   2   53.74    2.65
   4  -9  -3  113.62    4.43
  -4  -9  -3  106.79    4.44
  -4   9   3  116.02    3.56
  -4  -9   3  105.27    3.72
   4   9   4    2.17    0.63
   4  -9  -4    3.29    0.89
  -4  -9  -4    3.14    0.93
  -4   9   4    2.82    0.64
  -4  -9   4    1.87    0.45
  -4  -9   5   31.58    2.02
   4  -9  -5   27.24    2.54
  -4   9   5   30.72    2.10
  -4  -9  -5   30.99    2.55
  -4  -9   5   32.24    2.01
   4   9   5   28.13    2.24
  -4  -9   6   42.55    2.43
   4  -9  -6   46.58    3.62
  -4  -9  -6   42.00    3.08
  -4   9   6   43.46    2.67
  -4  -9   6   40.46    2.27
   4   9   6   41.21    2.80
  -4  -9   7   14.39    1.44
  -4  -9   7   11.26    1.37
   4  -9  -7   19.10    2.48
  -4  -9  -7   13.20    1.76
  -4   9   7   20.91    1.97
   4   9   7   14.78    1.76
  -4  -9   8   55.28    3.13
   4  -9  -8   51.48    4.23
  -4   9   8   52.28    3.27
  -4  -9  -8   54.15    3.77
   4   9   8   58.62    3.51
   4  -9  -9    0.45    0.63
  -4  -9   9    0.28    0.50
  -4   9   9    1.30    0.48
  -4  -9  -9    0.91    0.66
  -4  -9  10   15.20    2.01
  -4  -9 -10   16.80    2.31
  -4   9  10   17.31    2.03
  -4  -9  11    3.69    1.06
  -4  -9 -11    3.01    1.17
  -4  -9  12    8.32    1.62
  -4  -9 -12    6.22    1.55
  -4  -9  13    0.75    0.75
  -4  -9 -13    0.89    0.99
  -4  -9  14    8.07    1.69
  -4  -9 -14    5.66    1.75
  -4  -9  15    0.55    0.90
  -4  -9 -15    0.60    1.05
  -4  -9  16    2.28    1.43
  -4  -9 -16    3.14    1.43
  -4  -9 -17    0.81    0.98
  -4  -9 -18   -0.13    1.14
  -4  -9 -19   10.72    2.57
  -4  -9 -20    0.74    1.42
  -4 -10   0    1.92    0.59
   4 -10  -1   44.62    2.05
  -4 -10  -1   46.40    2.81
  -4  10   1   45.80    1.35
  -4 -10   1   47.85    2.63
   4 -10  -2   -0.15    0.28
  -4 -10  -2    0.25    0.40
  -4  10   2    0.22    0.24
  -4 -10   2   -0.08    0.43
   4 -10  -3  158.54    5.30
  -4  10   3  154.68    4.04
  -4 -10  -3  167.96    5.81
  -4 -10   3  156.29    4.66
   4  10   4  264.68    7.24
   4 -10  -4  266.71    7.75
  -4  10   4  267.67    6.08
  -4 -10  -4  271.91    7.87
  -4 -10   4  267.83    6.24
   4 -10  -5   48.07    3.44
  -4 -10   5   47.69    2.49
  -4 -10  -5   45.90    3.22
  -4  10   5   46.78    2.52
  -4 -10   5   44.48    2.32
   4  10   5   44.74    2.90
  -4 -10   6   69.91    3.16
   4 -10  -6   71.36    4.47
  -4  10   6   69.81    3.38
  -4 -10  -6   72.37    4.24
  -4 -10   6   72.12    2.98
   4  10   6   74.04    3.88
  -4 -10   7   45.90    2.66
   4 -10  -7   50.92    4.00
  -4 -10  -7   48.74    3.60
  -4  10   7   45.55    2.90
   4  10   7   46.57    3.18
  -4 -10   7   48.30    2.45
  -4 -10   8   21.07    1.96
   4 -10  -8   21.49    2.78
  -4 -10  -8   19.40    2.34
  -4  10   8   20.14    1.99
  -4 -10   8   21.33    1.65
  -4 -10   9  376.99    9.34
   4 -10  -9  363.98   12.27
  -4 -10  -9  355.65   10.75
  -4  10   9  355.72    9.48
  -4 -10   9  356.21    7.64
  -4 -10  10    0.76    0.57
  -4 -10 -10    1.53    0.89
  -4  10  10    2.10    0.70
  -4 -10  11    1.37    0.67
  -4 -10 -11    1.98    1.02
  -4 -10  12    0.52    0.52
  -4 -10 -12    2.60    1.20
  -4 -10  13  243.28    8.61
  -4 -10 -13  238.05    9.74
  -4 -10 -14   64.17    5.17
  -4 -10 -15   96.66    6.42
  -4 -10 -16   26.27    3.66
  -4 -10 -17   55.94    5.24
  -4 -10 -18   -0.23    0.98
  -4 -10 -19   97.10    7.12
  -4 -11   0   24.16    1.98
   4 -11  -1    0.80    0.34
  -4 -11  -1    1.10    0.50
  -4 -11   1    0.24    0.42
   4 -11  -2    6.63    0.93
  -4 -11  -2    5.04    1.04
  -4  11   2    6.56    0.58
  -4 -11   2    5.08    0.94
   4 -11  -3    0.58    0.43
  -4 -11  -3    0.17    0.48
  -4 -11   3    0.73    0.44
  -4  11   3    0.40    0.23
   4 -11  -4    2.13    0.84
  -4 -11  -4    3.45    0.82
  -4 -11   4    3.13    0.64
  -4  11   4    2.64    0.62
   4 -11  -5    8.79    1.57
   4  11   5    7.86    1.30
  -4 -11   5    7.19    0.98
  -4 -11  -5    7.68    1.38
  -4  11   5    7.94    1.01
  -4 -11   5    7.25    0.96
   4 -11  -6    0.92    0.78
   4  11   6    2.55    0.83
  -4 -11   6    1.31    0.45
  -4 -11  -6    1.37    0.79
  -4 -11   6    2.43    0.61
  -4  11   6    1.35    0.53
   4 -11  -7   18.42    2.39
  -4 -11   7   17.63    1.64
   4  11   7   17.33    1.96
  -4 -11  -7   15.96    2.16
  -4  11   7   20.81    1.89
  -4 -11   7   17.80    1.43
   4 -11  -8   44.52    3.99
  -4 -11   8   40.53    2.62
  -4  11   8   44.15    2.92
  -4 -11  -8   46.01    3.70
  -4 -11   8   43.19    2.23
  -4 -11   9  128.30    5.03
  -4 -11  -9  136.01    6.61
  -4  11   9  120.79    5.25
  -4 -11   9  124.79    3.98
  -4 -11  10    2.03    0.57
  -4 -11 -10    2.99    1.19
  -4 -11 -11   -0.48    0.84
  -4 -11 -12   14.66    2.42
  -4 -11 -13   -1.08    1.29
  -4 -11 -14   19.67    2.96
  -4 -11 -15   13.17    2.57
  -4 -11 -16    8.03    2.20
  -4 -11 -17   12.14    2.67
  -4 -11 -18    2.28    1.06
  -4 -12   0  470.28    9.91
  -4 -12  -1    0.12    0.45
  -4 -12   1    0.45    0.40
  -4 -12   2   36.43    2.25
  -4 -12  -2   33.78    2.56
  -4 -12  -3    1.21    0.71
  -4 -12   3    0.11    0.53
  -4 -12   4  230.92    5.81
  -4 -12   4  235.65    5.69
  -4 -12  -4  223.67    7.40
  -4 -12   5    2.55    0.64
  -4 -12  -5    2.12    0.83
  -4 -12  -6  141.42    6.21
  -4 -12  -7    6.36    1.49
  -4 -12  -8    5.00    1.48
  -4 -12  -9    8.59    1.71
  -4 -12 -10   56.26    4.45
  -4 -12 -11    6.01    1.60
  -4 -12 -12   73.49    5.37
  -4 -12 -13   17.48    2.73
  -4 -12 -14    1.68    0.84
  -4 -12 -15    5.14    1.71
  -4 -12 -16   73.65    6.09
  -4 -12 -17   17.66    3.23
  -4 -13  -2    0.54    0.59
  -4 -13  -3    1.53    0.73
  -4 -13  -4    0.49    0.53
  -4 -13  -5    1.97    0.84
  -4 -13  -6   15.65    2.10
  -4 -13  -7    0.43    0.64
  -4 -13  -8    3.04    0.94
  -4 -13  -9    5.37    1.45
  -4 -13 -10    8.31    1.84
  -4 -13 -11    8.30    2.01
  -4 -13 -12    3.33    1.23
  -4 -13 -13    0.88    1.13
  -4 -13 -14    0.15    0.91
  -4 -13 -15    1.83    1.54
  -4 -13 -16   -1.88    1.32
  -5   0  -1    3.11    0.72
  -5   0  -2  317.65    6.45
   5   0   3    0.68    0.37
  -5   0   3    0.47    0.47
  -5   0  -3    0.21    0.33
  -5   0   4  590.78   10.43
   5   0   4  569.97    9.56
  -5   0  -4  571.19    9.52
  -5   0   5    0.29    0.48
   5   0  -5    2.14    0.55
  -5   0  -5    0.24    0.32
   5   0   5   -0.15    0.40
   5   0  -6  750.22   12.57
  -5   0   6  724.61   13.64
  -5   0  -6  732.64   11.95
   5   0   6  729.23   11.73
  -5   0   7    0.46    0.66
   5   0  -7   -0.01    0.39
   5   0   7    1.30    0.49
  -5   0  -7    0.06    0.41
   5   0  -8  737.68   13.49
  -5   0   8  725.02   15.22
  -5   0  -8  714.19   12.51
   5   0   8  695.85   12.04
   5   0  -9   -0.26    0.40
  -5   0   9   -0.78    0.94
  -5   0  -9    0.03    0.60
   5   0   9   -0.18    0.39
   5   0 -10  649.37   13.54
  -5   0  10  632.11   15.51
  -5   0 -10  640.10   12.55
   5   0  10  653.25   12.02
   5   0 -11    0.17    0.51
  -5   0  11   -1.58    1.19
  -5   0 -11   -0.69    0.82
   5   0  11    0.08    0.37
   5   0 -12  876.62   17.27
  -5   0  12  794.43   19.90
  -5   0 -12  847.73   15.83
   5   0  12  841.82   15.06
   5   0 -13   -0.05    0.76
  -5   0  13    0.47    1.05
  -5   0 -13   -1.13    0.88
   5   0  13    0.35    0.44
   5   0 -14 1188.50   22.37
  -5   0  14 1121.01   25.60
  -5   0 -14 1194.83   21.13
   5   0  14 1235.04   20.22
  -5   0 -15    0.15    0.71
  -5   0  15   -1.89    1.54
  -5   0 -15   -0.44    0.76
  -5   0  16  231.66   11.21
  -5   0 -16  235.86    8.60
  -5   0  17    0.09    1.33
  -5   0 -17   -0.05    0.92
  -5   0  18  624.31   19.99
  -5   0 -18  624.16   15.76
  -5   0  19   -1.89    1.74
  -5   0 -19    0.11    0.88
  -5   0  20  115.88    8.55
  -5   0 -20  116.66    6.73
  -5   0  21    0.88    1.38
  -5   0 -21   -0.72    0.95
  -5   0  22    5.31    2.52
  -5   0 -22    8.25    2.07
  -5   0  23    1.26    1.20
  -5  -1  -1 1111.33   15.32
  -5   1   2  685.76   10.77
  -5  -1  -2  652.17   10.60
  -5   1  -2  693.82   10.34
  -5   1   3   61.16    2.76
  -5  -1   3   56.99    2.55
   5   1   3   59.03    2.50
  -5  -1  -3   60.54    2.58
  -5   1  -3   60.11    2.44
  -5  -1   4   59.05    2.74
   5  -1  -4   62.08    2.74
  -5   1   4   59.83    2.99
   5   1   4   62.24    2.68
   5  -1   4   57.51    2.38
  -5  -1  -4   61.38    2.64
  -5   1  -4   55.64    2.37
   5  -1   5    5.85    0.85
  -5   1   5    7.06    1.23
  -5  -1   5    5.95    1.02
   5  -1  -5    7.76    1.16
  -5  -1  -5    6.16    0.92
  -5   1  -5    7.44    0.91
   5   1   5    6.63    0.94
   5   1  -6   98.51    3.71
   5  -1  -6   89.90    3.80
  -5   1   6   94.58    4.45
  -5  -1   6   98.15    4.15
  -5  -1  -6  102.05    3.75
   5   1   6   98.19    3.55
  -5   1  -6   91.68    3.35
   5  -1   6   92.37    3.27
  -5  -1   7  208.52    6.84
   5  -1  -7  248.79    6.77
   5   1  -7  208.99    6.17
  -5   1   7  247.74    7.94
  -5   1  -7  232.21    5.82
  -5  -1  -7  222.07    6.04
   5   1   7  220.50    5.79
   5  -1   7  226.05    5.55
   5   1  -8   16.62    1.73
   5  -1  -8   14.25    1.69
  -5  -1   8   15.95    1.97
  -5   1   8   15.12    2.13
  -5  -1  -8   18.27    1.69
  -5   1  -8   15.21    1.54
   5   1   8   14.47    1.42
   5  -1   8   15.03    1.41
   5   1  -9   26.28    2.32
   5  -1  -9   24.96    2.36
  -5   1   9   26.82    2.96
  -5  -1   9   25.07    2.67
  -5  -1  -9   26.89    2.21
  -5   1  -9   25.86    2.08
   5  -1   9   27.60    1.95
   5   1   9   28.02    2.07
   5  -1 -10   11.74    1.82
   5   1 -10    9.83    1.55
  -5  -1  10   11.14    2.03
  -5   1  10   10.39    2.05
  -5  -1 -10   10.26    1.49
  -5   1 -10   13.51    1.59
   5  -1  10   12.13    1.39
   5   1  10    8.82    1.22
   5   1 -11    1.58    0.76
   5  -1 -11    1.38    0.61
  -5  -1  11   -0.24    0.85
  -5   1  11    1.24    1.12
  -5  -1 -11    1.28    0.65
  -5   1 -11    2.93    0.86
   5   1  11    2.33    0.77
   5  -1  11    3.06    0.91
   5   1 -12    1.09    0.82
   5  -1 -12   -0.06    0.48
  -5   1  12    1.22    1.36
  -5  -1  12    0.48    0.80
  -5   1 -12    0.63    0.52
  -5  -1 -12   -0.16    0.71
   5   1  12    0.17    0.43
   5  -1  12    1.01    0.49
   5   1 -13  208.49    7.68
   5  -1 -13  196.19    7.96
  -5  -1  13  185.56    9.18
  -5   1  13  189.66    9.41
  -5   1 -13  200.44    6.95
  -5  -1 -13  194.20    7.10
   5  -1  13  200.20    6.48
   5   1  13  194.74    6.64
   5   1 -14  142.78    6.53
  -5  -1  14  136.51    7.94
  -5   1 -14  147.88    7.66
  -5   1  14  126.27    8.02
  -5   1 -14  135.60    5.91
  -5  -1 -14  135.42    6.13
   5   1  14  140.27    5.76
   5  -1  14  140.01    5.56
  -5   1 -15   13.10    2.39
  -5  -1  15    7.37    2.48
  -5   1  15    8.17    2.34
  -5  -1 -15   12.18    1.94
  -5   1 -15   12.16    1.87
   5  -1  15   12.36    1.71
  -5   1  16    2.19    1.41
  -5  -1  16    5.17    1.75
  -5   1 -16    5.58    1.40
  -5  -1 -16    3.44    1.14
  -5  -1  17    8.76    2.38
  -5   1  17   11.32    2.62
  -5   1 -17    6.03    1.52
  -5  -1 -17    9.16    1.84
  -5  -1  18    2.41    1.55
  -5   1  18    4.06    1.96
  -5   1 -18    2.35    1.08
  -5  -1 -18    2.69    1.17
  -5   1  19    1.51    1.52
  -5  -1  19    2.72    1.56
  -5   1 -19    1.66    1.26
  -5  -1 -19    1.04    0.77
  -5  -1  20  107.34    8.53
  -5   1  20   94.64    7.86
  -5  -1 -20  105.05    6.54
  -5   1 -20  107.78    6.46
  -5   1  21    2.23    1.25
  -5  -1  21    2.16    1.65
  -5   1 -21    4.49    1.26
  -5  -1 -21    4.95    1.56
  -5   1  22    9.41    2.93
  -5  -1  22    6.82    2.38
  -5  -1 -22    6.49    1.90
  -5  -1  23   15.22    3.51
  -5   2   1 1101.49   15.15
  -5  -2  -1 1111.23   15.52
  -5   2   2    9.90    1.18
  -5  -2  -2   11.98    1.26
  -5   2  -2   10.00    0.94
   5  -2  -3  113.36    3.68
  -5   2   3  116.98    4.09
  -5  -2  -3  114.96    3.77
  -5   2  -3  121.26    3.36
   5   2   3  103.99    3.58
   5  -2   4  302.53    5.92
  -5  -2   4  317.75    6.85
   5  -2  -4  298.03    6.80
  -5   2   4  308.89    7.65
   5   2   4  305.04    6.68
  -5   2  -4  308.80    5.99
  -5  -2  -4  302.14    6.69
   5  -2  -5 1149.38   17.36
  -5   2   5 1158.57   18.95
  -5  -2   5 1196.28   17.44
   5  -2   5 1149.80   15.69
  -5  -2  -5 1192.37   17.00
  -5   2  -5 1158.27   15.77
   5   2   5 1199.67   16.88
   5  -2  -6   42.55    2.72
  -5  -2   6   38.18    2.51
  -5   2   6   43.18    3.18
   5   2   6   42.04    2.35
  -5   2  -6   44.33    2.17
  -5  -2  -6   38.95    2.36
   5  -2   6   43.74    2.15
  -5  -2   7  188.07    6.17
  -5   2   7  198.97    7.44
   5  -2  -7  200.36    6.31
  -5   2  -7  200.30    5.23
  -5  -2  -7  196.00    5.78
   5  -2   7  204.18    5.08
   5   2   7  194.02    5.55
   5   2  -8   11.77    1.38
   5  -2  -8   16.83    1.91
  -5  -2   8   12.15    1.68
  -5   2   8   16.70    2.27
  -5   2  -8   15.84    1.45
  -5  -2  -8   12.06    1.46
   5  -2   8   17.88    1.45
   5   2   8   11.56    1.31
   5   2  -9  391.99    9.07
   5  -2  -9  374.27   10.18
  -5  -2   9  376.42   10.50
  -5   2   9  409.08   12.09
  -5  -2  -9  393.60    9.30
  -5   2  -9  409.32    8.67
   5  -2   9  403.85    8.24
   5   2   9  394.58    8.84
   5   2 -10   17.58    1.78
   5  -2 -10   21.72    2.37
  -5  -2  10   16.94    2.30
  -5   2  10   15.09    2.43
  -5   2 -10   16.25    1.67
  -5  -2 -10   16.01    1.88
   5   2  10   14.31    1.63
   5  -2  10   18.41    1.64
   5  -2 -11 2012.53   30.88
   5   2 -11 2071.20   28.78
  -5  -2  11 1976.87   32.17
  -5   2  11 1965.25   34.13
  -5  -2 -11 1994.76   28.92
  -5   2 -11 1966.71   27.55
   5  -2  11 1970.58   26.82
   5   2  11 2053.21   28.00
   5  -2 -12   92.94    5.25
   5   2 -12   88.64    4.59
  -5  -2  12   92.82    5.91
  -5   2  12   85.26    6.23
  -5   2 -12   93.06    4.40
  -5  -2 -12   87.69    4.58
   5  -2  12   93.19    4.08
   5   2  12   97.22    4.50
   5   2 -13  171.89    6.75
   5  -2 -13  165.70    7.39
  -5  -2  13  147.32    7.87
  -5   2  13  166.87    8.78
  -5   2 -13  162.94    6.21
  -5  -2 -13  158.60    6.56
  -5   2  13  167.18    6.77
   5  -2  13  173.28    5.83
   5   2  13  155.32    6.01
   5   2 -14   74.86    4.56
  -5   2 -14   71.17    5.06
  -5  -2  14   64.26    5.59
  -5   2  14   64.96    5.84
  -5   2 -14   76.33    4.27
  -5  -2 -14   74.17    4.52
   5  -2  14   77.06    3.99
  -5  -2  15  789.81   21.00
  -5   2 -15  838.27   19.91
  -5   2  15  800.21   21.64
  -5  -2 -15  799.41   17.45
  -5   2 -15  850.03   16.96
   5  -2  15  874.21   16.11
  -5   2 -16  174.50    7.11
  -5  -2 -16  178.39    7.66
  -5   2 -16  190.20    9.16
  -5  -2  16  176.63    9.67
  -5   2  16  171.50    9.75
  -5   2 -17  446.29   12.27
  -5  -2 -17  440.27   12.85
  -5   2  17  427.61   16.27
  -5  -2  17  436.24   15.89
  -5   2 -18    2.45    0.92
  -5  -2 -18    3.91    1.06
  -5   2  18    2.87    1.63
  -5  -2  18    1.16    1.19
  -5  -2 -19   57.24    4.72
  -5   2 -19   65.83    4.82
  -5   2  19   58.38    6.01
  -5  -2  19   54.93    5.75
  -5   2 -20    3.45    1.37
  -5  -2 -20    7.87    2.07
  -5  -2  20    2.48    1.41
  -5   2  20    4.45    1.90
  -5  -2 -21  283.74   11.38
  -5   2  21  274.73   14.06
  -5  -2  21  295.05   14.03
  -5  -2 -22    5.41    1.64
  -5  -2  22    5.70    2.57
  -5  -2 -23  141.27    8.38
  -5  -2  23  153.88   10.53
  -5  -3   0   -0.07    0.36
  -5   3   0   -0.07    0.32
  -5   3   1  280.05    6.19
  -5  -3  -1  280.15    6.29
  -5   3   2    7.86    1.01
  -5   3  -2    9.26    0.90
  -5  -3  -2   11.59    1.20
   5  -3  -3  243.21    5.83
  -5   3   3  250.12    6.66
  -5   3  -3  252.86    5.00
   5   3   3  229.32    5.77
  -5  -3  -3  244.25    5.94
  -5  -3   4   50.99    2.50
  -5   3   4   54.78    3.29
   5  -3  -4   54.99    2.79
  -5  -3  -4   53.81    2.70
   5   3   4   52.53    2.60
  -5   3  -4   56.69    2.17
  -5  -3   5   20.87    1.68
  -5   3   5   23.86    2.35
   5  -3  -5   21.59    1.87
   5  -3   5   21.11    1.36
  -5   3  -5   21.23    1.37
  -5  -3  -5   18.79    1.64
   5   3   5   17.72    1.56
  -5   3   6   51.99    3.67
  -5  -3   6   53.90    2.94
   5  -3  -6   58.07    3.21
   5   3   6   57.27    2.88
  -5  -3  -6   60.71    3.04
   5  -3   6   56.46    2.37
  -5   3  -6   58.51    2.45
   5  -3  -7   33.28    2.61
  -5  -3   7   34.78    2.51
  -5   3   7   36.71    3.28
  -5  -3  -7   34.17    2.40
  -5   3  -7   35.84    2.01
   5   3   7   31.77    2.23
   5  -3   7   36.23    1.95
   5  -3  -8  588.76   12.63
  -5  -3   8  562.83   12.19
  -5   3   8  579.46   14.58
  -5   3  -8  575.52   10.18
  -5  -3  -8  560.16   11.43
   5   3   8  558.60   10.95
   5  -3   8  565.31    9.73
  -5  -3   9   30.66    2.78
   5  -3  -9   28.32    2.83
  -5   3   9   28.71    3.31
  -5  -3  -9   31.32    2.50
  -5   3  -9   33.62    2.21
   5   3   9   34.15    2.45
   5  -3   9   32.48    2.02
   5   3 -10   51.87    3.05
   5  -3 -10   45.97    3.52
  -5  -3  10   50.93    3.78
  -5   3  10   43.43    4.15
  -5  -3 -10   45.38    3.17
  -5   3 -10   43.19    2.63
   5   3  10   49.23    3.01
   5  -3  10   47.78    2.58
   5  -3 -11   18.55    2.43
   5   3 -11   15.26    1.78
  -5  -3  11   19.13    2.55
  -5   3  11   22.48    3.14
  -5  -3 -11   15.79    1.95
  -5   3 -11   19.51    1.85
   5   3  11   16.59    1.82
   5  -3  11   19.57    1.71
   5   3 -12    2.12    0.87
   5  -3 -12    0.25    0.67
  -5  -3  12    1.13    1.13
  -5   3  12    2.19    1.29
  -5   3 -12   -0.22    0.49
  -5   3  12    2.04    0.75
  -5  -3 -12    0.19    0.83
   5  -3  12    1.66    0.62
   5   3  12    1.77    0.76
   5   3 -13   46.68    3.35
  -5   3 -13   43.00    3.68
  -5  -3  13   44.47    4.20
  -5   3  13   39.39    4.42
  -5   3  13   44.86    3.46
  -5   3 -13   46.42    3.14
  -5  -3 -13   47.23    3.57
   5  -3  13   45.40    2.87
   5   3 -14   45.30    3.39
  -5   3  14   38.15    4.58
  -5   3 -14   43.59    3.90
  -5  -3  14   40.71    4.18
  -5   3 -14   40.21    3.07
  -5  -3 -14   41.81    3.48
   5  -3  14   42.72    2.89
   5   3 -15   25.03    2.68
  -5  -3  15   22.43    3.55
  -5   3 -15   29.78    3.40
  -5   3  15   33.38    4.28
  -5   3 -15   25.43    2.57
  -5  -3 -15   26.41    2.89
   5  -3  15   24.59    2.27
  -5  -3  16    0.74    0.90
  -5   3 -16    1.99    1.20
  -5   3  16    1.66    1.69
  -5   3 -16    1.56    0.83
  -5  -3 -16    1.89    1.17
   5  -3  16    1.18    0.57
  -5   3 -17    8.20    1.66
  -5  -3 -17    8.09    1.87
  -5   3 -17    7.08    1.85
  -5   3  17    5.91    1.77
  -5  -3  17    7.68    2.51
  -5   3 -18   71.97    4.75
  -5  -3 -18   79.35    5.57
  -5   3  18   75.50    6.86
  -5  -3  18   72.83    6.35
  -5   3 -19   -0.86    0.66
  -5  -3 -19    0.28    0.83
  -5   3  19   -0.45    1.25
  -5  -3  19    0.02    1.28
  -5  -3 -20    1.41    1.15
  -5   3  20    0.83    1.97
  -5  -3  20   -1.52    1.31
  -5  -3 -21    0.96    1.21
  -5  -3  21    0.85    1.24
  -5  -3 -22    1.00    1.02
  -5  -3  22    0.77    1.54
  -5  -3 -23    0.61    0.98
  -5  -3  23    0.44    1.62
  -5  -4   0   -0.20    0.47
  -5   4   0    0.93    0.50
  -5  -4   1   31.39    1.94
  -5   4  -1   26.93    1.56
  -5   4   1   27.15    1.89
  -5  -4  -1   25.09    1.76
  -5   4   2 3338.62   40.17
  -5   4  -2 3255.42   36.57
   5  -4  -2 3268.46   37.86
  -5   4  -2 3243.12   36.32
  -5  -4  -2 3291.95   38.68
  -5   4   3    2.34    0.88
   5   4   3    0.21    0.34
   5  -4  -3    0.94    0.34
  -5  -4  -3    1.06    0.55
  -5   4  -3    1.60    0.34
   5  -4  -4 1900.47   25.55
  -5   4   4 1977.24   28.26
  -5  -4  -4 1915.47   25.40
   5   4   4 1952.83   25.25
  -5   4  -4 1931.76   22.75
  -5   4   5  303.31    9.18
   5  -4  -5  297.84    7.62
  -5  -4   5  307.27    6.98
  -5   4  -5  300.91    5.69
   5   4   5  302.19    7.19
  -5  -4  -5  308.36    7.35
  -5  -4   6  108.69    4.14
   5  -4  -6  102.64    4.49
  -5   4   6  112.16    5.64
  -5   4  -6  105.97    3.21
   5   4   6  110.18    4.20
   5  -4   6  100.90    3.09
  -5  -4  -6  110.08    4.32
   5  -4  -7  386.65    9.78
  -5  -4   7  388.81    9.02
  -5   4   7  384.70   11.52
  -5  -4  -7  395.42    9.10
  -5   4  -7  393.77    7.39
   5  -4   7  384.35    7.13
   5   4   7  373.00    8.56
   5  -4  -8 1322.79   22.21
  -5  -4   8 1323.56   20.84
  -5   4   8 1313.76   24.88
  -5   4  -8 1315.81   18.12
  -5  -4  -8 1305.43   20.49
   5   4   8 1314.55   19.84
   5  -4   8 1308.29   17.60
  -5  -4   9    9.69    1.62
   5  -4  -9   15.66    2.04
  -5   4   9   16.82    2.57
  -5  -4  -9   16.77    1.86
  -5   4  -9   15.87    1.46
   5   4   9   16.27    1.70
   5  -4   9   14.65    1.31
   5  -4 -10    0.33    0.55
  -5  -4  10    0.55    0.74
  -5   4  10    1.49    1.04
  -5   4  10    1.11    0.76
  -5  -4 -10    1.14    0.61
  -5   4 -10    0.52    0.53
   5  -4  10    0.70    0.40
   5   4  10    2.30    0.80
   5  -4 -11   23.64    2.80
  -5  -4  11   25.43    2.87
  -5   4  11   18.76    2.91
  -5  -4 -11   21.20    2.32
  -5   4 -11   22.23    1.99
  -5   4  11   20.02    2.23
   5   4  11   22.50    2.15
   5  -4  11   22.20    1.77
   5   4 -12  498.60   11.09
   5  -4 -12  521.37   14.10
  -5   4  12  508.90   15.75
  -5   4 -12  517.86   12.60
  -5  -4  12  503.79   14.06
  -5   4  12  516.25   12.57
  -5   4 -12  504.33   10.76
  -5  -4 -12  501.16   12.39
   5  -4  12  513.77   10.24
   5   4  12  518.75   11.76
   5   4 -13  100.61    4.83
  -5  -4  13   99.34    6.33
  -5   4  13  101.24    7.13
  -5   4 -13  105.55    5.65
  -5  -4 -13  103.45    5.42
  -5   4 -13  108.92    4.77
   5  -4  13  112.03    4.45
   5   4 -14  362.41    9.82
  -5   4 -14  344.55   11.15
  -5   4  14  327.90   13.57
  -5  -4  14  339.45   12.52
  -5   4 -14  357.84    9.36
  -5  -4 -14  350.38   10.75
   5  -4  14  361.17    8.82
   5   4 -15   -0.19    0.55
  -5   4  15    0.23    1.14
  -5  -4  15   -0.38    1.30
  -5   4 -15   -0.50    0.66
  -5  -4 -15   -0.23    0.88
  -5   4 -15   -0.16    0.64
   5  -4  15    0.30    0.54
  -5   4  16   34.11    4.59
  -5  -4  16   38.29    4.52
  -5   4 -16   36.57    3.85
  -5   4 -16   43.67    3.39
  -5  -4 -16   44.98    4.06
   5  -4  16   41.25    3.00
  -5   4 -17  116.82    7.21
  -5  -4  17  112.32    7.83
  -5   4  17  125.70    8.56
  -5  -4 -17  115.18    6.54
  -5   4 -17  125.06    5.93
  -5   4  18  502.22   17.87
  -5   4 -18  487.91   15.73
  -5  -4  18  506.21   17.25
  -5  -4 -18  494.19   14.80
  -5  -4  19    5.03    2.04
  -5   4  19    5.32    2.13
  -5  -4 -19    3.10    1.23
  -5  -4  20   72.30    6.61
  -5  -4 -20   75.01    5.73
  -5  -4  21    5.99    1.89
  -5  -4 -21    4.73    1.52
  -5  -4  22   37.18    5.03
  -5  -4 -22   29.81    3.86
  -5  -4  23   18.14    3.70
  -5  -4 -23   16.55    3.04
  -5   5   0   -0.51    0.51
  -5  -5   0    0.16    0.45
  -5   5  -1   85.08    3.04
  -5   5   1   88.71    3.82
  -5  -5  -1   72.81    3.14
  -5  -5   1   76.90    3.23
  -5   5   2  357.72    8.84
  -5  -5   2  364.76    7.62
  -5   5  -2  362.14    6.53
   5  -5  -2  345.87    7.15
  -5  -5  -2  363.88    7.77
  -5   5  -2  357.57    5.86
  -5   5   3   36.15    2.80
  -5   5  -3   33.48    1.54
   5  -5  -3   33.19    2.11
  -5  -5  -3   29.86    2.07
   5   5   3   30.61    2.08
  -5   5  -3   32.24    1.39
  -5   5   4    5.76    1.25
   5  -5  -4    8.93    1.23
   5   5   4    7.46    1.06
  -5   5  -4    8.33    0.74
  -5  -5  -4    8.69    1.19
  -5   5   5    1.72    1.06
   5  -5  -5   -0.08    0.37
  -5  -5   5    0.40    0.41
  -5  -5  -5    1.37    0.51
  -5   5  -5    0.07    0.26
   5   5   5    0.72    0.44
  -5  -5   6   39.75    2.45
   5  -5  -6   39.61    2.85
  -5   5   6   35.96    3.37
  -5   5  -6   37.04    1.77
  -5  -5  -6   41.79    2.73
   5   5   6   40.40    2.59
  -5  -5   7    0.49    0.43
   5  -5   7    0.03    0.26
   5  -5  -7    0.56    0.62
  -5   5   7    0.24    0.96
  -5   5  -7    0.69    0.29
   5   5   7    0.66    0.49
  -5  -5  -7    1.60    0.63
  -5  -5   8  248.16    7.20
   5  -5  -8  218.55    7.83
  -5   5   8  234.57    9.43
  -5  -5  -8  236.61    7.27
  -5   5  -8  226.88    5.34
  -5   5   8  238.87    7.21
   5  -5   8  221.63    5.09
   5   5   8  249.37    7.02
   5  -5  -9  177.56    7.22
  -5  -5   9  169.00    6.36
  -5   5   9  167.34    8.18
  -5   5  -9  175.39    4.92
  -5   5   9  186.80    6.47
  -5  -5  -9  176.59    6.43
   5  -5   9  178.26    4.66
   5   5   9  180.11    6.02
  -5  -5  10   31.10    2.88
   5  -5 -10   34.69    3.34
  -5   5  10   31.21    3.53
  -5   5 -10   37.08    2.66
  -5   5  10   33.40    2.80
  -5   5 -10   29.71    2.05
  -5  -5 -10   28.83    2.66
   5  -5  10   30.50    1.91
   5   5  10   32.60    2.55
  -5  -5  11   44.15    3.77
   5  -5 -11   37.96    3.65
  -5   5 -11   42.37    3.12
  -5   5  11   36.52    3.97
  -5   5  11   44.91    3.32
  -5  -5 -11   47.11    3.49
  -5   5 -11   44.55    2.66
   5  -5  11   41.50    2.35
   5   5  11   48.71    3.24
  -5  -5  12    3.90    1.22
  -5   5  12    2.67    1.43
  -5   5 -12    3.12    1.01
  -5   5  12    2.62    0.95
  -5   5 -12    4.27    1.00
  -5  -5 -12    6.68    1.30
   5  -5  12    4.55    0.84
  -5   5  13   14.56    2.81
  -5   5 -13   14.85    2.10
  -5  -5  13   13.13    2.41
  -5   5 -13   11.72    1.48
  -5  -5 -13   13.69    2.07
   5  -5  13   13.18    1.47
  -5   5  14    2.43    1.82
  -5   5 -14    1.94    0.97
  -5  -5  14    0.75    1.05
  -5   5 -14    3.35    0.91
  -5  -5 -14    2.08    0.99
   5  -5  14    2.76    0.81
   5   5 -15    6.15    1.23
  -5  -5  15    6.01    1.86
  -5   5 -15    4.27    1.28
  -5   5  15    4.85    1.81
  -5  -5 -15    6.52    1.72
  -5   5 -15    4.99    1.10
   5  -5  15    6.16    1.07
  -5   5  16   20.91    3.52
  -5   5 -16   21.91    2.82
  -5  -5  16   24.90    3.61
  -5  -5 -16   28.72    3.29
   5  -5  16   25.19    2.29
  -5   5 -17   27.88    3.34
  -5  -5  17   28.88    3.94
  -5   5  17   27.28    4.17
  -5  -5 -17   26.50    3.24
   5  -5  17   27.59    2.51
  -5  -5  18    0.10    1.17
  -5   5 -18    2.16    1.36
  -5   5  18    0.09    1.21
  -5  -5 -18    0.61    0.95
  -5  -5  19    0.39    1.01
  -5  -5 -19   -1.53    1.00
  -5  -5  20   -1.05    1.40
  -5  -5 -20    0.22    0.92
  -5  -5  21    5.04    2.22
  -5  -5 -21    3.00    1.34
  -5  -5  22    1.18    1.90
  -5  -5 -22   -0.54    1.20
  -5  -5  23   10.55    3.12
  -5   6   0    0.27    0.41
  -5  -6   0   -0.22    0.45
  -5   6   1  183.49    6.01
  -5   6  -1  181.81    5.18
  -5  -6  -1  190.55    5.37
  -5  -6   1  183.78    5.17
  -5   6   2   40.66    2.96
   5  -6  -2   38.79    2.13
  -5   6  -2   39.55    2.06
  -5  -6   2   33.95    2.17
  -5   6  -2   37.49    1.41
  -5  -6  -2   33.38    2.22
  -5   6   3    7.32    1.47
  -5   6  -3    5.21    0.66
   5  -6  -3    4.58    0.86
   5   6   3    6.13    0.94
  -5  -6   3    7.10    1.02
  -5   6  -3    6.18    0.55
  -5  -6  -3    7.96    1.19
  -5   6   4   21.46    2.44
  -5   6  -4   21.70    1.18
   5  -6  -4   20.83    1.88
  -5   6  -4   23.60    1.09
  -5  -6  -4   21.26    1.88
   5   6   4   23.44    1.93
   5  -6  -5 1803.36   25.70
  -5  -6   5 1745.65   23.61
  -5   6  -5 1791.60   20.44
  -5   6   5 1797.18   29.18
  -5   6  -5 1783.60   20.63
   5   6   5 1784.98   24.71
  -5  -6  -5 1779.40   25.13
  -5  -6   6   19.08    1.69
   5  -6  -6   19.72    2.10
  -5   6   6   18.07    2.55
  -5   6  -6   19.38    1.12
  -5   6   6   20.86    1.90
   5   6   6   18.94    1.81
  -5  -6  -6   18.71    1.91
   5  -6  -7  484.60   11.82
  -5  -6   7  471.95    9.97
  -5   6   7  465.13   13.38
  -5   6   7  473.18   10.40
  -5   6  -7  460.64    7.59
  -5  -6  -7  467.72   10.74
   5   6   7  463.10   10.16
   5  -6   8  185.79    4.25
   5  -6  -8  195.34    7.49
  -5  -6   8  179.79    6.14
  -5   6   8  176.99    8.31
  -5   6  -8  217.88    5.51
  -5   6   8  199.83    6.61
  -5   6  -8  186.62    4.50
  -5  -6  -8  183.07    6.57
   5   6   8  188.55    6.21
  -5  -6   9  377.10    9.89
   5  -6  -9  388.72   11.33
  -5   6   9  372.81   12.81
  -5   6  -9  415.57    8.48
  -5   6   9  401.17   10.08
  -5   6  -9  386.34    7.46
  -5  -6  -9  381.01   10.16
   5   6   9  389.38    9.60
   5  -6   9  396.71    7.18
  -5  -6  10   61.80    4.04
   5  -6 -10   69.38    4.91
  -5   6 -10   69.25    3.40
  -5   6  10   65.06    5.24
  -5   6 -10   67.47    2.90
  -5   6  10   72.82    4.16
  -5  -6 -10   62.80    4.05
   5   6  10   65.56    3.74
   5  -6  10   68.14    2.73
  -5  -6  11  567.30   14.22
   5  -6 -11  622.98   15.91
  -5   6  11  597.90   17.40
  -5   6 -11  620.67   12.34
  -5  -6 -11  581.81   13.84
  -5   6  11  624.71   13.88
  -5   6 -11  588.49   10.72
   5  -6  11  600.85   10.23
  -5   6  12   -0.74    1.17
  -5  -6  12   -0.63    0.75
  -5   6 -12    1.09    0.62
  -5   6 -12    0.83    0.63
  -5  -6 -12    0.08    0.67
   5  -6  12    0.42    0.37
  -5   6 -13   79.46    4.41
  -5   6  13   77.59    6.30
  -5  -6  13   81.81    5.56
  -5  -6 -13   79.52    5.00
   5  -6  13   80.44    3.48
  -5   6 -14    1.66    0.67
  -5   6  14   -0.88    1.09
  -5  -6  14    0.48    1.00
  -5  -6 -14    1.28    0.84
   5  -6  14    2.18    0.68
  -5   6  15  532.32   17.70
  -5   6 -15  501.40   12.91
  -5  -6  15  497.22   15.66
  -5  -6 -15  496.11   14.14
   5  -6  15  521.74   10.74
  -5   6 -16  110.15    5.90
  -5   6  16  126.36    8.86
  -5  -6  16  113.75    7.46
  -5  -6 -16  117.01    6.71
   5  -6  16  118.05    4.88
  -5   6 -17  221.10    8.87
  -5  -6  17  229.43   10.84
  -5  -6 -17  242.84   10.07
   5  -6  17  233.56    7.31
  -5  -6  18   82.81    6.66
  -5  -6 -18   80.24    5.85
  -5  -6  19  100.17    7.46
  -5  -6 -19  102.46    6.79
  -5  -6  20    6.47    2.24
  -5  -6 -20    6.59    1.80
  -5  -6  21  247.61   12.24
  -5  -6 -21  244.09   11.18
  -5  -6  22    4.12    1.74
  -5  -6  23   22.25    3.83
  -5   7   0    0.07    0.44
  -5  -7   0   -0.22    0.41
  -5   7  -1    9.81    1.23
  -5   7   1   12.06    1.65
  -5   7   1   12.86    1.11
  -5  -7  -1   10.29    1.26
  -5  -7   1    9.90    1.19
   5  -7  -2   57.91    2.67
  -5   7  -2   59.14    2.58
  -5   7   2   56.16    3.54
  -5   7   2   56.80    2.52
  -5   7  -2   55.60    1.54
  -5  -7  -2   66.42    3.22
  -5  -7   2   65.25    3.02
   5   7   3   14.28    1.47
   5  -7  -3   14.44    1.48
  -5   7   3   13.83    1.85
  -5   7  -3   14.88    1.12
  -5   7   3   12.48    1.28
  -5  -7  -3   16.09    1.64
  -5  -7   3   15.12    1.43
  -5   7  -3   14.53    0.66
  -5  -7   4    0.47    0.54
   5  -7  -4    0.87    0.55
   5   7   4    0.23    0.37
  -5   7   4   -0.12    0.65
  -5   7  -4    0.28    0.24
  -5   7   4    1.07    0.51
  -5   7  -4    0.53    0.15
  -5  -7  -4   -0.16    0.61
  -5  -7   5    7.97    1.10
   5  -7  -5    9.81    1.43
   5   7   5    8.72    1.28
  -5   7   5    8.91    1.77
  -5   7  -5    7.57    0.48
  -5   7   5    8.61    1.21
  -5  -7  -5    9.27    1.37
   5  -7  -6    4.39    1.09
  -5  -7   6    6.86    1.05
  -5   7   6    1.39    0.71
  -5   7  -6    4.66    0.44
  -5   7   6    3.89    0.91
  -5  -7  -6    5.33    1.09
   5   7   6    7.98    1.23
   5  -7  -7    1.23    0.85
  -5  -7   7    3.14    0.93
  -5   7   7    0.75    1.18
  -5   7  -7    0.92    0.30
  -5   7   7    1.11    0.58
   5   7   7    2.09    0.72
  -5  -7  -7    1.14    0.75
   5  -7  -8   12.21    1.93
  -5   7  -8    9.12    0.51
  -5  -7   8    7.66    1.25
  -5   7   8   12.22    2.26
  -5   7  -8   10.39    0.79
  -5   7   8   10.13    1.50
  -5  -7  -8    9.36    1.57
   5   7   8    7.77    1.32
   5  -7  -9    6.71    1.49
  -5  -7   9    6.35    1.33
  -5   7   9    3.26    1.28
  -5   7  -9    4.66    0.62
  -5   7   9    5.51    1.13
  -5  -7  -9    3.98    1.07
   5   7   9    6.66    1.20
   5  -7  10    4.17    0.62
   5  -7 -10    7.22    1.61
  -5  -7 -10    3.30    1.08
  -5   7  10    5.95    1.33
  -5  -7  10    2.73    1.06
  -5   7  10    7.46    2.05
  -5   7 -10    6.28    0.86
   5  -7  11    0.83    0.37
  -5   7  11   -0.55    1.14
  -5  -7  11    2.86    1.14
  -5   7 -11    0.92    0.41
  -5  -7 -11    0.23    0.72
  -5   7  11    1.43    0.65
  -5  -7  12   -0.75    0.96
  -5   7 -12    0.44    0.46
  -5   7  12    0.05    0.87
  -5  -7 -12    0.02    0.86
   5  -7  12    0.16    0.28
  -5   7 -13    1.09    0.68
  -5   7  13   -1.31    1.29
  -5  -7  13    0.07    0.72
  -5  -7 -13    0.95    0.87
   5  -7  13    1.32    0.49
  -5   7 -14   10.88    1.56
  -5   7  14   12.13    2.86
  -5  -7  14   10.26    2.18
  -5  -7 -14    8.99    1.84
   5  -7  14   11.85    1.34
  -5  -7  15    1.51    0.83
  -5   7 -15    2.20    0.79
  -5  -7 -15   -0.13    1.00
   5  -7  15    3.32    0.79
  -5  -7  16   -0.39    0.83
  -5  -7 -16   -0.26    0.99
  -5  -7  17    6.28    1.75
  -5  -7 -17    5.11    1.42
  -5  -7  18    1.36    1.44
  -5  -7 -18    0.04    1.03
  -5  -7  19   27.84    3.91
  -5  -7 -19   27.40    3.66
  -5  -7  20    5.44    1.79
  -5  -7 -20    6.04    1.90
  -5  -7  21    9.03    2.15
  -5  -7 -21   12.61    2.73
  -5  -7  22    1.94    1.53
  -5   8   0    0.59    0.55
  -5   8   0    0.01    0.23
  -5  -8   0    0.22    0.43
  -5   8  -1  118.52    3.89
  -5   8   1  126.87    4.91
  -5   8   1  125.10    3.43
  -5   8  -1  119.70    2.49
  -5  -8  -1  132.83    4.67
  -5   8  -1  127.19    2.41
  -5  -8   1  124.85    4.36
   5  -8  -2  551.41    9.87
  -5   8   2  552.88   12.09
  -5   8   2  555.59    9.32
  -5  -8  -2  568.42   11.15
  -5  -8   2  547.36   10.35
   5  -8  -3   25.32    1.99
  -5   8   3   25.73    2.55
  -5   8   3   25.38    1.76
  -5  -8   3   26.35    1.94
  -5  -8  -3   26.55    2.21
   5  -8  -4  175.70    5.87
  -5   8   4  172.61    7.04
  -5   8   4  180.15    5.28
  -5  -8  -4  187.25    6.17
   5   8   4  190.15    5.95
  -5  -8   4  188.88    5.49
   5   8   5   15.43    1.72
  -5  -8   5   16.58    1.64
   5  -8  -5   21.11    2.13
  -5   8   5   21.04    2.60
  -5   8   5   18.62    1.72
  -5  -8  -5   16.08    1.83
  -5  -8   5   16.50    1.55
  -5  -8   6  315.57    7.60
   5  -8  -6  309.63    9.12
  -5   8   6  319.75   10.62
  -5  -8  -6  304.26    8.70
  -5   8   6  311.00    7.99
   5   8   6  331.18    8.51
  -5  -8   7   41.47    2.69
   5  -8  -7   53.21    3.83
  -5   8   7   50.29    4.25
  -5   8   7   47.94    3.08
  -5  -8  -7   43.95    3.23
   5   8   7   46.14    3.07
  -5  -8   8  428.97    9.97
   5  -8  -8  436.85   12.16
  -5   8   8  428.59   13.51
  -5   8   8  437.58   10.55
  -5  -8  -8  428.39   11.26
   5   8   8  453.83   10.66
  -5  -8   9    6.07    1.29
   5  -8  -9    9.74    1.92
  -5  -8  -9    4.92    1.19
  -5   8   9    6.52    1.29
  -5   8   9   10.61    2.31
  -5  -8  10   21.32    2.35
  -5   8  10   21.03    2.38
  -5  -8 -10   19.95    2.36
  -5   8  10   17.99    3.18
  -5  -8  11   67.99    4.45
  -5  -8 -11   65.96    4.58
  -5   8 -12  107.30    2.51
  -5  -8  12  129.50    6.51
  -5  -8 -12  128.35    6.58
   5  -8  12  124.96    3.45
  -5   8 -13   44.68    1.99
  -5  -8  13   43.62    4.02
  -5  -8 -13   48.75    4.14
   5  -8  13   44.26    2.30
  -5  -8  14  240.87    9.83
  -5  -8 -14  260.03   10.07
  -5  -8  15   81.21    5.93
  -5  -8 -15   93.04    6.12
  -5  -8  16    4.81    3.19
  -5  -8 -16    3.32    1.41
  -5  -8  17    3.85    1.66
  -5  -8 -17    1.03    1.67
  -5  -8  18  217.79   10.36
  -5  -8 -18  240.18   10.68
  -5  -8  19    4.91    1.59
  -5  -8 -19    4.80    1.59
  -5  -8 -20  128.13    8.18
  -5   9   0    0.03    0.16
  -5  -9   0   -0.05    0.42
  -5   9   1    8.64    0.77
  -5  -9   1    9.85    1.26
  -5  -9  -1    8.80    1.21
   5  -9  -2   87.92    3.36
  -5   9   2   87.52    2.92
  -5  -9  -2   86.17    4.04
  -5  -9   2   84.87    3.63
   5  -9  -3   30.60    2.19
  -5  -9  -3   32.24    2.51
  -5   9   3   29.60    1.84
  -5  -9   3   31.17    2.13
   5  -9  -4   16.24    1.75
   5   9   4   17.75    1.85
  -5  -9  -4   19.45    2.04
  -5   9   4   18.03    1.55
  -5  -9   4   18.84    1.64
  -5  -9   5    0.70    0.42
   5   9   5    1.49    0.70
  -5  -9   5    1.11    0.54
   5  -9  -5   -0.60    0.77
  -5   9   5    0.49    0.60
  -5  -9  -5    1.09    0.63
   5  -9  -6   76.48    4.42
  -5  -9   6   79.51    3.59
  -5   9   6   76.44    3.71
  -5  -9  -6   74.20    4.24
   5   9   6   82.87    4.16
  -5  -9   6   79.56    3.53
   5  -9  -7   52.96    3.89
  -5  -9   7   49.26    2.75
  -5  -9   7   45.80    2.86
  -5  -9  -7   47.97    3.51
  -5   9   7   49.30    3.17
   5   9   7   53.44    3.39
  -5  -9   8    3.16    0.82
   5  -9  -8    6.92    1.51
  -5  -9  -8    6.17    1.51
  -5   9   8    6.19    1.23
   5  -9  -9    4.43    1.39
  -5  -9   9    2.61    0.83
  -5   9   9    2.39    0.82
  -5  -9  -9    2.03    0.81
  -5  -9  10    4.17    1.14
  -5   9  10    4.34    1.17
  -5  -9 -10    5.99    1.46
  -5  -9  11   15.49    2.12
  -5  -9 -11   13.13    2.14
  -5  -9  12    0.01    0.68
  -5  -9 -12    2.11    1.07
  -5  -9  13    0.91    0.85
  -5  -9 -13    0.54    0.86
  -5  -9  14    1.59    1.03
  -5  -9 -14   -0.95    1.43
  -5  -9  15   -1.31    1.00
  -5  -9 -15   -0.47    1.07
  -5  -9  16   19.75    2.93
  -5  -9 -16   24.94    3.38
  -5  -9 -17    0.36    1.19
  -5  -9 -18   10.18    2.35
  -5  -9 -19   10.89    2.43
  -5 -10   0    0.04    0.42
  -5 -10  -1  129.25    4.96
  -5 -10   1  126.22    4.69
  -5  10   1  131.42    2.78
   5 -10  -2  109.75    3.75
  -5 -10  -2  110.98    4.69
  -5  10   2  109.76    3.06
  -5 -10   2  110.84    4.23
   5 -10  -3   44.92    2.64
  -5  10   3   44.29    2.13
  -5 -10  -3   39.46    2.88
  -5 -10   3   42.96    2.57
   5 -10  -4    3.36    0.89
  -5 -10  -4    3.15    0.91
  -5  10   4    2.86    0.66
  -5 -10   4    3.15    0.65
   5  10   5   74.49    3.91
  -5 -10   5   75.11    3.44
   5 -10  -5   62.19    3.76
  -5  10   5   73.43    3.31
  -5 -10  -5   73.57    4.22
  -5 -10   5   70.02    3.22
  -5 -10   6   12.22    1.40
   5  10   6   11.80    1.66
   5 -10  -6   12.10    1.86
  -5  10   6   12.27    1.42
  -5 -10  -6   10.18    1.77
  -5 -10   6   10.73    1.30
   5 -10  -7   50.58    3.86
  -5 -10   7   55.79    3.12
  -5 -10  -7   51.31    3.75
  -5  10   7   50.85    3.13
  -5 -10   7   51.32    2.77
   5 -10  -8   53.93    4.15
  -5 -10   8   43.84    2.93
  -5  10   8   46.62    3.14
  -5 -10  -8   44.57    3.60
  -5 -10   8   44.51    2.59
  -5 -10   9  119.89    5.23
  -5 -10   9  129.33    4.63
  -5  10   9  120.06    5.38
  -5 -10  -9  122.41    6.24
  -5 -10 -10    8.70    1.80
  -5  10  10   11.09    1.69
  -5 -10  10    8.87    1.48
  -5 -10  11  197.75    7.51
  -5 -10 -11  202.08    8.55
  -5 -10  12   60.23    4.24
  -5 -10 -12   64.84    4.91
  -5 -10  13    4.23    1.18
  -5 -10 -13    6.75    1.64
  -5 -10 -14   27.27    3.38
  -5 -10 -15  168.63    8.79
  -5 -10 -16    1.07    0.93
  -5 -10 -17  107.22    7.24
  -5 -10 -18   -0.09    1.25
  -5 -11   0    0.29    0.42
  -5 -11   1   10.87    1.38
  -5 -11  -1   12.50    1.59
   5 -11  -2   41.15    2.17
  -5 -11  -2   41.21    2.94
  -5  11   2   42.82    1.58
  -5 -11   2   38.16    2.49
   5 -11  -3    1.64    0.56
  -5 -11  -3    1.28    0.80
  -5  11   3    2.38    0.49
  -5 -11   3    1.77    0.48
   5 -11  -4    7.79    1.29
  -5 -11  -4    7.51    1.37
  -5 -11   4    8.69    1.15
  -5  11   4    6.54    0.84
  -5 -11   5   87.93    3.75
   5 -11  -5   80.37    4.22
  -5 -11  -5   87.87    4.77
  -5  11   5   77.12    3.30
  -5 -11   5   90.29    3.62
  -5 -11   6    5.19    0.93
   5 -11  -6    4.56    1.20
  -5 -11  -6    4.09    1.00
  -5  11   6    5.29    0.99
  -5 -11   6    4.53    0.82
   5 -11  -7   -1.15    0.67
  -5 -11   7    1.61    0.70
  -5 -11  -7    0.12    0.75
  -5 -11   7    1.80    0.56
  -5  11   7    0.45    0.48
  -5 -11   8    0.42    0.61
  -5  11   8    1.20    0.79
  -5 -11  -8   -0.92    0.82
  -5 -11   8   -0.01    0.35
  -5 -11   9   12.66    1.37
  -5 -11   9   14.77    1.78
  -5 -11  -9   11.67    1.97
  -5 -11 -10   51.93    4.34
  -5 -11  10   59.08    2.99
  -5 -11 -11    3.97    1.35
  -5 -11 -12    3.20    1.47
  -5 -11 -13   11.71    2.40
  -5 -11 -14    0.47    0.91
  -5 -11 -15   10.42    2.26
  -5 -11 -16    4.21    1.65
  -5 -11 -17    0.45    1.12
  -5 -12   0    0.63    0.64
  -5 -12  -1   12.44    1.61
  -5 -12   1   13.49    1.53
  -5 -12  -2  271.35    8.01
  -5 -12   2  269.82    7.04
  -5 -12  -3    1.48    0.75
  -5 -12   3   -0.07    0.46
  -5 -12   4  111.91    4.22
  -5 -12  -4  117.30    5.42
  -5 -12   4  109.17    4.08
  -5 -12   5    9.66    1.21
  -5 -12  -5   10.63    1.67
  -5 -12   5   11.18    1.24
  -5 -12  -6   15.93    2.14
  -5 -12  -7   33.83    3.23
  -5 -12  -8  120.83    6.24
  -5 -12  -9   -0.35    0.88
  -5 -12 -10   27.02    3.18
  -5 -12 -11   42.80    4.13
  -5 -12 -12   28.05    3.45
  -5 -12 -13   34.17    3.95
  -5 -12 -14   83.86    6.16
  -5 -12 -15   16.53    2.84
  -5 -12 -16    1.06    0.81
  -5 -13  -1    5.00    1.03
  -5 -13  -2   -0.22    0.51
  -5 -13  -3   -0.41    0.59
  -5 -13  -4    3.18    1.05
  -5 -13  -5    1.18    0.76
  -5 -13  -6    1.76    0.87
  -5 -13  -7   -0.21    0.62
  -5 -13  -8   18.63    2.50
  -5 -13  -9   -0.59    1.13
  -5 -13 -10   22.54    3.37
  -5 -13 -11    3.33    1.47
  -5 -13 -12    2.11    1.65
  -5 -13 -13    1.25    0.80
  -5 -13 -14   -0.39    1.10
  -5 -13 -15    0.10    1.29
  -6   0  -1   13.75    1.36
  -6   0  -2  105.75    3.62
  -6   0   3    0.34    0.54
  -6   0  -3    0.23    0.35
   6   0   4  424.35    8.30
  -6   0   4  458.22    9.16
  -6   0  -4  436.62    8.42
   6   0   5   -0.10    0.31
  -6   0   5    0.06    0.49
  -6   0  -5    0.09    0.42
  -6   0   6  667.13   12.95
   6   0   6  645.50   11.23
  -6   0  -6  645.52   11.37
   6   0  -7   -0.03    0.41
  -6   0   7    0.50    0.59
  -6   0  -7   -0.08    0.54
   6   0   7    0.17    0.36
   6   0  -8   74.19    3.87
  -6   0   8   88.70    4.78
  -6   0  -8   84.83    3.74
   6   0   8   86.46    3.64
  -6   0   9    0.54    0.86
   6   0  -9    0.05    0.57
  -6   0  -9    0.53    0.60
   6   0   9   -0.60    0.55
   6   0 -10  884.19   16.37
  -6   0  10  859.88   18.77
  -6   0 -10  865.54   15.57
   6   0  10  882.19   14.96
   6   0 -11    0.03    0.44
  -6   0  11   -0.85    1.25
  -6   0 -11   -0.74    0.69
   6   0  11   -0.42    0.65
   6   0 -12  597.17   13.64
  -6   0  12  584.32   16.29
  -6   0 -12  572.66   12.70
   6   0  12  580.46   12.07
   6   0 -13    0.44    0.49
  -6   0  13   -0.04    0.97
  -6   0 -13   -1.12    1.08
   6   0  13   -1.14    0.70
  -6   0  14    4.36    1.71
  -6   0 -14    4.06    1.10
   6   0  14    5.29    1.23
  -6   0 -15   -0.63    0.65
  -6   0  15   -0.32    1.09
  -6   0 -16  632.71   15.18
  -6   0  16  605.61   19.24
  -6   0 -17   -1.59    1.21
  -6   0  17    0.61    1.19
  -6   0 -18   64.24    4.84
  -6   0  18   66.85    6.44
  -6   0 -19    0.16    0.76
  -6   0  19   -1.73    1.69
  -6   0 -20   59.84    4.91
  -6   0  20   66.71    6.75
  -6   0 -21    0.32    0.99
  -6   0  21   -1.44    1.86
  -6   0 -22  358.05   13.18
  -6   0  22  362.33   16.49
  -6   0 -23    0.16    0.90
  -6   0  23   -0.49    1.55
  -6   0  24   54.03    6.77
  -6  -1  -1   49.92    2.49
  -6   1   2  121.58    3.96
  -6   1  -2  122.29    3.77
  -6  -1  -2  110.62    3.81
  -6   1   3   35.68    2.25
  -6  -1  -3   46.73    2.39
  -6   1  -3   35.73    2.03
  -6  -1   4   60.40    2.94
  -6   1   4   61.19    3.17
  -6   1  -4   55.28    2.57
  -6  -1  -4   59.56    2.83
   6   1   4   61.86    2.81
   6  -1  -5  137.29    4.69
  -6   1   5  150.59    5.37
  -6  -1   5  141.98    4.99
   6  -1   5  142.28    4.28
  -6  -1  -5  142.41    4.57
  -6   1  -5  146.27    4.37
   6   1   5  142.30    4.55
  -6   1   6   15.59    1.92
   6  -1  -6   14.20    1.52
  -6  -1   6   12.71    1.54
  -6  -1  -6   14.54    1.51
  -6   1  -6   14.54    1.36
   6  -1   6   13.46    1.34
   6   1   6   13.10    1.38
  -6   1   7   31.89    2.80
   6  -1  -7   35.92    2.47
  -6  -1   7   24.38    2.33
  -6  -1  -7   27.49    2.09
   6   1   7   29.91    2.11
   6  -1   7   34.96    2.17
  -6   1  -7   30.55    2.09
  -6   1   8   -0.25    0.99
   6   1  -8    0.62    0.54
  -6  -1   8    0.82    0.62
   6  -1  -8    0.25    0.41
  -6   1  -8   -0.07    0.48
   6  -1   8    0.39    0.39
   6   1   8    0.34    0.37
  -6  -1  -8    0.90    0.57
  -6  -1   9    0.84    0.70
  -6   1   9    4.62    1.57
   6  -1  -9    3.69    1.00
   6   1  -9    1.92    0.78
   6  -1   9    2.62    0.68
   6   1   9    2.19    0.73
  -6   1  -9    4.20    0.92
  -6  -1  -9    0.81    0.45
  -6  -1  10  127.11    6.39
   6   1 -10  126.94    5.14
   6  -1 -10  116.34    5.38
  -6   1  10  122.91    6.57
  -6  -1 -10  113.57    4.95
  -6   1 -10  118.18    4.78
   6   1  10  113.95    4.60
   6  -1  10  121.52    4.57
   6   1 -11  270.92    8.05
   6  -1 -11  265.60    8.46
  -6  -1  11  243.51    9.47
  -6   1  11  240.18   10.08
  -6   1 -11  255.42    7.51
  -6  -1 -11  251.13    7.75
   6   1  11  257.32    7.36
   6  -1  11  253.62    7.07
   6   1 -12    3.19    0.97
   6  -1 -12    3.00    1.03
  -6  -1  12    2.67    1.25
  -6   1  12    4.37    1.40
  -6   1 -12    3.23    0.87
  -6  -1 -12    3.85    1.13
   6   1  12    3.69    0.94
   6  -1  12    3.43    0.84
   6   1 -13    0.75    0.58
  -6   1  13    1.12    1.14
  -6  -1  13   -0.79    1.02
  -6  -1 -13    1.52    0.94
  -6   1 -13   -0.23    0.63
   6  -1  13    0.17    0.46
   6   1  13   -0.18    0.57
  -6   1  14    5.53    1.98
  -6  -1  14    7.64    2.17
  -6   1 -14    5.43    1.29
  -6  -1 -14    6.99    1.50
   6  -1  14    4.81    1.13
  -6  -1  15    9.03    2.57
  -6   1  15   15.17    2.98
  -6   1 -15   15.81    2.17
  -6  -1 -15   15.55    2.27
  -6  -1  16  108.25    8.03
  -6   1  16  132.59    8.66
  -6   1 -16  127.95    6.31
  -6  -1 -16  123.90    6.38
  -6  -1  17  121.63    8.59
  -6   1  17  117.37    8.52
  -6   1 -17  141.07    6.81
  -6  -1 -17  129.14    6.74
  -6  -1  18   15.34    3.09
  -6   1  18   10.78    2.83
  -6   1 -18   13.39    2.21
  -6  -1 -18   13.02    2.19
  -6  -1  19    1.83    1.64
  -6   1  19    0.10    1.12
  -6   1 -19    0.21    0.83
  -6  -1 -19   -0.37    0.75
  -6   1  20    0.17    1.53
  -6  -1  20    6.61    2.53
  -6   1 -20    1.67    0.82
  -6  -1 -20    1.69    1.07
  -6  -1  21   16.48    3.41
  -6   1  21   22.60    4.07
  -6   1 -21   18.03    2.77
  -6  -1 -21   22.51    3.20
  -6   1  22    4.37    2.25
  -6  -1  22    1.77    1.47
  -6   1 -22    2.51    1.09
  -6  -1 -22    3.56    1.32
  -6  -1  23   14.03    3.44
  -6   1  23   16.22    3.64
  -6  -1 -23   12.27    2.65
  -6  -1  24    5.57    2.49
  -6   1  24    2.37    1.99
  -6  -1 -24    7.79    2.33
  -6   2   1  308.84    6.67
  -6  -2  -1  314.16    6.91
  -6  -2  -2   13.86    1.38
  -6   2   2   13.87    1.37
  -6   2  -2   13.10    1.18
  -6   2   3 1889.20   25.09
  -6  -2  -3 1841.62   24.26
  -6   2  -3 1855.36   23.29
  -6   2   4    3.70    0.87
   6   2   4    3.94    0.82
  -6  -2   4    4.77    0.85
  -6   2  -4    3.81    0.70
  -6  -2  -4    3.16    0.62
   6  -2   5  164.93    4.54
  -6  -2   5  164.96    5.21
  -6   2   5  168.64    5.98
   6  -2  -5  167.31    5.30
  -6  -2  -5  162.03    5.08
  -6   2  -5  174.44    4.66
   6   2   5  163.05    5.07
  -6   2   6    3.35    0.91
  -6  -2   6    2.48    0.84
   6  -2   6    3.00    0.68
   6  -2  -6    3.56    0.85
   6   2   6    1.85    0.56
  -6  -2  -6    1.73    0.56
  -6   2  -6    2.80    0.64
  -6   2   7  916.56   18.12
   6  -2  -7  905.21   15.73
  -6  -2   7  905.86   16.06
  -6  -2  -7  919.17   15.28
   6   2   7  921.63   14.90
  -6   2  -7  921.27   14.22
   6  -2   7  902.81   13.99
  -6  -2   8   69.62    4.02
  -6   2   8   63.91    4.44
   6  -2  -8   62.62    3.69
  -6  -2  -8   64.40    3.44
  -6   2  -8   65.12    3.09
   6   2   8   65.43    3.29
   6  -2   8   65.20    3.01
   6   2  -9  402.25    9.32
   6  -2  -9  410.88   10.41
  -6  -2   9  405.59   10.94
  -6   2   9  402.05   12.33
  -6  -2  -9  409.73    9.77
  -6   2  -9  418.49    9.09
   6  -2   9  421.33    8.73
   6   2   9  416.67    9.40
  -6  -2  10   46.39    3.78
   6   2 -10   52.39    3.20
   6  -2 -10   37.90    3.25
  -6   2  10   36.83    3.84
  -6  -2 -10   45.03    3.13
  -6   2 -10   40.71    2.70
   6  -2  10   40.33    2.51
   6   2  10   51.31    3.05
   6   2 -11   22.02    2.29
   6  -2 -11   24.80    2.64
  -6  -2  11   20.73    2.66
  -6   2  11   18.95    2.95
  -6   2 -11   25.64    2.26
  -6  -2 -11   22.92    2.30
   6   2  11   21.73    2.04
   6  -2  11   23.61    1.98
   6  -2 -12   12.48    1.99
   6   2 -12   18.78    2.08
  -6   2  12   13.97    2.62
  -6  -2  12   16.58    2.53
  -6  -2 -12   15.62    2.00
  -6   2 -12   15.30    1.83
   6   2  12   15.07    1.79
   6  -2  12   15.64    1.67
   6   2 -13 1013.26   18.42
  -6  -2  13  961.16   22.43
  -6   2  13  876.18   22.81
  -6  -2 -13  957.01   18.60
  -6   2 -13  935.88   17.45
   6  -2  13  995.15   16.88
  -6   2  14   20.00    3.33
  -6  -2  14   24.25    3.56
  -6   2 -14   21.01    2.34
  -6  -2 -14   20.63    2.35
   6  -2  14   26.94    2.34
  -6   2 -15  644.57   17.29
  -6  -2  15  589.88   18.04
  -6   2  15  574.98   18.83
  -6   2 -15  611.06   14.14
  -6  -2 -15  596.03   14.76
   6  -2  15  626.39   13.25
  -6   2 -16   90.95    5.13
  -6  -2 -16   79.69    5.24
  -6  -2  16   81.12    6.86
  -6   2 -16   89.35    6.25
  -6   2  16   92.51    7.36
  -6   2 -17   15.32    2.32
  -6  -2 -17   13.59    2.37
  -6   2  17   16.24    3.27
  -6  -2  17   11.84    2.73
  -6  -2 -18   86.53    5.70
  -6   2 -18   84.67    5.29
  -6   2  18   94.57    7.76
  -6  -2  18   76.40    6.80
  -6   2 -19  214.15    8.90
  -6  -2 -19  233.64    9.86
  -6   2  19  220.57   12.28
  -6  -2  19  222.44   12.04
  -6   2 -20   11.82    2.20
  -6  -2 -20   10.58    2.19
  -6   2  20   16.74    3.63
  -6  -2  20    8.11    2.28
  -6   2 -21   25.68    3.32
  -6  -2 -21   27.06    3.50
  -6  -2  21   31.80    4.87
  -6   2  21   31.78    4.85
  -6  -2 -22    0.19    1.13
  -6  -2  22    2.44    1.65
  -6   2  22    0.27    1.20
  -6  -2 -23  188.88    9.86
  -6   2  23  187.21   12.49
  -6  -2  23  169.23   11.35
  -6  -2  24   13.60    3.35
  -6  -3   0    0.98    0.42
  -6   3   0    0.90    0.44
  -6  -3  -1    9.46    1.24
  -6   3   1    8.64    1.09
  -6   3  -2    1.83    0.63
  -6   3   2    0.52    0.45
  -6  -3  -2    0.67    0.46
   6   3   3   28.09    2.01
  -6   3   3   20.47    1.91
  -6   3  -3   22.77    1.50
  -6  -3  -3   28.71    2.01
  -6   3   4  113.01    4.78
   6  -3  -4  114.67    4.16
  -6   3  -4  112.34    3.44
   6   3   4  109.78    4.06
  -6  -3  -4  106.99    4.07
  -6  -3   5  104.78    4.09
   6  -3  -5  112.26    4.30
  -6   3   5  112.14    5.18
  -6  -3  -5  105.95    4.15
  -6   3  -5  114.25    3.57
   6   3   5  110.27    4.14
  -6   3   6   24.33    2.59
   6  -3  -6   22.48    2.08
  -6  -3   6   17.61    1.79
   6  -3   6   22.88    1.59
  -6   3  -6   24.28    1.66
  -6  -3  -6   21.73    1.91
   6   3   6   21.79    1.86
  -6   3   7    9.77    1.75
   6  -3  -7    9.77    1.49
  -6  -3   7    9.26    1.43
   6  -3   7    9.31    1.10
  -6   3  -7    8.87    1.06
   6   3   7    9.59    1.31
  -6  -3  -7   10.68    1.40
  -6   3   8    9.14    1.85
   6  -3  -8    7.87    1.30
  -6  -3   8    9.66    1.50
   6  -3   8    9.57    1.14
  -6   3  -8    8.94    1.14
  -6  -3  -8    7.62    1.24
   6   3   8    9.76    1.28
   6  -3  -9   73.86    4.23
  -6  -3   9   64.32    4.09
  -6   3   9   73.97    5.23
  -6  -3  -9   67.71    3.79
  -6   3  -9   68.94    3.28
   6  -3   9   69.53    3.13
   6   3   9   68.56    3.56
   6  -3 -10  272.43    8.77
  -6  -3  10  253.33    8.89
  -6   3  10  264.55   10.52
  -6  -3 -10  263.22    8.02
  -6   3 -10  275.00    7.20
   6  -3  10  262.77    6.71
   6   3  10  272.07    7.64
   6  -3 -11   29.35    2.97
  -6   3  11   28.37    3.51
  -6  -3  11   27.85    3.05
  -6   3 -11   30.20    2.37
  -6  -3 -11   28.53    2.67
   6  -3  11   28.32    2.14
   6   3  11   30.04    2.48
   6  -3 -12    7.24    1.47
   6   3 -12   12.68    1.65
  -6   3  12    8.56    2.42
  -6  -3  12   10.67    2.28
  -6   3 -12    7.12    1.28
  -6  -3 -12   10.81    1.74
   6   3  12   12.41    1.68
   6  -3  12    8.96    1.27
   6   3 -13    0.32    0.51
  -6   3  13    0.32    1.36
  -6  -3  13    1.21    1.17
  -6  -3 -13   -0.50    0.63
  -6   3 -13    0.40    0.50
   6  -3  13    0.58    0.69
  -6  -3  14    7.76    1.97
  -6   3  14    4.24    1.55
  -6   3 -14    6.14    1.65
  -6  -3 -14    5.33    1.50
  -6   3 -14    5.20    1.19
   6  -3  14    6.16    1.18
  -6   3 -15   -0.02    0.79
  -6   3  15    1.77    1.49
  -6  -3  15   -0.13    1.16
  -6  -3 -15    0.28    0.88
  -6   3 -15   -0.03    0.71
   6  -3  15    0.54    0.52
  -6   3  16   44.88    5.24
  -6   3 -16   36.50    3.94
  -6  -3  16   35.38    4.38
  -6   3 -16   39.28    3.32
  -6  -3 -16   35.53    3.57
  -6   3  17   91.71    7.49
  -6  -3  17   93.91    7.47
  -6   3 -17  100.85    5.52
  -6  -3 -17  101.23    6.18
  -6   3  18   33.47    4.75
  -6  -3  18   39.26    4.95
  -6   3 -18   36.64    3.49
  -6  -3 -18   37.81    3.88
  -6  -3  19    5.36    2.22
  -6   3  19    4.26    2.13
  -6   3 -19    2.61    1.10
  -6  -3 -19    4.23    1.61
  -6  -3  20    2.58    2.14
  -6   3  20   -0.34    1.46
  -6   3 -20   -0.41    0.74
  -6  -3 -20   -1.08    1.18
  -6   3  21   30.38    4.71
  -6  -3  21   32.84    4.92
  -6  -3 -21   35.95    4.08
  -6  -3  22    9.68    2.91
  -6   3  22   13.83    3.59
  -6  -3 -22   10.57    2.23
  -6  -3  23   -0.41    1.25
  -6  -3 -23   -0.75    1.18
  -6  -3  24    0.42    1.31
  -6  -3  25   15.74    3.93
  -6   4   0 3046.67   36.31
  -6  -4   0 3065.74   37.04
  -6   4   1   73.21    3.25
  -6   4  -1   77.72    2.89
  -6  -4   1   61.69    3.06
  -6  -4  -1   72.28    3.19
  -6   4   2 1847.71   25.19
  -6   4  -2 1788.84   22.28
  -6   4  -2 1812.77   22.20
  -6  -4  -2 1799.63   24.32
  -6   4   3  164.29    5.85
   6  -4  -3  162.19    4.81
   6   4   3  158.78    5.11
  -6   4  -3  163.33    4.08
  -6  -4  -3  165.93    5.16
  -6   4   4  248.97    7.93
   6  -4  -4  244.41    6.43
   6   4   4  241.73    6.56
  -6  -4  -4  252.54    6.67
  -6   4  -4  246.57    5.26
  -6   4   5    9.31    1.74
   6   4   5    9.10    1.33
   6  -4  -5   10.73    1.36
  -6  -4   5    6.08    1.03
  -6   4  -5    9.57    0.95
  -6  -4  -5   10.29    1.40
  -6   4   6 1800.37   29.20
  -6  -4   6 1838.56   25.20
   6  -4  -6 1862.57   26.12
  -6  -4  -6 1799.52   25.47
  -6   4  -6 1819.79   22.90
   6   4   6 1817.74   25.24
  -6  -4   7  135.97    5.20
   6  -4  -7  152.50    5.77
  -6   4   7  159.52    7.22
  -6   4  -7  148.44    4.29
   6   4   7  142.76    5.15
  -6  -4  -7  134.28    5.19
   6  -4   7  139.21    4.11
  -6   4   8    1.70    0.94
  -6  -4   8    0.67    0.53
   6  -4  -8    1.12    0.49
   6  -4   8    1.39    0.43
  -6   4  -8    1.39    0.51
  -6  -4  -8    3.17    1.00
   6   4   8    1.58    0.71
  -6  -4   9    2.46    0.95
   6  -4  -9    2.84    0.84
   6  -4   9    2.87    0.63
  -6   4   9    1.64    1.08
  -6   4  -9    2.37    0.65
   6   4   9    3.33    0.91
  -6  -4  -9    2.19    0.78
   6  -4 -10  610.73   14.20
  -6  -4  10  591.69   14.00
  -6   4  10  616.60   17.01
  -6   4 -10  598.87   11.36
  -6  -4 -10  586.77   13.07
   6  -4  10  603.43   10.89
   6   4  10  599.86   12.48
   6  -4 -11   -0.16    0.81
  -6   4  11   -1.01    1.22
  -6  -4  11   -0.18    1.02
  -6  -4 -11   -0.22    0.73
  -6   4 -11   -0.48    0.66
   6  -4  11    0.42    0.50
   6   4  11    1.17    0.71
  -6  -4  12  140.56    7.21
  -6   4  12  143.10    8.52
  -6  -4 -12  153.52    6.59
  -6   4 -12  147.18    5.47
  -6   4  12  146.47    6.43
   6  -4  12  156.80    5.23
  -6  -4  13    3.00    1.19
  -6   4 -13    4.63    1.28
  -6   4  13    7.60    2.40
  -6  -4 -13    3.72    0.99
  -6   4 -13    5.21    1.09
   6  -4  13    4.67    0.93
   6   4 -14   84.23    4.51
  -6  -4  14   80.09    6.06
  -6   4  14   82.30    6.61
  -6   4 -14   79.70    5.22
  -6   4 -14   77.15    4.26
  -6  -4 -14   87.02    5.25
   6  -4  14   79.68    3.97
  -6   4 -15   -0.34    0.65
  -6   4  15    2.39    1.71
  -6  -4  15    2.01    1.23
  -6  -4 -15   -0.25    0.99
  -6   4 -15    1.29    0.91
   6  -4  15    0.49    0.46
  -6   4 -16  295.39   11.24
  -6   4  16  282.73   13.21
  -6  -4  16  288.12   12.48
  -6   4 -16  305.61    9.36
  -6  -4 -16  285.27   10.40
   6  -4  16  304.19    8.67
  -6   4  17   11.65    2.86
  -6   4 -17    7.12    1.73
  -6  -4  17    8.12    2.13
  -6  -4 -17   11.03    3.77
  -6   4 -17    9.14    1.60
  -6   4  18   91.28    7.73
  -6  -4  18   85.53    7.11
  -6  -4 -18   87.56    5.91
  -6   4 -18   85.52    5.18
  -6  -4  19   27.00    4.20
  -6   4  19   31.40    4.70
  -6  -4 -19   31.87    3.77
  -6   4 -19   33.48    3.29
  -6   4  20  132.31    9.69
  -6  -4  20  136.08    9.35
  -6  -4 -20  131.96    7.75
  -6   4  21   -1.56    2.10
  -6  -4  21    0.21    1.27
  -6  -4 -21   -1.28    0.90
  -6  -4  22  146.26   10.24
  -6  -4 -22  168.33    9.25
  -6  -4  23   31.77    4.97
  -6  -4  24   -0.29    1.31
  -6  -4  25    2.25    1.46
  -6   5   0   28.85    2.03
  -6  -5   0   20.68    1.76
  -6   5   1  230.26    6.54
  -6   5  -1  219.57    5.50
  -6  -5  -1  219.40    6.13
  -6  -5   1  238.05    6.25
  -6   5  -2  191.95    4.78
  -6  -5   2  212.37    5.82
  -6   5   2  198.67    6.51
  -6  -5  -2  201.90    5.82
  -6   5  -2  189.21    4.33
  -6   5   3    4.33    1.04
  -6   5  -3    3.45    0.58
   6  -5  -3    4.46    0.82
  -6  -5  -3    3.12    0.83
  -6   5  -3    3.81    0.56
  -6   5   4   45.60    3.40
   6  -5  -4   45.91    2.68
  -6  -5  -4   43.49    2.72
  -6   5  -4   43.33    1.90
   6   5   4   41.53    2.64
  -6   5   5   36.40    3.29
  -6  -5   5   36.89    2.37
   6  -5  -5   38.73    2.66
  -6  -5  -5   37.49    2.58
  -6   5  -5   38.44    1.82
   6   5   5   37.38    2.52
   6  -5  -6   76.17    3.91
  -6  -5   6   65.53    3.35
  -6   5   6   71.10    4.83
  -6   5  -6   74.01    2.71
   6   5   6   73.56    3.63
  -6  -5  -6   71.77    3.71
  -6  -5   7   29.99    2.41
   6  -5  -7   25.92    2.43
  -6   5   7   27.36    3.28
  -6  -5  -7   34.62    2.66
  -6   5  -7   26.12    1.70
   6   5   7   39.13    2.68
   6  -5   8   39.04    2.06
  -6  -5   8   40.37    2.93
   6  -5  -8   44.71    3.35
  -6   5   8   34.83    3.74
  -6  -5  -8   35.14    2.77
  -6   5  -8   37.23    2.10
   6   5   8   37.48    2.69
   6  -5   9    2.95    0.65
   6  -5  -9    3.20    1.09
  -6  -5   9    4.33    1.20
  -6   5   9    2.75    1.32
  -6   5  -9    3.91    0.84
   6   5   9    4.21    1.01
  -6  -5  -9    4.26    1.04
   6  -5 -10   97.05    5.37
  -6  -5  10  101.70    5.32
  -6   5  10  105.80    6.84
  -6   5  10  102.21    5.05
  -6   5 -10   98.27    3.88
  -6  -5 -10   99.45    5.09
   6   5  10   95.42    4.55
   6  -5  10   94.97    3.61
   6  -5 -11    0.06    0.52
  -6  -5  11    0.26    0.83
  -6   5  11   -0.14    0.96
  -6  -5 -11    1.12    0.86
  -6   5 -11    0.41    0.43
  -6   5  11   -0.81    0.85
   6  -5  11    0.01    0.31
  -6   5  12   20.54    3.21
  -6   5 -12   24.32    2.52
  -6  -5  12   23.24    2.97
  -6   5 -12   20.74    1.94
  -6  -5 -12   21.78    2.55
   6  -5  12   22.48    1.84
  -6  -5  13    7.51    1.91
  -6   5  13    7.97    2.13
  -6   5 -13   11.67    1.96
  -6   5 -13   12.49    1.60
  -6  -5 -13    8.15    1.65
   6  -5  13    8.97    1.26
  -6  -5  14   -0.82    0.86
  -6   5  14    0.57    1.16
  -6   5 -14    0.35    0.68
  -6   5 -14    0.18    0.46
  -6  -5 -14    0.97    1.00
   6  -5  14   -0.11    0.47
  -6   5 -15    2.31    1.07
  -6  -5  15    4.03    1.71
  -6   5  15    2.42    1.63
  -6  -5 -15    4.19    1.26
  -6   5 -15    4.69    1.22
   6  -5  15    4.18    0.97
  -6  -5  16   25.39    3.77
  -6   5  16   23.87    4.15
  -6   5 -16   22.13    3.06
  -6   5 -16   23.76    2.48
  -6  -5 -16   28.49    3.34
   6  -5  16   26.42    2.38
  -6  -5  17   24.91    3.98
  -6   5 -17   26.69    3.54
  -6   5  17   27.79    4.23
  -6   5 -17   34.75    3.02
  -6  -5 -17   31.44    3.58
   6  -5  17   31.70    2.76
  -6   5  18   -0.98    1.37
  -6  -5  18   -0.19    0.97
  -6   5 -18    1.33    1.03
  -6  -5 -18   -0.28    1.19
  -6   5  19    2.40    1.73
  -6  -5  19   -0.93    1.45
  -6  -5 -19    0.49    1.04
  -6   5  20    2.70    2.22
  -6  -5  20    2.40    1.68
  -6  -5 -20    9.08    2.24
  -6  -5  21    2.65    1.60
  -6  -5 -21    0.60    1.09
  -6  -5  22    0.21    1.42
  -6  -5 -22    1.42    1.02
  -6  -5  23   27.87    4.60
  -6  -5  24   -1.67    1.72
  -6   6   0  114.88    4.55
  -6  -6   0  116.11    4.33
  -6   6   1  249.75    7.36
  -6   6  -1  252.02    6.42
  -6  -6  -1  241.61    6.55
  -6  -6   1  242.02    6.45
  -6   6   2  273.62    8.22
  -6   6  -2  259.13    6.04
  -6  -6   2  266.73    6.81
  -6  -6  -2  273.24    7.07
  -6   6  -2  265.17    5.10
  -6   6   3  285.71    8.88
  -6   6  -3  277.89    5.88
   6  -6  -3  279.74    6.82
  -6  -6   3  287.04    7.13
  -6   6  -3  268.82    5.05
  -6  -6  -3  283.39    7.38
  -6   6   4   34.34    3.12
   6  -6  -4   32.39    2.30
  -6   6  -4   31.31    1.63
  -6  -6  -4   29.53    2.34
  -6   6  -4   31.08    1.46
   6   6   4   32.12    2.35
  -6   6   5   31.19    3.16
  -6   6  -5   27.91    1.45
   6  -6  -5   27.62    2.33
  -6  -6  -5   29.45    2.38
   6   6   5   30.60    2.37
  -6   6  -5   27.71    1.44
  -6  -6   6   67.33    3.47
   6  -6  -6   80.35    4.16
  -6   6   6   76.24    5.19
  -6   6  -6   75.63    2.60
   6   6   6   76.70    3.81
  -6  -6  -6   74.07    3.92
  -6  -6   7  721.86   13.74
   6  -6  -7  747.35   15.05
  -6   6   7  740.58   18.05
  -6   6  -7  730.05   11.02
  -6  -6  -7  730.82   14.45
   6   6   7  752.00   14.09
   6  -6  -8   63.77    4.06
  -6  -6   8   61.03    3.66
  -6   6   8   63.05    5.17
  -6  -6  -8   61.98    3.85
  -6   6  -8   61.66    2.59
  -6   6   8   67.67    3.84
   6   6   8   65.69    3.69
   6  -6  -9  561.60   13.72
  -6  -6   9  578.18   12.83
  -6   6   9  547.05   16.33
  -6   6   9  585.25   12.84
  -6  -6  -9  560.45   13.07
  -6   6  -9  555.94    9.84
   6   6   9  579.41   12.42
   6  -6 -10  161.68    7.17
  -6  -6  10  155.33    6.56
  -6   6  10  149.51    8.40
  -6   6  10  150.63    6.26
  -6   6 -10  157.01    4.78
  -6  -6 -10  151.28    6.46
   6  -6  10  150.92    4.38
  -6  -6  11   58.27    4.25
  -6   6  11   55.59    5.15
  -6   6 -11   51.71    3.28
  -6   6  11   50.45    3.69
  -6   6 -11   50.07    2.79
  -6  -6 -11   53.10    3.93
   6  -6  11   53.09    2.64
  -6  -6  12   21.29    2.79
  -6   6 -12   27.32    2.55
  -6   6  12   22.48    3.37
  -6   6 -12   23.96    2.03
  -6  -6 -12   25.05    2.81
   6  -6  12   23.63    1.86
  -6   6 -13  129.11    5.85
  -6   6  13  128.33    8.33
  -6  -6  13  135.61    7.26
  -6   6 -13  127.59    4.89
  -6  -6 -13  123.71    6.40
   6  -6  13  120.26    4.46
  -6   6  14   21.96    3.51
  -6   6 -14   19.62    2.39
  -6  -6  14   15.53    2.71
  -6  -6 -14   12.30    2.05
  -6   6 -14   18.02    1.95
   6  -6  14   20.27    1.85
  -6   6 -15  158.91    7.14
  -6   6  15  149.14    9.48
  -6  -6  15  144.72    8.28
  -6  -6 -15  146.32    7.40
  -6   6 -15  147.44    5.73
   6  -6  15  145.97    5.30
  -6   6  16    1.33    1.88
  -6   6 -16   -0.39    0.95
  -6  -6  16    1.04    1.38
  -6  -6 -16   -0.41    1.39
   6  -6  16   -0.31    0.61
  -6   6  17   49.17    5.70
  -6  -6  17   41.90    4.78
  -6  -6 -17   46.66    4.47
  -6   6  18    2.34    2.11
  -6  -6  18    1.99    1.85
  -6  -6 -18    1.10    1.16
  -6  -6  19  180.54   10.43
  -6  -6 -19  199.32    9.75
  -6  -6  20   24.74    4.06
  -6  -6 -20   29.70    3.84
  -6  -6  21   13.31    3.15
  -6  -6 -21    8.50    2.03
  -6  -6  22   11.33    2.71
  -6  -6  23   95.47    7.84
  -6  -6  24    4.68    2.68
  -6   7   0   40.52    2.81
  -6  -7   0   40.32    2.58
  -6   7   1   28.79    2.57
  -6   7  -1   24.40    2.00
  -6  -7   1   22.57    1.90
  -6  -7  -1   22.62    1.95
  -6   7   2  127.65    5.69
  -6   7  -2  128.64    4.36
  -6  -7   2  119.22    4.47
  -6  -7  -2  123.92    4.76
  -6   7  -2  125.25    2.98
  -6   7  -3    2.90    0.60
  -6   7   3    4.17    1.06
  -6  -7   3    4.82    0.96
   6  -7  -3    3.15    0.68
  -6   7  -3    3.27    0.45
  -6  -7  -3    3.06    0.87
  -6   7  -4    1.01    0.29
  -6   7   4    6.75    1.67
   6  -7  -4    3.11    0.84
  -6  -7   4    0.31    0.47
   6   7   4    1.34    0.66
  -6   7  -4    1.28    0.31
  -6  -7  -4    0.87    0.64
  -6   7  -5   40.08    1.74
   6  -7  -5   38.03    2.75
  -6   7   5   40.53    3.74
  -6   7  -5   42.57    1.60
  -6   7   5   43.13    2.74
   6   7   5   40.30    2.77
  -6  -7  -5   45.84    3.10
  -6  -7   6    3.28    0.85
  -6   7  -6    1.54    0.35
   6  -7  -6    2.17    0.81
   6   7   6    3.67    0.91
  -6   7   6    1.44    0.97
  -6   7   6    3.10    0.91
  -6   7  -6    2.21    0.41
  -6  -7  -6    1.85    0.92
  -6   7  -7   76.82    2.16
  -6  -7   7   68.39    3.65
   6  -7  -7   82.17    4.55
  -6   7   7   75.46    5.46
  -6   7   7   76.70    3.98
  -6   7  -7   75.05    2.43
  -6  -7  -7   66.95    4.01
   6   7   7   73.66    3.94
   6  -7  -8  129.89    6.04
  -6  -7   8  126.59    5.31
  -6   7   8  131.38    7.39
  -6   7   8  136.72    5.59
  -6   7  -8  130.54    3.51
  -6  -7  -8  127.19    5.75
   6   7   8  131.66    5.45
   6  -7  -9   39.46    3.42
  -6  -7   9   36.04    2.91
  -6   7   9   38.24    3.04
  -6   7  -9   37.71    1.93
  -6  -7  -9   36.31    3.11
  -6   7   9   35.70    4.00
  -6   7  -9   40.08    2.23
  -6  -7  10    7.61    1.54
  -6   7 -10   12.57    1.21
  -6  -7 -10    9.88    1.77
  -6   7  10   12.10    1.78
  -6   7 -10   13.02    1.41
  -6   7  10   10.19    2.13
   6  -7  11   12.55    1.19
  -6  -7  11    9.17    1.75
  -6   7  11   11.41    2.54
  -6   7 -11   10.96    1.39
  -6   7 -11   10.45    1.16
  -6  -7 -11   10.52    1.79
  -6  -7  12   57.54    4.54
  -6   7 -12   62.94    3.43
  -6   7  12   54.31    5.44
  -6   7 -12   59.51    2.93
  -6  -7 -12   53.48    4.21
   6  -7  12   60.53    2.75
   6  -7  13    6.62    0.99
  -6   7 -13    8.20    1.34
  -6  -7  13    3.72    1.39
  -6   7  13    3.55    1.79
  -6  -7 -13    4.85    1.51
  -6   7  14    2.08    1.39
  -6   7 -14   -0.25    0.66
  -6  -7  14   -0.72    0.81
  -6  -7 -14    0.92    0.87
   6  -7  14   -0.19    0.41
  -6  -7  15   17.77    2.92
  -6   7  15   21.79    3.63
  -6  -7 -15   21.51    2.96
   6  -7  15   21.80    1.97
  -6  -7  16   -0.37    1.00
  -6   7  16    2.85    1.80
  -6  -7 -16    0.07    1.00
  -6  -7  17   37.76    4.35
  -6  -7 -17   34.64    3.87
  -6  -7  18    3.00    1.44
  -6  -7 -18    2.51    1.14
  -6  -7  19    5.34    2.31
  -6  -7 -19    1.08    1.00
  -6  -7  20    1.70    2.09
  -6  -7 -20    1.32    1.49
  -6  -7  21    4.27    1.74
  -6  -7  22   16.64    3.45
  -6   8   0  315.14    8.29
  -6   8   0  312.63    5.99
  -6  -8   0  309.76    7.83
  -6   8   1   92.29    4.54
  -6   8  -1   90.49    3.89
  -6   8  -1   88.86    2.60
  -6   8   1   93.04    3.17
  -6  -8   1   89.24    3.91
  -6  -8  -1   87.78    4.01
  -6   8  -1   91.19    2.40
  -6   8   2   34.80    2.91
  -6   8  -2   32.79    2.08
  -6   8   2   29.12    1.89
  -6  -8  -2   33.53    2.50
  -6  -8   2   32.14    2.28
  -6   8  -2   31.68    1.18
   6  -8  -3   52.41    2.84
  -6   8   3   50.35    3.71
  -6   8  -3   51.93    2.31
  -6   8   3   55.44    2.77
  -6  -8  -3   51.62    3.22
  -6   8  -3   51.03    1.36
  -6  -8   3   49.94    2.91
   6  -8  -4  189.90    5.96
  -6   8   4  191.30    7.81
  -6   8  -4  182.10    3.94
  -6   8   4  194.63    5.72
  -6  -8  -4  180.83    6.38
  -6  -8   4  190.54    5.86
  -6  -8   5    5.50    0.97
   6  -8  -5    5.18    1.12
   6   8   5    7.28    1.23
  -6   8   5    6.56    1.59
  -6   8   5    5.18    1.01
  -6  -8  -5    3.29    0.88
  -6  -8   6  346.82    8.53
   6  -8  -6  345.73    9.52
  -6   8   6  352.92   11.78
  -6  -8  -6  347.61    9.61
  -6   8   6  340.66    8.69
   6   8   6  377.89    9.53
  -6  -8   7    0.80    0.79
   6   8   7    0.39    0.53
   6  -8  -7    3.37    1.06
  -6   8   7    0.06    0.85
  -6   8   7    1.09    0.74
  -6  -8  -7    0.02    0.67
  -6  -8   8    7.62    1.29
   6  -8  -8   10.60    1.73
  -6   8   8    8.66    1.44
  -6  -8  -8   10.02    1.72
  -6   8   8    8.94    2.16
  -6  -8   9   28.67    2.64
   6  -8  -9   22.44    2.61
  -6   8   9   30.60    2.77
  -6  -8  -9   29.45    2.94
  -6   8   9   30.52    3.87
  -6  -8  10  201.34    7.52
  -6  -8 -10  206.35    8.13
  -6   8  10  202.34    7.51
  -6   8  10  209.11   10.11
  -6  -8  11   39.19    3.48
  -6   8 -11   48.21    1.74
  -6  -8 -11   41.38    3.66
  -6   8  11   49.65    5.01
  -6   8 -12   73.40    2.66
  -6  -8  12   77.29    5.21
  -6   8  12   78.89    6.58
  -6  -8 -12   80.39    5.26
  -6   8  13   24.81    4.27
  -6  -8  13   26.06    3.18
  -6  -8 -13   27.43    3.11
  -6  -8  14   14.90    2.46
  -6  -8 -14   14.83    2.44
  -6  -8  15    9.19    2.08
  -6  -8 -15   10.07    2.11
  -6  -8  16  286.17   11.88
  -6  -8 -16  291.11   11.51
  -6  -8  17   19.55    3.21
  -6  -8 -17   19.86    3.15
  -6  -8  18   39.94    4.74
  -6  -8 -18   50.38    5.01
  -6  -8  19   17.53    3.18
  -6  -8 -19   14.39    2.83
  -6   9   0   13.94    1.59
  -6   9   0   15.10    0.99
  -6  -9   0   10.74    1.45
  -6   9   1    6.99    1.24
  -6   9   1    4.86    0.71
  -6   9  -1    5.73    0.48
  -6  -9   1    4.11    0.92
  -6   9  -1    5.80    0.45
  -6  -9  -1    3.93    0.93
  -6   9   2    6.70    1.29
  -6   9   2    7.31    0.91
  -6  -9   2    9.11    1.26
  -6  -9  -2    9.16    1.40
   6  -9  -3   12.71    1.40
  -6   9   3   11.34    1.72
  -6   9   3   12.94    1.28
  -6  -9   3   10.04    1.35
  -6  -9  -3   11.09    1.63
   6  -9  -4    8.77    1.27
  -6   9   4   10.70    1.83
  -6   9   4    9.25    1.22
  -6  -9  -4   10.50    1.54
  -6  -9   4    9.29    1.29
   6  -9  -5   23.02    2.24
   6   9   5   21.28    2.12
  -6   9   5   20.46    2.61
  -6  -9  -5   22.41    2.31
  -6   9   5   20.33    1.87
  -6  -9   5   21.25    1.94
   6   9   6    2.14    0.93
   6  -9  -6    3.46    0.98
  -6  -9   6    2.71    0.74
  -6  -9   6    1.99    0.69
  -6   9   6    3.70    1.38
  -6   9   6    3.54    0.92
  -6  -9  -6    2.61    1.04
  -6  -9   7    2.43    0.81
  -6  -9   7    4.08    0.92
   6  -9  -7    4.02    1.12
  -6   9   7    3.13    0.75
  -6  -9  -7    3.35    1.00
  -6   9   7    5.75    1.72
   6  -9  -8  157.62    6.91
  -6  -9   8  160.79    6.06
  -6   9   8  156.30    6.11
  -6  -9  -8  168.86    7.07
  -6   9   8  170.30    8.65
  -6  -9   9   17.24    2.12
  -6   9   9   19.70    2.22
  -6  -9  -9   12.82    2.04
  -6   9   9   16.35    2.93
  -6  -9  10   13.96    2.01
  -6  -9 -10   13.81    2.18
  -6   9  10   15.67    2.13
  -6  -9  11    6.49    1.44
  -6  -9 -11    6.38    1.59
  -6  -9  12   17.04    2.47
  -6  -9 -12   16.72    2.56
  -6  -9  13  102.97    6.19
  -6  -9 -13  106.92    6.50
  -6  -9  14    1.84    0.94
  -6  -9 -14    0.19    0.86
  -6  -9  15   19.47    3.05
  -6  -9 -15   20.22    3.01
  -6  -9  16   -0.26    0.97
  -6  -9 -16    2.36    1.42
  -6  -9  17    1.78    1.43
  -6  -9 -17    0.50    0.88
  -6  -9 -18    5.10    1.71
  -6  -9 -19    1.85    1.32
  -6  10   0   66.89    1.60
  -6  10   0   71.44    1.60
  -6 -10   0   65.26    3.59
  -6  10   1    6.94    0.68
  -6 -10   1    8.06    1.24
  -6 -10  -1    8.00    1.35
  -6  10   2    7.26    0.81
  -6 -10  -2    7.54    1.38
  -6 -10   2    9.66    1.39
   6 -10  -3  363.36    8.05
  -6  10   3  350.59    7.23
  -6 -10  -3  354.17    9.49
  -6 -10   3  353.99    8.51
   6 -10  -4   64.32    3.41
  -6 -10  -4   70.21    4.14
  -6  10   4   69.97    3.14
  -6 -10   4   68.81    3.43
  -6 -10   5   27.48    2.26
   6 -10  -5   23.19    2.21
  -6 -10  -5   26.88    2.65
  -6  10   5   24.86    1.99
  -6 -10   5   24.08    2.01
  -6 -10   6   24.74    2.12
   6 -10  -6   22.67    2.32
  -6 -10  -6   27.19    2.77
  -6  10   6   24.80    2.14
  -6 -10   6   30.17    2.32
  -6 -10   7  232.12    7.11
   6 -10  -7  232.82    8.18
  -6 -10  -7  230.74    8.43
  -6  10   7  214.75    6.88
  -6 -10   7  236.76    6.81
  -6 -10   8    7.75    1.21
   6 -10  -8    7.58    1.48
  -6 -10   8    8.64    1.38
  -6 -10  -8    8.77    1.80
  -6  10   8    9.64    1.51
  -6 -10   9  222.03    6.70
  -6 -10   9  220.62    7.45
  -6 -10  -9  209.86    8.45
  -6  10   9  205.58    7.29
  -6 -10  10   54.52    3.78
  -6 -10 -10   62.56    4.64
  -6 -10  11   16.28    2.19
  -6 -10 -11   13.24    2.31
  -6 -10  12   10.78    1.91
  -6 -10 -12   11.84    2.20
  -6 -10  13  280.33   10.32
  -6 -10 -13  300.31   11.35
  -6 -10 -14   14.50    2.52
  -6 -10 -15   84.76    6.24
  -6 -10 -16   12.91    2.51
  -6 -10 -17   43.31    4.71
  -6 -10 -18   12.38    2.65
  -6 -11   0   98.52    4.53
  -6  11   1    0.34    0.16
  -6 -11  -1   -0.36    0.46
  -6 -11   1   -0.35    0.42
  -6  11   1    0.29    0.13
  -6 -11   2    1.04    0.68
  -6 -11  -2    0.13    0.49
  -6 -11   3    3.24    0.81
  -6 -11  -3    1.57    0.82
   6 -11  -4   54.17    3.05
  -6 -11  -4   51.41    3.67
  -6 -11   4   52.22    2.98
  -6 -11   5    0.90    0.64
   6 -11  -5    0.41    0.46
  -6 -11  -5   -0.07    0.60
  -6 -11   5    0.47    0.51
   6 -11  -6   14.74    1.91
  -6 -11   6   11.55    1.53
  -6 -11  -6    9.74    1.81
  -6 -11   6   12.74    1.46
   6 -11  -7    7.38    1.54
  -6 -11   7    6.24    1.14
  -6 -11  -7    8.48    1.71
  -6 -11   7    5.61    1.03
  -6 -11   8   18.65    1.96
  -6 -11  -8   19.70    2.57
  -6 -11   8   23.31    1.98
  -6 -11   9    1.71    0.88
  -6 -11   9    1.52    0.60
  -6 -11  -9    1.25    0.71
  -6 -11  10   -0.03    0.49
  -6 -11 -10    1.09    0.99
  -6 -11  10   -0.70    0.64
  -6 -11  11   15.65    1.66
  -6 -11 -11   12.68    2.30
  -6 -11 -12    0.24    0.86
  -6 -11 -13    0.62    1.06
  -6 -11 -14    1.67    1.13
  -6 -11 -15    3.98    1.48
  -6 -11 -16    2.01    1.42
  -6 -11 -17    1.12    0.95
  -6 -12   0  113.34    4.93
  -6 -12   1    1.62    0.58
  -6 -12  -1    1.51    0.81
  -6 -12  -2   22.01    2.26
  -6 -12   2   23.24    2.11
  -6 -12  -3   25.60    2.53
  -6 -12   3   24.02    2.08
  -6 -12  -4   92.96    4.99
  -6 -12   4   88.22    3.94
  -6 -12   5    8.40    1.24
  -6 -12  -5    7.63    1.50
  -6 -12   5    6.86    1.09
  -6 -12   6  168.23    5.78
  -6 -12  -6  163.53    7.17
  -6 -12   6  165.03    5.30
  -6 -12  -7    6.78    1.54
  -6 -12  -8   31.92    3.29
  -6 -12  -9   45.72    4.10
  -6 -12 -10   42.93    4.12
  -6 -12 -11    9.78    2.00
  -6 -12 -12   69.88    5.49
  -6 -12 -13   44.13    4.46
  -6 -12 -14   11.49    2.26
  -6 -12 -15    0.09    1.20
  -6 -12 -16   40.27    4.61
  -6 -13  -1    0.93    0.77
  -6 -13  -2    0.39    0.61
  -6 -13  -3    1.59    0.75
  -6 -13  -4    0.86    0.67
  -6 -13  -5    3.64    1.17
  -6 -13  -6    0.96    1.08
  -6 -13  -7    4.57    1.24
  -6 -13  -8    2.90    1.49
  -6 -13  -9    4.25    1.31
  -6 -13 -10    6.99    2.00
  -6 -13 -11    0.90    1.06
  -6 -13 -12   -1.36    1.51
  -6 -13 -13    9.00    2.17
  -6 -13 -14    0.88    0.81
  -6 -13 -15    2.79    1.55
  -7   0  -1   -0.17    0.45
  -7   0  -2  994.46   15.25
  -7   0   3    0.43    0.55
  -7   0  -3    0.50    0.47
  -7   0   4  765.02   13.48
  -7   0  -4  783.52   12.97
   7   0   5    0.14    0.40
  -7   0   5    0.03    0.65
  -7   0  -5   -0.90    0.64
  -7   0   6  556.80   12.10
  -7   0  -6  574.92   10.88
   7   0   6  570.81   10.77
   7   0   7    0.68    0.37
  -7   0   7    0.14    0.63
  -7   0  -7   -0.02    0.45
   7   0  -8 1773.06   25.86
  -7   0   8 1765.33   28.05
  -7   0  -8 1794.58   25.22
   7   0   8 1839.31   24.99
  -7   0   9   -0.22    0.88
   7   0  -9    0.33    0.46
  -7   0  -9   -0.33    0.68
   7   0   9   -0.29    0.55
  -7   0  10 1292.74   24.77
   7   0 -10 1353.73   21.86
  -7   0 -10 1340.26   21.19
   7   0  10 1334.01   20.51
  -7   0  11    0.96    0.92
   7   0 -11   -1.02    0.84
   7   0  11   -0.31    0.61
  -7   0 -11   -0.51    0.82
   7   0 -12  339.45    9.69
  -7   0  12  318.06   11.94
  -7   0 -12  311.41    9.13
   7   0  12  325.87    8.74
  -7   0  13   -1.18    1.37
  -7   0 -13   -0.90    0.78
   7   0  13   -0.97    0.79
  -7   0 -14 1027.77   19.61
  -7   0  14 1015.12   24.57
  -7   0 -15    0.38    0.74
  -7   0  15   -1.69    1.65
  -7   0 -16   92.42    5.49
  -7   0  16   88.69    7.37
  -7   0 -17   -0.27    0.91
  -7   0  17   -1.53    1.74
  -7   0 -18  319.00   11.14
  -7   0  18  300.84   14.17
  -7   0 -19   -0.09    0.85
  -7   0  19    0.48    1.34
  -7   0 -20  186.46    8.86
  -7   0  20  186.28   11.54
  -7   0 -21   -0.54    1.25
  -7   0  21   -1.20    1.88
  -7   0 -22   18.59    3.04
  -7   0  22   11.91    3.06
  -7   0 -23   -1.14    1.35
  -7   0  23    1.22    1.62
  -7   0 -24  178.87    9.76
  -7  -1  -1  190.86    5.48
  -7   1  -2    9.94    1.16
  -7  -1  -2   10.13    1.23
  -7   1   2   11.26    1.33
  -7   1   3  567.22   10.87
  -7   1  -3  574.45   10.33
  -7  -1  -3  569.26   10.62
  -7  -1   4   96.25    3.98
  -7   1   4   87.11    3.99
  -7  -1  -4   94.30    3.77
  -7   1  -4   82.09    3.42
  -7  -1   5   54.53    3.09
  -7   1   5   56.51    3.35
   7   1   5   51.02    2.77
  -7  -1  -5   50.04    2.80
  -7   1  -5   57.71    2.84
  -7   1   6  222.10    7.32
  -7  -1   6  230.89    7.02
  -7  -1  -6  227.30    6.42
   7  -1   6  221.96    5.97
  -7   1  -6  228.01    6.13
   7   1   6  237.16    6.48
  -7  -1   7   12.21    1.60
   7  -1   7    9.15    1.20
   7  -1  -7   10.24    1.40
  -7   1   7    8.11    1.51
   7   1   7   13.85    1.49
  -7  -1  -7   10.34    1.37
  -7   1  -7   11.65    1.37
   7  -1  -8   43.98    2.97
  -7   1   8   37.93    3.36
  -7  -1   8   39.87    3.20
  -7   1  -8   38.13    2.53
  -7  -1  -8   34.95    2.55
   7  -1   8   36.92    2.42
   7   1   8   39.67    2.63
   7  -1  -9   83.27    4.23
  -7   1   9   75.35    5.02
  -7  -1   9   80.76    4.84
  -7  -1  -9   77.84    3.96
  -7   1  -9   77.06    3.77
   7  -1   9   80.25    3.70
   7   1   9   74.90    3.72
  -7  -1  10    1.72    0.80
  -7   1  10    2.32    1.13
   7  -1 -10    2.87    0.88
   7   1 -10    1.41    0.81
  -7   1 -10    2.21    0.80
  -7  -1 -10    1.08    0.62
   7  -1  10    1.13    0.53
   7   1  10    0.59    0.39
   7  -1 -11   28.25    2.78
   7   1 -11   33.66    2.80
  -7  -1  11   28.60    3.32
  -7   1  11   25.93    3.26
  -7  -1 -11   32.83    2.78
  -7   1 -11   25.84    2.40
   7   1  11   28.50    2.38
   7  -1  11   29.26    2.35
   7   1 -12    1.69    0.84
  -7  -1  12    1.30    1.23
  -7   1  12   -0.65    1.53
  -7   1 -12    0.01    0.62
  -7  -1 -12    1.09    0.83
   7  -1  12   -0.09    0.51
   7   1  12    0.83    0.46
  -7  -1  13   10.04    2.24
  -7   1  13   11.50    2.69
  -7   1 -13   12.95    1.88
  -7  -1 -13   10.67    1.77
   7  -1  13   10.14    1.44
  -7  -1 -14    0.88    0.88
  -7   1 -14    2.56    1.00
  -7  -1  14    3.94    1.68
  -7   1  14    0.80    1.00
  -7   1 -15   40.04    3.41
  -7  -1 -15   40.56    3.53
  -7   1  15   35.92    4.77
  -7  -1  15   33.98    4.74
  -7   1 -16   74.19    4.83
  -7  -1 -16   65.46    4.73
  -7  -1  16   73.01    6.57
  -7   1  16   65.70    6.48
  -7   1 -17   74.86    5.04
  -7  -1 -17   74.78    5.17
  -7  -1  17   71.64    6.81
  -7   1  17   72.93    6.83
  -7   1 -18    3.62    1.34
  -7  -1 -18    1.34    1.08
  -7  -1  18    2.19    1.87
  -7   1  18    1.19    1.33
  -7   1 -19    0.45    0.82
  -7  -1 -19    1.22    0.83
  -7   1  19    0.46    1.49
  -7  -1  19    1.00    1.16
  -7   1 -20   -0.65    1.02
  -7  -1 -20    0.72    1.18
  -7  -1  20   -1.21    1.69
  -7   1  20    1.41    1.23
  -7   1 -21    1.03    1.15
  -7  -1 -21    0.20    0.96
  -7   1  21   -1.49    1.37
  -7  -1  21    0.39    1.54
  -7   1 -22    4.58    1.81
  -7  -1 -22    3.28    1.51
  -7   1  22    2.45    2.46
  -7  -1  22    1.71    1.68
  -7   1 -23    0.90    1.21
  -7  -1 -23    0.03    0.85
  -7  -1  23   -0.77    1.26
  -7   1  23    0.22    1.45
  -7   1 -24   -0.78    0.99
  -7  -1  24    0.52    1.58
  -7  -2   0   -0.24    0.54
  -7   2   1 2182.77   27.56
  -7  -2  -1 2130.70   27.96
  -7   2  -2    2.60    0.61
  -7  -2  -2    0.22    0.53
  -7   2   2    2.57    0.65
  -7   2   3  636.53   11.99
  -7   2  -3  618.30   10.77
  -7  -2  -3  646.73   11.60
   7   2   4   15.19    1.55
  -7  -2   4   15.94    1.60
  -7   2   4   18.08    1.89
  -7   2  -4   17.58    1.50
  -7  -2  -4   16.37    1.67
  -7   2   5 1448.27   22.11
  -7  -2   5 1314.74   20.23
   7   2   5 1361.30   19.92
  -7  -2  -5 1321.54   20.03
  -7   2  -5 1377.85   19.04
   7  -2   6   55.18    2.76
   7  -2  -6   56.70    3.19
  -7  -2   6   46.57    3.07
  -7   2   6   60.49    3.81
  -7  -2  -6   47.91    2.89
  -7   2  -6   55.59    2.77
   7   2   6   50.21    2.96
  -7   2   7  188.78    7.46
   7  -2  -7  197.91    6.38
  -7  -2   7  198.99    6.74
  -7  -2  -7  204.64    6.35
  -7   2  -7  194.76    5.64
   7   2   7  208.52    6.23
   7  -2   7  188.87    5.46
  -7   2   8    0.52    0.81
   7  -2   8    0.30    0.40
   7  -2  -8   -0.90    0.64
  -7  -2   8    1.08    0.71
  -7   2  -8    0.83    0.57
  -7  -2  -8    0.15    0.57
   7   2   8   -0.01    0.53
   7  -2  -9  268.14    8.02
  -7  -2   9  254.35    8.57
  -7   2   9  259.89    9.69
  -7   2  -9  252.28    6.97
  -7  -2  -9  251.15    7.62
   7   2   9  260.46    7.38
   7  -2   9  253.04    6.79
   7  -2 -10  100.70    4.98
  -7  -2  10   90.64    5.45
  -7   2  10   93.74    6.08
  -7   2 -10   93.72    4.25
  -7  -2 -10   93.81    4.64
   7  -2  10   98.64    4.14
   7   2  10   96.19    4.42
   7  -2 -11  746.01   16.04
  -7  -2  11  752.47   17.82
  -7   2  11  762.29   19.41
  -7  -2 -11  752.89   15.36
  -7   2 -11  773.96   14.59
   7   2  11  757.17   14.56
   7  -2  11  776.57   13.96
   7   2 -12   62.43    3.83
  -7  -2  12   52.77    4.52
  -7   2  12   56.78    5.15
  -7   2 -12   60.34    3.69
  -7  -2 -12   50.04    3.60
   7  -2  12   62.76    3.46
  -7  -2  13    1.83    1.21
  -7   2  13    0.96    0.93
  -7   2 -13    1.62    0.73
  -7  -2 -13    2.79    1.11
   7  -2  13    0.50    0.50
  -7   2  14   -0.39    1.21
  -7  -2  14    0.16    1.11
  -7  -2 -14   -0.21    0.71
  -7   2 -14    0.21    0.83
   7  -2  14    1.14    0.52
  -7   2 -15  459.96   12.18
  -7  -2 -15  475.63   13.04
  -7  -2  15  456.23   15.95
  -7   2  15  432.48   16.27
  -7   2 -16    3.85    1.28
  -7  -2 -16    5.35    1.68
  -7  -2  16    5.51    2.03
  -7   2  16    3.58    1.95
  -7   2 -17  147.94    6.98
  -7  -2 -17  138.64    7.22
  -7  -2  17  149.92    9.55
  -7   2  17  151.03    9.86
  -7  -2 -18    1.03    0.79
  -7   2 -18    3.66    1.32
  -7   2  18    2.01    1.49
  -7  -2  18    2.83    1.61
  -7   2 -19    2.09    1.19
  -7  -2 -19    2.21    1.00
  -7   2  19    3.91    1.88
  -7  -2  19    0.23    1.22
  -7   2 -20   57.53    4.78
  -7  -2 -20   58.86    5.12
  -7   2  20   62.09    6.90
  -7  -2  20   62.32    6.58
  -7   2 -21  208.78    9.44
  -7  -2 -21  199.81    9.69
  -7  -2  21  191.68   11.97
  -7   2  21  199.64   12.44
  -7   2 -22   -0.40    1.08
  -7  -2 -22   -1.29    1.50
  -7   2  22   -0.48    1.65
  -7  -2  22    2.07    2.13
  -7  -2 -23   51.05    5.30
  -7   2 -23   47.50    4.70
  -7  -2  23   44.07    5.95
  -7   2  23   49.03    6.46
  -7  -2  24    1.96    1.89
  -7  -3   0    2.35    0.79
  -7   3   0    0.19    0.40
  -7  -3  -1    0.16    0.45
  -7   3   1    0.84    0.59
  -7   3   2  278.20    7.21
  -7  -3  -2  297.43    7.28
  -7   3  -2  281.68    6.36
  -7   3   3  276.22    7.50
  -7  -3  -3  270.28    7.03
  -7   3  -3  272.98    6.21
  -7   3   4   72.12    3.96
   7   3   4   58.50    3.13
  -7   3  -4   70.24    2.90
  -7  -3  -4   56.07    3.08
   7   3   5    2.76    0.73
   7  -3  -5    2.98    0.77
  -7   3   5    4.40    1.10
  -7  -3   5    2.18    0.71
  -7  -3  -5    2.65    0.77
  -7   3  -5    2.19    0.54
  -7   3   6   -0.37    0.71
   7   3   6    0.58    0.55
  -7  -3   6    1.71    0.82
   7  -3  -6    0.49    0.57
  -7   3  -6   -0.11    0.33
  -7  -3  -6   -0.19    0.56
  -7   3   7    2.14    1.05
   7  -3   7    1.30    0.56
  -7  -3   7    1.73    0.65
   7  -3  -7    1.84    0.86
   7   3   7    1.36    0.57
  -7   3  -7    2.24    0.64
  -7  -3  -7    0.87    0.67
   7  -3  -8   29.50    2.56
  -7   3   8   33.14    3.38
  -7  -3   8   24.13    2.43
  -7   3  -8   25.66    1.95
  -7  -3  -8   25.18    2.30
   7  -3   8   26.70    1.97
   7   3   8   25.79    2.16
  -7  -3   9  320.20    9.68
   7  -3  -9  325.50    9.28
  -7   3   9  315.50   11.23
  -7  -3  -9  306.20    8.63
  -7   3  -9  321.47    7.86
   7   3   9  324.00    8.50
   7  -3   9  319.15    7.58
  -7  -3  10   32.12    3.08
   7  -3 -10   33.17    3.01
  -7   3  10   31.49    3.65
  -7  -3 -10   35.66    2.92
  -7   3 -10   33.30    2.45
   7   3  10   31.21    2.54
   7  -3  10   31.06    2.27
   7  -3 -11   10.36    1.76
  -7  -3  11   10.52    2.00
  -7   3  11    7.07    1.70
  -7   3 -11   10.30    1.49
  -7  -3 -11    9.01    1.61
   7  -3  11    9.78    1.35
  -7  -3  12   60.65    4.92
  -7   3  12   69.41    5.82
  -7   3 -12   72.35    3.95
  -7  -3 -12   65.03    4.30
   7  -3  12   78.80    3.82
  -7   3  13   -0.05    1.34
  -7  -3  13    3.66    1.62
  -7   3 -13    1.59    0.84
  -7  -3 -13    2.53    1.09
   7  -3  13    1.17    0.68
  -7  -3  14   41.10    4.38
  -7   3  14   42.01    4.94
  -7  -3 -14   41.36    3.61
  -7   3 -14   40.67    3.23
   7  -3  14   39.13    2.90
  -7   3  15   11.83    2.79
  -7  -3  15    6.86    1.93
  -7   3 -15   12.06    1.99
  -7  -3 -15   10.33    1.97
   7  -3  15   14.54    1.86
  -7   3 -16   75.97    4.71
  -7  -3 -16   73.75    5.11
  -7   3 -16   69.72    5.54
  -7  -3  16   66.62    6.29
  -7   3  16   64.31    6.56
  -7  -3 -17   10.08    2.06
  -7   3 -17    7.85    1.61
  -7  -3  17    7.32    2.53
  -7   3  17    8.02    2.22
  -7  -3 -18   25.95    3.30
  -7   3 -18   29.43    3.15
  -7  -3  18   27.80    4.29
  -7   3  18   24.14    4.19
  -7   3 -19    1.73    1.01
  -7  -3 -19    2.83    1.39
  -7  -3  19    3.30    1.83
  -7   3  19    4.18    2.33
  -7   3 -20    4.92    1.60
  -7  -3 -20    8.83    2.19
  -7  -3  20    8.05    2.65
  -7   3  20   10.59    3.18
  -7   3 -21    2.73    1.21
  -7  -3 -21    1.15    1.04
  -7  -3  21    0.10    1.65
  -7   3  21    8.30    2.89
  -7   3 -22    6.82    1.86
  -7  -3 -22    4.27    1.50
  -7   3  22    2.62    1.80
  -7  -3  22    3.36    1.98
  -7  -3  23    1.67    1.13
  -7  -3  24    0.76    1.41
  -7  -4   0   -0.36    0.69
  -7   4   0   -0.69    0.53
  -7  -4   1  142.48    4.88
  -7   4  -1  131.19    4.19
  -7   4   1  137.84    4.81
  -7  -4  -1  136.05    4.93
  -7   4   2 2898.33   37.14
  -7  -4  -2 2892.13   36.39
  -7   4  -2 2925.62   34.40
  -7   4   3    0.13    0.56
  -7   4  -3    0.02    0.50
  -7  -4  -3    0.17    0.57
  -7   4   4  299.15    8.85
   7   4   4  314.94    7.81
  -7   4  -4  303.31    6.40
  -7  -4  -4  287.48    7.58
  -7  -4   5   96.95    4.12
   7  -4  -5  102.67    4.25
  -7   4   5  101.57    5.27
  -7  -4  -5   88.58    4.11
   7   4   5   92.11    4.09
  -7   4  -5   98.71    3.42
  -7   4   6   10.62    1.87
   7   4   6    9.45    1.35
   7  -4  -6   10.15    1.45
  -7  -4   6    8.36    1.33
  -7  -4  -6    7.23    1.24
  -7   4  -6   10.56    1.13
  -7   4   7    5.74    1.51
   7  -4  -7    6.14    1.15
  -7  -4   7    4.66    1.09
   7   4   7    7.20    1.24
  -7   4  -7    4.35    0.77
  -7  -4  -7    4.41    0.94
   7  -4  -8 1170.13   19.89
  -7  -4   8 1104.37   19.51
   7  -4   8 1100.72   16.58
  -7   4   8 1130.41   23.16
  -7   4  -8 1124.29   16.86
  -7  -4  -8 1131.31   19.27
   7   4   8 1165.49   18.87
  -7   4   9    2.65    1.27
   7  -4  -9    3.43    1.13
   7  -4   9    1.70    0.52
  -7  -4   9    2.95    0.94
  -7  -4  -9    3.23    0.92
   7   4   9    2.32    0.81
  -7   4  -9    2.75    0.73
  -7  -4  10  133.61    6.32
   7  -4 -10  149.92    6.44
  -7   4  10  142.07    8.08
  -7   4 -10  146.84    5.13
  -7  -4 -10  146.05    6.13
   7   4  10  141.02    5.68
   7  -4  10  148.18    4.92
   7  -4  11    1.89    0.50
  -7  -4  11    2.96    1.18
  -7   4  11    1.89    1.50
  -7   4 -11    1.83    0.66
  -7  -4 -11    3.76    1.16
  -7  -4  12  440.09   13.58
  -7   4  12  421.25   15.24
  -7  -4 -12  427.93   11.73
  -7   4 -12  425.31   10.15
   7  -4  12  434.30    9.70
  -7  -4  13   19.85    3.11
  -7   4  13   20.97    3.49
  -7   4 -13   20.59    2.19
  -7  -4 -13   19.02    2.49
   7  -4  13   20.81    2.01
  -7   4  14  399.28   15.47
  -7  -4  14  419.53   14.27
  -7  -4 -14  399.34   11.99
  -7   4 -14  402.76   10.56
   7  -4  14  399.64    9.82
  -7   4 -15   50.99    4.44
  -7  -4  15   43.90    4.71
  -7   4  15   48.33    5.48
  -7   4 -15   44.72    3.37
  -7  -4 -15   45.84    4.02
   7  -4  15   50.16    3.27
  -7   4 -16   26.09    2.70
  -7  -4 -16   27.60    3.26
  -7   4  16   34.81    4.75
  -7   4 -16   30.17    3.59
  -7  -4  16   23.76    3.70
  -7  -4 -17    0.08    1.06
  -7   4 -17    2.17    0.79
  -7  -4  17    2.84    1.61
  -7   4  17    1.48    1.19
  -7   4 -17    0.49    0.86
  -7   4 -18  389.80   11.65
  -7  -4 -18  405.00   13.53
  -7   4  18  412.03   17.25
  -7  -4  18  394.70   16.05
  -7   4 -19   29.91    3.28
  -7  -4 -19   29.56    3.69
  -7   4  19   34.49    4.91
  -7  -4  19   28.75    4.64
  -7  -4 -20  189.54    9.47
  -7   4 -20  173.13    7.92
  -7   4  20  190.88   11.88
  -7  -4  20  165.71   10.77
  -7  -4 -21    7.54    1.99
  -7   4  21    6.14    2.14
  -7  -4  21    8.06    3.44
  -7  -4 -22   86.62    6.67
  -7   4  22   90.77    8.57
  -7  -4  22   76.39    7.72
  -7  -4  23    1.05    1.66
  -7  -4  24  102.96    9.12
  -7  -5   0   -0.62    0.64
  -7   5   0    0.01    0.47
  -7   5   1  251.95    7.08
  -7   5  -1  261.13    6.38
  -7  -5  -1  236.57    6.78
  -7  -5   1  238.89    6.72
  -7   5  -2  187.43    4.98
  -7   5   2  190.68    6.47
  -7  -5   2  163.54    5.53
  -7  -5  -2  171.26    5.63
  -7   5  -2  183.56    4.63
  -7   5  -3  259.18    5.82
  -7   5   3  260.33    8.27
  -7  -5  -3  246.25    6.99
  -7   5  -3  263.49    5.68
   7   5   4   68.78    3.56
   7  -5  -4   67.94    3.35
  -7   5   4   67.61    4.35
  -7   5  -4   63.46    2.59
  -7  -5  -4   67.60    3.56
  -7   5   5   29.60    3.00
  -7  -5   5   37.35    2.59
   7  -5  -5   33.67    2.49
   7   5   5   38.62    2.68
  -7  -5  -5   37.59    2.75
  -7   5  -5   30.97    1.80
  -7   5   6    0.70    1.05
   7   5   6    0.05    0.50
   7  -5  -6    0.29    0.38
  -7  -5   6    0.21    0.49
  -7   5  -6    0.58    0.41
  -7  -5  -6    0.32    0.66
  -7   5   7    2.10    1.21
   7  -5  -7    0.60    0.60
   7   5   7    0.31    0.45
  -7  -5   7    0.00    0.52
  -7  -5  -7   -0.23    0.58
  -7   5  -7    1.08    0.51
   7  -5  -8   79.41    4.44
  -7  -5   8   74.12    4.16
  -7   5   8   77.36    5.49
  -7   5  -8   81.47    3.33
  -7  -5  -8   70.40    4.06
   7   5   8   78.56    4.08
   7  -5   9    5.03    0.89
  -7  -5   9    2.46    0.93
   7  -5  -9    6.94    1.48
  -7   5   9    5.01    1.63
  -7   5  -9    6.46    1.01
   7   5   9    4.11    1.03
  -7  -5  -9    3.40    0.91
  -7  -5  10   58.03    4.13
   7  -5 -10   61.82    4.22
  -7   5  10   57.86    5.25
  -7   5 -10   60.43    3.12
  -7  -5 -10   58.76    3.93
   7  -5  10   52.37    2.76
   7  -5  11    6.07    1.03
  -7   5  11    4.87    1.73
  -7  -5  11    4.79    1.44
  -7   5 -11    5.83    0.98
  -7  -5 -11    5.70    1.39
  -7  -5  12   19.77    2.68
  -7   5  12   23.17    3.68
  -7  -5 -12   22.28    2.60
  -7   5 -12   26.25    2.29
   7  -5  12   21.93    1.92
  -7  -5  13   57.67    4.89
  -7   5  13   63.30    6.08
  -7  -5 -13   61.65    4.51
  -7   5 -13   66.52    3.75
   7  -5  13   61.45    3.39
  -7   5  14   56.10    5.75
  -7   5 -14   56.13    4.25
  -7  -5  14   47.41    4.72
  -7   5 -14   58.78    3.64
  -7  -5 -14   49.98    4.15
   7  -5  14   60.03    3.43
  -7  -5  15   39.75    4.62
  -7   5  15   39.57    5.01
  -7   5 -15   39.59    3.78
  -7   5 -15   42.89    3.25
  -7  -5 -15   46.91    4.11
   7  -5  15   44.19    3.03
  -7   5 -16   62.77    5.00
  -7   5  16   65.57    6.60
  -7  -5  16   58.89    5.65
  -7   5 -16   66.40    4.16
  -7  -5 -16   67.60    5.12
   7  -5  16   66.10    3.88
  -7  -5  17   -0.08    1.25
  -7   5 -17   -1.55    1.19
  -7   5  17    0.98    1.36
  -7  -5 -17   -1.23    1.20
  -7   5 -17    0.62    0.79
  -7  -5  18   16.13    3.30
  -7   5  18    7.36    2.80
  -7  -5 -18   13.53    2.58
  -7   5 -18   11.50    1.94
  -7  -5  19   -0.28    1.54
  -7   5  19    0.62    1.40
  -7   5 -19    1.90    1.10
  -7  -5 -19    0.82    0.87
  -7   5  20    2.48    1.82
  -7  -5  20    0.15    1.63
  -7  -5 -20    0.91    1.09
  -7  -5  21   10.51    2.99
  -7   5  21   11.46    3.33
  -7  -5 -21   14.73    2.76
  -7  -5  22    5.70    2.24
  -7  -5  23    5.78    2.77
  -7  -5  24    1.96    1.78
  -7   6   0    0.35    0.49
  -7  -6   0   -0.83    0.65
  -7   6  -1  593.01   11.33
  -7   6   1  635.95   13.09
  -7  -6  -1  622.13   12.03
  -7  -6   1  624.34   11.98
  -7   6   2  104.61    5.04
  -7   6  -2  106.57    3.90
  -7   6  -2  108.70    3.34
  -7  -6   2  100.46    4.26
  -7  -6  -2   98.35    4.28
  -7   6   3   93.05    5.02
  -7   6  -3   99.92    3.53
  -7  -6   3   99.20    4.24
  -7   6  -3   97.07    3.07
  -7  -6  -3   98.65    4.39
  -7   6   4   30.92    3.09
   7  -6  -4   33.11    2.37
  -7   6  -4   30.84    1.83
  -7  -6  -4   29.79    2.43
  -7   6  -4   30.87    1.68
  -7   6   5 1029.51   21.07
  -7   6  -5 1021.58   14.31
   7  -6  -5 1046.04   17.33
   7   6   5 1057.68   17.67
  -7  -6  -5 1046.29   17.92
  -7   6  -5 1032.31   14.22
  -7   6   6   43.14    3.94
  -7  -6   6   37.24    2.70
   7  -6  -6   42.25    2.99
  -7  -6  -6   38.56    2.90
   7   6   6   40.05    2.87
  -7   6  -6   39.00    2.00
   7  -6  -7  596.39   13.03
  -7  -6   7  556.70   12.11
  -7   6   7  564.96   15.89
  -7   6  -7  576.03    9.75
  -7  -6  -7  561.77   12.67
   7   6   7  596.93   12.53
   7  -6  -8   41.07    3.25
  -7  -6   8   38.52    3.01
  -7   6   8   39.52    4.10
  -7   6  -8   42.13    2.28
  -7  -6  -8   40.43    3.14
   7   6   8   42.50    3.03
   7  -6  -9  208.03    7.84
  -7  -6   9  209.37    7.44
  -7   6  -9  197.58    5.48
  -7  -6  -9  201.02    7.45
  -7   6   9  188.17    9.43
  -7  -6  10   28.23    2.83
  -7   6  10   28.26    3.69
  -7  -6 -10   32.63    3.02
  -7   6 -10   26.49    2.06
  -7   6  10   31.72    2.92
  -7  -6  11  763.44   17.21
  -7   6  11  763.88   21.12
  -7   6 -11  766.44   13.34
  -7  -6 -11  740.83   16.57
   7  -6  11  743.64   12.58
  -7  -6  12   81.30    5.46
  -7   6  12   78.14    6.52
  -7   6 -12   88.17    4.73
  -7   6 -12   81.34    3.81
  -7  -6 -12   76.18    5.01
   7  -6  12   82.63    3.66
   7  -6  13    3.60    0.76
  -7  -6  13    5.78    1.71
  -7   6  13   -0.02    1.32
  -7   6 -13    3.00    1.05
  -7  -6 -13    4.01    1.06
  -7   6 -13    4.48    0.99
  -7   6  14   63.63    6.16
  -7   6 -14   66.04    4.47
  -7  -6  14   60.48    5.23
  -7   6 -14   61.56    3.61
  -7  -6 -14   58.89    4.63
   7  -6  14   63.47    3.42
  -7   6 -15  171.83    7.67
  -7  -6  15  173.60    9.24
  -7   6  15  176.86   10.66
  -7   6 -15  178.83    6.47
  -7  -6 -15  168.74    8.14
   7  -6  15  176.26    6.07
  -7   6  16    8.16    2.59
  -7  -6  16   10.84    2.52
  -7   6 -16   11.66    1.71
  -7  -6 -16   10.83    2.25
   7  -6  16    8.12    1.52
  -7  -6  17  269.23   12.37
  -7   6  17  277.15   13.97
  -7  -6 -17  272.20   11.01
  -7   6 -17  278.81    8.86
  -7   6  18   50.44    5.99
  -7  -6  18   45.78    5.47
  -7  -6 -18   46.58    4.75
  -7   6  19   36.36    5.23
  -7  -6  19   33.44    4.76
  -7  -6 -19   35.76    4.16
  -7   6  20    4.28    2.58
  -7  -6  20    0.48    1.21
  -7  -6 -20    2.78    1.38
  -7  -6  21  221.94   12.29
  -7  -6  22    0.54    1.22
  -7  -6  23   29.96    5.01
  -7  -6  24    8.68    2.88
  -7   7   0   -0.17    0.52
  -7  -7   0    0.44    0.45
  -7   7  -1   -0.52    0.41
  -7   7   1    0.65    0.71
  -7  -7   1    0.10    0.43
  -7  -7  -1    0.27    0.49
  -7   7   2   61.34    4.05
  -7   7  -2   66.35    3.29
  -7   7  -2   60.31    2.29
  -7  -7   2   49.66    3.01
  -7  -7  -2   50.55    3.15
  -7   7  -3    8.95    1.11
  -7   7   3    5.85    1.41
  -7  -7   3    7.18    1.21
  -7  -7  -3    7.72    1.34
  -7   7  -3    8.17    0.82
  -7   7   4   20.10    2.61
  -7  -7   4   16.10    1.75
  -7   7  -4   21.39    1.60
   7  -7  -4   18.26    1.78
  -7   7  -4   19.51    1.22
  -7  -7  -4   18.46    2.15
  -7   7   5   81.78    5.54
   7  -7  -5   81.33    3.99
   7   7   5   75.57    4.01
  -7   7  -5   78.98    2.85
  -7  -7  -5   74.64    4.11
  -7   7  -5   80.56    2.61
  -7   7   6    1.44    0.76
   7   7   6    3.31    0.93
  -7   7  -6    3.94    0.64
  -7  -7   6    2.93    0.78
   7  -7  -6    5.49    1.13
  -7   7  -6    4.13    0.61
  -7  -7  -6    3.00    0.97
  -7   7  -7  306.51    5.76
  -7  -7   7  308.46    8.49
   7  -7  -7  311.06    9.17
  -7   7   7  308.19   11.65
  -7   7  -7  300.74    6.06
  -7  -7  -7  310.84    9.14
   7   7   7  327.62    9.06
   7  -7  -8   43.82    3.41
  -7  -7   8   31.29    2.74
  -7   7   8   37.07    4.12
  -7   7  -8   37.38    1.97
  -7   7   8   36.23    2.94
  -7  -7  -8   30.28    2.85
  -7  -7   9    1.49    0.69
   7  -7  -9    3.24    1.20
  -7   7   9    2.12    1.13
  -7   7  -9    1.46    0.49
  -7   7   9    2.16    0.80
  -7  -7  -9    0.53    0.70
  -7  -7  10   26.94    2.82
  -7   7  10   25.43    2.57
  -7   7 -10   28.19    1.91
  -7  -7 -10   23.19    2.70
  -7   7  10   28.98    3.77
  -7   7 -11   15.27    1.48
  -7  -7 -11   11.76    2.03
  -7  -7  11   12.46    2.13
  -7   7 -11   13.95    1.71
  -7   7  11   14.69    2.96
  -7   7 -12   12.61    1.42
  -7  -7 -12   13.39    2.22
  -7  -7  12   14.69    2.40
  -7   7 -12   13.71    1.78
  -7   7  12   11.49    2.62
   7  -7  13    2.01    0.65
  -7   7  13    3.15    1.70
  -7   7 -13    2.13    0.84
  -7  -7  13    0.30    0.70
  -7  -7 -13    1.76    0.96
  -7   7 -13    2.30    0.71
  -7   7  14   33.84    4.57
  -7  -7  14   23.78    3.24
  -7  -7 -14   24.40    3.17
  -7   7 -14   30.75    2.39
   7  -7  14   31.48    2.29
  -7  -7  15   30.31    3.81
  -7   7  15   33.62    4.66
  -7  -7 -15   33.53    3.71
  -7   7  16   16.01    3.40
  -7  -7  16   12.29    2.62
  -7  -7 -16   12.45    2.39
  -7  -7  17   15.57    3.07
  -7   7  17   25.03    4.54
  -7  -7 -17   20.56    3.22
  -7   7  18   14.36    3.88
  -7  -7  18    5.26    2.07
  -7  -7 -18    9.57    2.25
  -7  -7  19   -0.12    1.11
  -7  -7 -19    1.47    1.13
  -7  -7  20   -0.64    1.57
  -7  -7 -20   -0.46    1.13
  -7  -7  21    4.81    2.01
  -7  -7  22    4.05    1.90
  -7   8   0    0.67    0.54
  -7  -8   0   -0.48    0.61
  -7   8  -1   95.97    4.40
  -7   8   1  100.26    5.11
  -7   8  -1   95.69    2.85
  -7  -8   1   91.72    4.19
  -7  -8  -1   91.85    4.33
  -7   8  -2  325.94    8.04
  -7   8   2  327.87   10.02
  -7  -8  -2  331.53    8.76
  -7   8  -2  319.93    5.61
  -7  -8   2  325.53    8.38
  -7   8  -3   82.87    3.49
  -7   8   3   79.72    5.02
  -7  -8   3   76.95    3.85
  -7   8  -3   81.03    2.32
  -7  -8  -3   77.82    4.14
   7  -8  -4  352.85    8.52
  -7   8  -4  352.77    7.33
  -7   8   4  354.38   11.43
  -7   8   4  344.19    8.37
  -7  -8   4  346.66    8.82
  -7  -8  -4  332.87    9.24
  -7   8  -4  352.37    5.63
   7  -8  -5   30.71    2.48
  -7   8  -5   35.52    1.87
  -7   8   5   30.58    3.41
  -7   8  -5   32.19    1.36
  -7   8   5   32.14    2.47
  -7  -8   5   28.98    2.38
  -7  -8  -5   30.66    2.74
  -7   8  -6   80.28    2.60
  -7  -8   6   74.56    3.94
   7  -8  -6   74.17    4.12
  -7   8   6   74.22    5.36
  -7   8   6   72.06    3.90
  -7  -8  -6   69.80    4.23
  -7   8  -6   72.79    2.17
  -7  -8   7    3.21    0.94
   7  -8  -7    2.85    1.05
  -7   8   7    3.42    1.59
  -7   8  -7    3.17    0.50
  -7   8   7    4.30    1.08
  -7   8  -7    2.38    0.48
  -7  -8  -7    1.98    0.80
  -7   8  -8  560.46    8.10
   7  -8  -8  577.22   13.74
  -7  -8   8  550.44   12.72
  -7   8   8  568.75   12.92
  -7  -8  -8  542.18   13.53
  -7   8  -8  563.58    8.67
  -7   8   8  571.97   16.95
  -7   8  -8  665.29    9.34
  -7  -8   9    1.67    0.64
  -7   8  -9    2.68    0.44
  -7   8  -9    3.90    0.61
  -7  -8  -9    2.75    1.07
  -7   8   9    1.42    0.82
  -7   8  -9    1.86    0.44
  -7   8   9    6.03    1.98
  -7   8 -10  111.08    2.72
  -7  -8  10  116.99    5.90
  -7  -8 -10  113.05    6.10
  -7   8 -10  122.27    3.61
  -7   8  10  115.33    7.73
  -7   8 -10  128.38    3.79
  -7  -8 -11    0.97    0.95
  -7   8 -11    0.93    0.52
  -7   8  11    0.83    1.19
  -7  -8  11    1.26    0.85
  -7  -8  12  246.09    9.66
  -7   8  12  245.32   11.96
  -7  -8 -12  248.92    9.75
  -7  -8  13   21.05    2.92
  -7   8  13   22.66    3.73
  -7  -8 -13   19.61    2.82
  -7  -8  14  180.47    9.05
  -7   8  14  200.09   11.12
  -7  -8 -14  206.83    9.28
  -7   8  15   28.51    4.31
  -7  -8  15   17.51    2.99
  -7  -8 -15   22.37    3.11
  -7   8  16    0.57    1.43
  -7  -8  16   -0.05    0.90
  -7  -8 -16    1.14    1.09
  -7  -8  17    1.25    1.23
  -7  -8 -17    0.89    1.26
  -7  -8  18  138.14    8.97
  -7  -8 -18  154.71    8.74
  -7  -8  19    0.83    0.99
  -7  -8 -19   -0.41    0.89
  -7   9   0   -0.51    0.63
  -7   9   0    0.41    0.32
  -7  -9   0   -0.80    0.69
  -7   9  -1    0.27    0.27
  -7   9  -1   -0.51    0.62
  -7   9   1   -0.38    0.66
  -7   9  -1    0.18    0.31
  -7   9   1    0.05    0.32
  -7  -9   1   -1.01    0.69
  -7  -9  -1    0.02    0.51
  -7   9  -2   23.56    1.81
  -7   9   2   24.05    2.56
  -7   9  -2   23.12    1.10
  -7   9   2   22.52    1.69
  -7  -9  -2   20.71    2.14
  -7   9  -2   24.74    1.05
  -7  -9   2   25.34    2.24
  -7   9  -3    2.82    0.60
  -7   9   3    3.21    0.95
  -7   9   3    2.70    0.66
  -7   9  -3    3.00    0.31
  -7  -9   3    3.77    0.90
  -7  -9  -3    3.56    1.12
  -7   9  -3    2.20    0.24
   7  -9  -4    3.55    0.88
  -7   9  -4    3.28    0.50
  -7   9   4    6.17    1.60
  -7   9   4    4.37    0.95
  -7  -9  -4    4.77    1.23
  -7  -9   4    3.62    0.92
  -7  -9   5    2.78    0.87
   7  -9  -5    2.51    0.77
  -7   9   5    1.39    0.77
  -7   9   5    1.75    0.69
  -7  -9  -5    2.43    0.83
  -7  -9   6   31.92    2.64
   7  -9  -6   32.78    2.75
  -7   9   6   36.94    3.81
  -7   9   6   31.47    2.56
  -7  -9  -6   31.37    2.94
  -7  -9   6   30.22    2.46
  -7  -9   7    0.60    0.64
  -7  -9   7    1.06    0.85
   7  -9  -7   -0.32    0.45
  -7   9   7   -0.70    1.13
  -7   9   7    0.03    0.52
  -7  -9  -7    0.10    0.66
   7  -9  -8   19.02    2.33
  -7  -9   8   17.73    2.14
  -7  -9  -8   19.95    2.52
  -7   9   8   16.31    2.02
  -7   9   8   17.85    2.85
  -7  -9   9   22.84    2.48
  -7   9   9   24.84    2.57
  -7  -9  -9   24.27    2.79
  -7   9   9   30.77    3.95
  -7  -9  10    3.97    1.25
  -7   9  10    1.96    1.39
  -7  -9 -10    4.20    1.34
  -7   9  11    3.30    1.89
  -7  -9  11    2.49    1.09
  -7  -9 -11    3.36    1.32
  -7  -9  12   -0.34    1.06
  -7   9  12   -1.96    1.52
  -7  -9 -12    0.98    0.99
  -7  -9  13    6.92    1.80
  -7   9  13    7.89    3.56
  -7  -9 -13    7.05    1.90
  -7  -9  14    2.13    0.98
  -7  -9 -14    0.75    1.00
  -7  -9  15   33.60    3.87
  -7  -9 -15   36.79    4.10
  -7  -9  16    1.80    1.21
  -7  -9 -16    2.05    1.36
  -7  -9  17   12.30    2.56
  -7  -9 -17   14.87    2.90
  -7  -9 -18    2.22    1.25
  -7  10   0    0.05    0.26
  -7  10   0    0.36    0.21
  -7 -10   0   -1.07    0.79
  -7  10  -1  462.88    5.95
  -7  10   1  496.28    8.11
  -7 -10  -1  510.79   11.58
  -7 -10   1  502.04   11.10
  -7  10  -1  473.33    5.87
  -7  10   2    2.51    1.13
  -7  10   2    2.78    0.63
  -7 -10  -2    2.64    0.85
  -7 -10   2    0.44    0.61
  -7  10   3   52.11    4.11
  -7  10   3   53.75    2.70
  -7 -10  -3   61.49    3.89
  -7 -10   3   55.84    3.35
   7 -10  -4    2.27    0.72
  -7  10   4    0.85    0.78
  -7  10   4    1.05    0.55
  -7 -10  -4   -0.04    0.71
  -7 -10   4    1.57    0.65
  -7 -10   5  288.12    8.09
   7 -10  -5  279.46    7.93
  -7  10   5  266.26   10.24
  -7 -10  -5  271.78    8.95
  -7  10   5  279.43    7.46
  -7 -10   5  278.40    7.82
  -7 -10   6   -0.10    0.61
   7 -10  -6    1.11    0.72
  -7 -10   6    0.79    0.54
  -7  10   6    1.35    1.23
  -7  10   6   -0.03    0.53
  -7 -10  -6    2.44    1.03
   7 -10  -7   66.24    4.16
  -7 -10   7   62.12    3.80
  -7  10   7   57.32    5.40
  -7  10   7   66.91    3.81
  -7 -10  -7   64.04    4.44
  -7 -10   7   60.48    3.52
  -7 -10   8   32.45    2.84
  -7  10   8   26.68    2.59
  -7 -10  -8   29.98    3.22
  -7 -10   8   31.48    2.58
  -7 -10   9   81.33    4.66
  -7 -10   9   85.84    4.31
  -7 -10  -9   82.68    5.36
  -7  10   9   68.32    4.37
  -7 -10  10   63.59    4.31
  -7 -10 -10   64.36    4.84
  -7 -10  11  246.71    9.00
  -7 -10 -11  248.77    9.89
  -7 -10  12   64.72    4.74
  -7 -10 -12   66.31    5.20
  -7 -10  13    3.22    1.31
  -7 -10 -13    3.88    1.47
  -7 -10  14   37.52    3.87
  -7 -10 -14   39.38    4.19
  -7 -10 -15   70.55    5.71
  -7 -10 -16    7.99    2.02
  -7 -10 -17  104.49    7.39
  -7 -11   0    0.32    0.52
  -7 -11  -1   11.50    1.71
  -7 -11   1    9.76    1.52
  -7 -11  -2   18.95    2.16
  -7 -11   2   18.06    1.95
  -7 -11  -3   14.57    1.92
  -7 -11   3   16.16    1.83
  -7 -11  -4    2.19    0.80
  -7 -11   4    0.73    0.61
  -7 -11   5   10.52    1.55
  -7 -11   5   13.38    1.59
  -7 -11  -5    9.69    1.78
  -7 -11   6    4.05    0.95
  -7 -11  -6    2.95    1.08
  -7 -11   6    4.93    1.10
  -7 -11   7    0.87    0.84
  -7 -11  -7    0.57    0.77
  -7 -11   7    0.09    0.56
  -7 -11   8    6.60    1.29
  -7 -11   8    7.05    1.19
  -7 -11  -8    4.70    1.37
  -7 -11   9    8.65    1.29
  -7 -11   9    9.33    1.63
  -7 -11  -9    8.79    1.85
  -7 -11  10    2.94    1.05
  -7 -11  10    2.75    0.85
  -7 -11 -10    5.62    1.71
  -7 -11  11    3.07    0.86
  -7 -11 -11    4.11    1.38
  -7 -11 -12   19.93    3.01
  -7 -11 -13    2.00    1.43
  -7 -11 -14   -0.58    1.05
  -7 -11 -15   -1.16    0.85
  -7 -11 -16   -0.83    0.99
  -7 -12   0   -0.48    0.54
  -7 -12  -1   24.76    2.45
  -7 -12   1   26.39    2.43
  -7 -12  -2  107.92    5.31
  -7 -12   2  101.70    4.71
  -7 -12   3   17.85    1.93
  -7 -12  -3   14.95    1.97
  -7 -12  -4   32.65    3.08
  -7 -12   4   31.53    2.47
  -7 -12   5   64.90    3.73
  -7 -12  -5   64.44    4.47
  -7 -12   5   69.10    3.62
  -7 -12   6    1.21    0.71
  -7 -12  -6    1.34    0.88
  -7 -12   6   -0.12    0.47
  -7 -12  -7   -0.61    0.68
  -7 -12  -8   99.78    5.97
  -7 -12  -9    5.77    1.64
  -7 -12 -10   37.45    3.82
  -7 -12 -11   18.56    2.79
  -7 -12 -12   91.25    6.32
  -7 -12 -13    0.80    1.26
  -7 -12 -14   93.95    6.80
  -7 -12 -15   21.33    3.34
  -7 -13   0   -0.62    0.50
  -7 -13  -1    8.43    1.45
  -7 -13  -2    1.56    0.69
  -7 -13  -3    0.87    0.76
  -7 -13  -4    4.89    1.22
  -7 -13  -5    1.44    0.87
  -7 -13  -6   23.56    2.74
  -7 -13  -7   30.57    3.24
  -7 -13  -8    3.09    1.02
  -7 -13  -9   -0.13    1.02
  -7 -13 -10    2.30    1.18
  -7 -13 -11   32.13    3.79
  -7 -13 -12    1.89    1.10
  -7 -13 -13   -1.23    0.90
  -7 -13 -14   -0.65    1.50
  -8   0  -1    0.63    0.45
  -8   0  -2  141.23    4.90
  -8   0  -3    0.30    0.60
  -8   0   3    0.68    0.64
  -8   0   4 1362.99   20.84
  -8   0  -4 1395.40   20.27
  -8   0   5   -0.08    0.56
  -8   0  -5   -0.62    0.65
   8   0   6  616.12   11.75
  -8   0   6  593.14   12.97
  -8   0  -6  605.46   11.80
   8   0   7    0.11    0.38
  -8   0   7   -1.06    0.99
  -8   0  -7    0.13    0.48
   8   0   8    1.93    0.70
  -8   0   8    2.52    1.23
  -8   0  -8    0.81    0.52
  -8   0   9   -0.09    0.84
   8   0   9   -1.11    0.57
  -8   0  -9   -0.50    0.73
   8   0 -10 1300.03   21.38
  -8   0  10 1261.79   24.60
  -8   0 -10 1267.90   20.86
   8   0  10 1317.11   20.59
  -8   0  11    2.16    1.39
  -8   0 -11    0.95    0.79
   8   0  11   -0.33    0.40
  -8   0  12  656.27   17.93
  -8   0 -12  653.14   14.39
   8   0  12  665.11   13.70
  -8   0  13   -0.17    1.10
  -8   0 -13   -0.74    0.93
  -8   0  14   47.43    5.11
  -8   0 -14   43.78    3.64
  -8   0  15   -0.07    1.11
  -8   0 -15   -0.61    0.68
  -8   0  16  160.40   10.02
  -8   0 -16  174.08    7.78
  -8   0  17   -0.25    1.56
  -8   0 -17   -1.18    1.11
  -8   0  18   90.11    7.95
  -8   0 -18  106.44    6.42
  -8   0  19    0.00    1.34
  -8   0 -19   -0.89    0.80
  -8   0  20  105.54    9.00
  -8   0 -20  114.97    7.00
  -8   0  21    1.65    2.07
  -8   0 -21   -0.73    0.85
  -8   0  22  298.05   15.81
  -8   0 -22  307.91   12.33
  -8   0  23   -1.30    2.21
  -8   0 -23   -0.63    1.13
  -8  -1  -1  220.46    6.23
  -8   1   2  158.16    5.21
  -8   1  -2  152.76    4.98
  -8  -1  -2  161.23    5.32
  -8   1  -3   14.31    1.51
  -8   1   3   15.12    1.59
  -8  -1  -3   14.50    1.58
  -8  -1   4    0.17    0.55
  -8   1   4    0.64    0.57
  -8   1  -4    0.19    0.40
  -8  -1  -4    0.66    0.53
  -8   1   5   -1.08    0.91
  -8  -1   5    0.24    0.59
  -8  -1  -5    1.09    0.70
  -8   1  -5    0.15    0.42
  -8   1   6  320.66    9.30
   8   1   6  329.29    8.09
  -8  -1   6  329.22    8.91
  -8  -1  -6  323.52    8.22
  -8   1  -6  325.90    7.89
  -8   1   7  296.00    9.26
   8  -1   7  293.33    7.46
  -8  -1   7  276.58    8.63
  -8  -1  -7  285.69    7.80
  -8   1  -7  293.05    7.57
   8   1   7  285.42    7.64
  -8  -1   8  246.92    8.47
  -8   1   8  250.84    8.96
  -8   1  -8  257.92    7.25
  -8  -1  -8  254.58    7.50
   8  -1   8  258.78    7.10
   8   1   8  261.73    7.36
  -8   1   9   89.66    5.50
  -8  -1   9   88.05    5.25
   8  -1  -9   85.56    4.41
  -8  -1  -9   92.74    4.51
   8   1   9   90.71    4.31
   8  -1   9   86.14    4.08
  -8   1  -9   87.16    4.17
  -8   1  10   41.69    4.02
   8  -1 -10   48.39    3.40
  -8  -1  10   44.73    3.90
  -8  -1 -10   47.09    3.24
  -8   1 -10   44.59    3.06
   8   1  10   44.76    3.07
   8  -1  10   44.52    2.97
  -8   1  11   52.39    4.69
  -8  -1  11   52.73    4.51
  -8   1 -11   55.22    3.59
  -8  -1 -11   52.53    3.59
   8  -1  11   58.08    3.46
   8   1  11   55.51    3.49
  -8  -1  12   56.71    4.91
  -8   1  12   58.26    5.26
  -8  -1 -12   60.93    4.06
  -8   1 -12   63.38    3.99
   8  -1  12   66.60    3.80
  -8   1 -13   15.30    2.07
  -8  -1 -13   16.22    2.21
  -8  -1  13   11.33    2.51
  -8   1  13   14.77    2.74
  -8   1 -14   21.65    2.46
  -8  -1 -14   22.25    2.62
  -8  -1  14   20.26    3.43
  -8   1  14   18.33    3.25
  -8  -1 -15    6.56    1.53
  -8   1 -15    4.51    1.29
  -8  -1  15    3.59    1.91
  -8   1  15    4.81    1.97
  -8   1 -16   44.81    3.83
  -8  -1 -16   46.70    4.10
  -8  -1  16   48.57    5.43
  -8   1  16   43.36    5.16
  -8   1 -17    2.47    1.10
  -8  -1 -17    2.95    1.24
  -8  -1  17    0.81    1.57
  -8   1  17    4.00    2.05
  -8   1 -18    2.39    1.05
  -8  -1 -18    2.15    1.14
  -8  -1  18    1.40    1.11
  -8   1  18    0.36    1.22
  -8   1 -19   16.11    2.55
  -8  -1 -19   23.17    3.20
  -8  -1  19   20.15    4.09
  -8   1  19   19.50    3.93
  -8   1 -20    0.36    1.05
  -8  -1 -20   -1.13    1.07
  -8   1  20    0.23    1.50
  -8  -1  20   -0.09    1.78
  -8   1 -21   16.04    2.67
  -8  -1 -21   20.85    3.26
  -8  -1  21   15.46    3.68
  -8   1  21   17.42    3.95
  -8   1 -22    1.69    1.10
  -8  -1 -22    0.23    1.08
  -8  -1  22    3.35    1.77
  -8   1  22    1.06    2.06
  -8   1 -23    6.82    1.81
  -8  -1 -23    4.45    1.57
  -8  -1  23    8.17    2.46
  -8   1 -24    2.12    1.61
  -8  -2   0  293.41    7.47
  -8   2   1   22.35    1.86
  -8  -2  -1   18.74    1.84
  -8   2   2  456.41    9.77
  -8  -2  -2  465.73    9.84
  -8   2  -2  459.87    9.27
  -8   2   3  622.05   12.29
  -8   2  -3  608.17   11.11
  -8  -2  -3  618.38   11.91
  -8  -2   4    1.03    0.59
  -8   2   4    0.25    0.57
  -8   2  -4    1.44    0.49
  -8  -2  -4   -0.36    0.68
  -8  -2   5   97.93    4.33
  -8   2   5   95.53    4.70
  -8  -2  -5   95.22    4.22
  -8   2  -5   98.07    3.91
  -8  -2   6   86.17    4.29
  -8   2   6   85.79    4.83
   8   2   6   88.01    4.05
  -8  -2  -6   86.34    4.09
  -8   2  -6   92.97    3.84
  -8  -2   7  251.74    7.99
   8  -2   7  250.94    6.75
  -8   2   7  258.27    8.89
  -8  -2  -7  244.48    7.32
  -8   2  -7  256.84    6.83
   8   2   7  262.25    7.40
  -8   2   8  127.48    6.52
  -8  -2   8  118.88    5.60
   8  -2  -8  131.18    5.43
  -8  -2  -8  121.43    5.16
   8   2   8  128.11    5.12
   8  -2   8  126.58    4.72
  -8   2  -8  129.67    4.88
  -8  -2   9  355.56   10.71
  -8   2   9  353.45   11.75
   8  -2  -9  351.90    9.66
   8  -2   9  356.80    8.70
   8   2   9  365.77    9.30
  -8   2  -9  343.48    8.68
  -8  -2  -9  353.35    9.51
  -8   2  10   -0.17    0.85
   8  -2  10   -0.09    0.39
   8  -2 -10   -0.21    0.56
  -8  -2  10    0.20    0.84
  -8   2 -10   -0.17    0.65
  -8  -2 -10   -0.09    0.61
   8   2  10    0.09    0.41
  -8  -2  11  115.82    6.50
  -8   2  11  102.16    6.73
  -8   2 -11  109.74    4.98
  -8  -2 -11  105.52    5.26
   8  -2  11  107.28    4.67
  -8  -2  12   26.50    3.42
  -8   2  12   29.48    3.79
  -8  -2 -12   29.62    2.88
  -8   2 -12   29.42    2.68
   8  -2  12   29.44    2.49
  -8  -2  13  499.71   15.64
  -8   2  13  490.68   16.60
  -8   2 -13  509.40   12.31
  -8  -2 -13  491.45   12.90
   8  -2  13  520.81   11.73
  -8   2 -14   12.14    1.88
  -8  -2 -14   12.29    2.07
  -8   2  14   12.07    2.69
  -8  -2  14   13.72    2.70
  -8  -2 -15   23.05    2.84
  -8   2 -15   24.14    2.73
  -8   2  15   20.98    3.72
  -8  -2  15   17.75    3.40
  -8   2 -16   86.00    5.26
  -8  -2 -16   90.91    5.70
  -8  -2  16   87.64    7.23
  -8   2  16   85.89    7.49
  -8   2 -17  295.73   10.38
  -8  -2 -17  314.64   11.24
  -8  -2  17  313.50   14.17
  -8   2  17  303.54   14.53
  -8  -2 -18   16.25    2.67
  -8   2 -18   14.38    2.29
  -8  -2  18   19.03    3.79
  -8   2  18   14.35    3.38
  -8   2 -19  198.38    8.85
  -8  -2 -19  204.00    9.55
  -8  -2  19  206.17   12.14
  -8   2  19  204.59   12.39
  -8   2 -20    7.54    1.82
  -8  -2 -20    8.06    1.93
  -8   2  20    9.01    2.84
  -8  -2  20    9.20    2.72
  -8   2 -21    3.42    1.26
  -8  -2 -21    5.64    1.74
  -8  -2  21    1.38    1.48
  -8   2  21    4.58    2.33
  -8   2 -22    2.38    1.33
  -8  -2 -22    0.47    0.90
  -8   2  22    2.17    1.96
  -8  -2  22    2.53    1.43
  -8   2 -23   85.20    6.35
  -8  -2  23   78.01    8.26
  -8   2 -24    3.50    1.47
  -8  -3   0    3.01    0.74
  -8   3   0    5.88    0.95
  -8   3   1  578.14   11.10
  -8  -3  -1  573.72   11.44
  -8   3   2  361.37    8.75
  -8   3  -2  368.27    7.94
  -8  -3  -2  374.67    8.76
  -8   3  -3    0.68    0.36
  -8   3   3    1.09    0.64
  -8  -3  -3    0.01    0.50
  -8   3   4    2.17    0.94
  -8   3  -4    2.57    0.67
  -8  -3  -4    2.24    0.77
   8   3   5    8.36    1.24
  -8  -3   5    9.75    1.44
  -8   3   5   11.70    1.89
  -8  -3  -5    8.58    1.38
  -8   3  -5    9.88    1.22
  -8   3   6    8.96    1.65
   8   3   6   11.79    1.51
  -8  -3   6   11.07    1.53
  -8  -3  -6   11.77    1.58
  -8   3  -6   13.94    1.47
   8  -3  -7   36.65    2.76
  -8  -3   7   34.27    2.81
  -8   3   7   32.85    3.30
  -8  -3  -7   39.50    2.92
  -8   3  -7   35.52    2.38
   8   3   7   38.36    2.80
  -8   3   8    5.56    1.69
   8   3   8    6.31    1.18
   8  -3   8    6.71    1.06
   8  -3  -8    5.56    1.18
  -8  -3   8    8.17    1.49
  -8   3  -8    6.15    1.06
  -8  -3  -8    7.20    1.34
  -8  -3   9   27.97    2.81
   8  -3  -9   35.36    2.94
  -8   3   9   33.88    3.63
  -8   3  -9   33.43    2.44
  -8  -3  -9   32.07    2.77
   8   3   9   31.15    2.61
   8  -3   9   33.93    2.39
  -8   3  10   13.02    2.58
  -8  -3  10   16.62    2.39
   8  -3  10   13.31    1.58
  -8   3 -10   13.69    1.67
  -8  -3 -10   11.18    1.71
   8  -3  11    1.64    0.66
  -8  -3  11    1.21    1.00
  -8   3  11    0.46    1.12
  -8   3 -11    2.15    0.81
  -8  -3 -11    1.23    0.82
  -8  -3  12   61.65    4.97
  -8   3  12   75.36    6.25
  -8  -3 -12   69.98    4.49
  -8   3 -12   74.69    4.11
   8  -3  12   71.62    3.86
  -8  -3  13  164.28    8.59
  -8   3  13  150.27    9.14
  -8   3 -13  155.88    6.28
  -8  -3 -13  163.53    7.19
   8  -3  13  168.97    6.18
  -8   3  14   52.12    5.55
  -8  -3  14   54.02    5.16
  -8  -3 -14   56.19    4.32
  -8   3 -14   54.21    3.79
   8  -3  14   50.45    3.41
  -8   3  15    8.44    2.36
  -8  -3  15    8.11    2.14
  -8  -3 -15    6.38    1.51
  -8   3 -15    8.63    1.72
  -8   3  16    7.06    2.58
  -8  -3  16    5.43    1.87
  -8   3 -16    3.31    1.06
  -8  -3 -16    4.33    1.35
  -8   3  17   15.37    3.33
  -8  -3  17   13.38    3.35
  -8  -3 -17   11.44    2.20
  -8   3 -17   16.03    2.30
  -8  -3  18    8.83    2.63
  -8   3  18    3.10    1.63
  -8  -3 -18    6.22    1.86
  -8   3 -18    3.32    1.10
  -8  -3  19    3.87    1.57
  -8   3  19    3.78    2.44
  -8  -3 -19    1.41    0.95
  -8   3 -19    3.90    1.44
  -8  -3  20   35.16    5.47
  -8   3  20   36.03    5.33
  -8   3 -20   28.15    3.28
  -8  -3 -20   37.26    4.14
  -8   3  21   23.66    4.54
  -8  -3  21   21.70    4.50
  -8   3 -21   20.81    3.01
  -8  -3 -21   28.65    3.87
  -8  -3  22    0.43    1.32
  -8   3  22    1.86    1.29
  -8   3 -22    1.78    1.37
  -8  -3 -22   -0.53    0.93
  -8  -3  23    2.91    1.74
  -8   3 -23    4.77    1.81
  -8   4   0   80.90    3.60
  -8  -4   0   82.08    3.92
  -8  -4   1  106.10    4.44
  -8   4  -1   96.25    3.81
  -8   4   1   95.82    4.16
  -8  -4  -1  100.86    4.30
  -8   4   2   41.15    2.86
  -8   4  -2   41.96    2.37
  -8  -4  -2   39.86    2.75
  -8   4   3    1.83    0.78
  -8   4  -3    1.18    0.50
  -8  -4  -3    0.80    0.57
  -8   4   4   71.30    4.20
  -8   4  -4   68.11    3.02
  -8  -4  -4   67.28    3.67
  -8   4   5   11.42    1.81
   8   4   5   12.62    1.59
  -8  -4   5   12.07    1.58
  -8  -4  -5   11.06    1.56
  -8   4  -5   10.47    1.19
   8  -4  -6  753.39   14.12
  -8  -4   6  727.63   14.08
  -8   4   6  729.69   16.80
  -8  -4  -6  715.27   14.19
  -8   4  -6  732.00   12.39
   8   4   6  740.01   14.08
   8  -4  -7   97.83    4.61
  -8  -4   7   92.03    4.61
  -8   4   7   97.15    5.99
  -8   4  -7   93.35    3.81
   8   4   7  100.34    4.61
  -8  -4  -7   91.02    4.52
  -8   4   8    3.49    1.55
   8   4   8    1.62    0.68
  -8  -4   8    2.08    0.88
   8  -4  -8    3.43    0.98
  -8   4  -8    3.19    0.77
  -8  -4  -8    3.80    1.06
  -8   4   9    0.56    0.93
  -8  -4   9   -0.94    0.96
   8  -4   9    1.47    0.58
   8  -4  -9   -0.36    0.64
  -8   4  -9   -0.59    0.63
  -8  -4  -9    0.66    0.70
  -8  -4  10  325.99   10.52
  -8   4  10  314.91   12.38
  -8   4 -10  326.91    8.35
  -8  -4 -10  334.41    9.81
   8  -4  10  317.53    7.93
  -8  -4  11   35.62    3.54
  -8   4  11   32.49    4.08
  -8  -4 -11   30.35    2.96
  -8   4 -11   31.15    2.49
   8  -4  11   32.60    2.48
  -8  -4  12  152.65    7.77
  -8   4  12  171.55    9.63
  -8   4 -12  167.13    6.18
  -8  -4 -12  163.70    7.15
   8  -4  12  169.71    5.89
   8  -4  13    4.68    1.01
  -8  -4  13    3.69    1.45
  -8   4  13    3.46    1.36
  -8  -4 -13    3.88    1.18
  -8   4 -13    3.90    1.02
  -8  -4  14   26.07    3.68
  -8   4  14   27.09    4.13
  -8  -4 -14   29.91    3.23
  -8   4 -14   28.09    2.66
   8  -4  14   29.35    2.58
  -8  -4  15   11.83    2.47
  -8   4  15    7.59    2.42
  -8  -4 -15    7.68    1.81
  -8   4 -15    8.30    1.52
   8  -4  15   10.85    1.71
  -8   4 -16  614.00   14.51
  -8  -4 -16  617.67   16.36
  -8  -4  16  609.21   19.31
  -8   4 -16  593.87   17.16
  -8   4  16  594.59   20.61
  -8  -4 -17   17.71    2.72
  -8   4 -17   16.52    2.31
  -8   4  17   17.64    3.66
  -8  -4  17   15.53    3.32
  -8   4 -18   38.05    3.57
  -8  -4 -18   42.50    4.34
  -8  -4  18   32.13    5.00
  -8   4  18   41.87    5.58
  -8  -4 -19    4.67    1.42
  -8   4 -19    2.76    1.10
  -8  -4  19    3.00    1.56
  -8   4  19    4.66    2.41
  -8   4 -20  103.33    6.21
  -8  -4 -20  117.99    7.54
  -8   4  20  105.60    8.96
  -8  -4  20   94.20    8.45
  -8   4 -21   12.95    2.51
  -8  -4 -21   10.34    2.44
  -8   4  21    7.25    2.61
  -8  -4  21    6.11    2.62
  -8   4 -22  105.62    6.59
  -8  -4  22  112.47    9.39
  -8  -4  23    3.05    1.57
  -8  -5   0    0.29    0.47
  -8   5   0    2.40    0.71
  -8   5  -1   10.98    1.32
  -8   5   1   12.65    1.65
  -8  -5   1    8.15    1.27
  -8  -5  -1   10.01    1.43
  -8   5  -2   87.89    3.56
  -8   5   2   98.77    4.70
  -8  -5   2   91.58    4.25
  -8  -5  -2   95.55    4.38
  -8   5  -2   96.45    3.53
  -8   5   3    0.20    0.56
  -8   5  -3    1.50    0.57
  -8   5  -3    0.35    0.42
  -8  -5  -3    0.46    0.64
  -8   5   4    6.75    1.56
  -8   5  -4    6.60    0.93
  -8  -5  -4    6.06    1.23
  -8   5   5    6.91    1.54
  -8  -5  -5    6.93    1.25
  -8   5  -5    6.93    0.97
  -8   5   6   -0.42    0.77
   8   5   6    0.99    0.64
   8  -5  -6    2.12    0.86
  -8  -5   6    0.60    0.57
  -8  -5  -6    2.02    0.87
  -8   5  -6   -0.14    0.35
  -8   5   7   21.74    2.94
   8  -5  -7   26.23    2.43
  -8  -5   7   19.12    2.11
  -8   5  -7   21.66    1.74
  -8  -5  -7   21.27    2.28
   8   5   7   19.32    2.07
   8  -5  -8  126.25    5.54
  -8  -5   8  105.17    5.16
  -8   5   8  125.89    7.28
  -8   5  -8  114.22    4.15
  -8  -5  -8  102.46    5.15
  -8   5   9    6.01    1.66
   8  -5  -9    7.79    1.47
  -8  -5   9    3.82    0.99
  -8   5  -9    6.59    1.06
  -8  -5  -9    5.16    1.36
  -8  -5  10    2.73    1.16
  -8   5  10    5.54    1.93
  -8   5 -10    4.98    1.02
  -8  -5 -10    2.17    0.97
  -8  -5  11   18.77    2.58
  -8   5  11   13.45    2.70
  -8   5 -11   18.72    1.93
   8  -5  11   14.76    1.61
  -8  -5 -11   19.71    2.51
  -8  -5  12   65.66    5.27
  -8   5  12   72.06    6.45
  -8  -5 -12   75.40    4.94
  -8   5 -12   73.88    3.90
   8  -5  12   67.98    3.54
  -8  -5  13   13.78    2.66
  -8   5  13   17.24    3.28
  -8  -5 -13   15.08    2.36
  -8   5 -13   14.40    1.82
   8  -5  13   17.57    1.87
   8  -5  14    0.28    0.42
  -8   5 -14   -0.09    0.62
  -8  -5 -14   -0.40    0.82
  -8  -5  14    0.77    1.03
  -8   5  14   -0.22    1.22
   8  -5  15    1.99    0.78
  -8   5  15    2.04    1.69
  -8   5 -15    0.70    0.73
  -8  -5  15    3.58    1.56
  -8  -5 -15    1.83    0.84
  -8   5 -15    1.39    0.82
  -8   5  16    6.69    2.29
  -8   5 -16    5.52    1.65
  -8  -5  16    1.62    1.54
  -8  -5 -16    8.66    2.04
  -8   5 -16    8.81    1.69
  -8   5  17   21.30    3.89
  -8  -5  17   16.71    3.20
  -8  -5 -17   21.12    3.05
  -8   5 -17   22.44    2.55
  -8  -5  18   20.08    3.91
  -8   5  18   25.86    4.47
  -8  -5 -18   19.68    3.15
  -8   5 -18   22.12    2.66
  -8   5  19   24.92    4.58
  -8  -5  19   18.77    3.83
  -8  -5 -19   22.68    3.32
  -8   5 -19   25.62    2.90
  -8  -5  20    5.51    2.07
  -8   5  20    4.03    2.05
  -8   5 -20    2.52    1.26
  -8  -5 -20    2.84    1.59
  -8   5  21   11.23    3.68
  -8  -5  21    5.36    2.43
  -8  -5  22    0.43    1.23
  -8  -5  23   13.27    3.22
  -8   6   0   50.77    3.17
  -8  -6   0   51.53    3.22
  -8   6  -1  259.03    7.13
  -8   6   1  264.12    8.06
  -8  -6  -1  269.12    7.69
  -8  -6   1  270.74    7.64
  -8   6   2    2.50    0.93
  -8   6  -2    3.81    0.66
  -8  -6   2    3.67    0.96
  -8   6  -2    3.31    0.74
  -8  -6  -2    3.06    0.89
  -8  -6   3  878.23   15.83
  -8   6  -3  914.60   14.28
  -8   6   3  903.57   18.20
  -8   6  -3  896.01   13.36
  -8  -6  -3  848.13   15.87
  -8   6   4    7.27    1.61
  -8   6  -4    7.98    1.04
  -8  -6  -4    7.78    1.34
  -8   6  -4    7.03    0.87
  -8   6   5    5.30    1.38
  -8   6  -5    6.22    0.92
  -8   6  -5    4.73    0.76
  -8  -6  -5    6.51    1.34
  -8   6   6   81.33    5.59
   8  -6  -6   88.21    4.37
  -8  -6   6   73.31    4.02
   8   6   6   75.07    4.08
  -8  -6  -6   73.59    4.22
  -8   6  -6   78.53    3.11
   8  -6  -7  567.29   12.57
  -8  -6   7  531.76   12.29
  -8   6   7  541.13   15.78
  -8   6  -7  546.99    9.86
  -8  -6  -7  552.32   12.80
   8  -6  -8  135.91    5.89
  -8  -6   8  119.07    5.59
  -8  -6  -8  115.33    5.57
  -8   6  -8  124.71    4.26
  -8   6   8  118.76    7.34
  -8  -6   9  169.43    6.96
  -8  -6  -9  172.95    7.06
  -8   6  -9  173.12    5.30
  -8   6   9  183.23    9.48
  -8  -6  10   47.27    3.81
  -8   6 -10   52.35    2.91
  -8  -6 -10   49.15    3.77
  -8   6  10   44.19    4.87
  -8  -6  11   45.90    4.01
  -8  -6 -11   50.94    4.05
  -8   6 -11   50.93    3.00
  -8   6  11   48.20    5.18
   8  -6  12    0.86    0.49
  -8  -6  12    2.06    1.22
  -8   6  12    1.38    1.49
  -8   6 -12    0.75    0.52
  -8  -6 -12    0.88    0.84
  -8  -6  13  103.62    6.64
  -8   6  13  118.49    8.55
  -8  -6 -13  104.58    6.18
  -8   6 -13  115.21    4.91
   8  -6  13  104.70    4.39
   8  -6  14    2.17    0.79
  -8   6 -14    0.60    0.83
  -8   6  14    3.07    2.06
  -8  -6  14    3.51    1.60
  -8  -6 -14    3.18    1.29
  -8   6 -14    0.11    0.55
  -8   6 -15   59.19    4.52
  -8   6  15   51.53    5.82
  -8  -6  15   59.15    5.48
  -8   6 -15   57.87    3.68
  -8  -6 -15   59.14    4.78
   8  -6  15   54.61    3.40
  -8  -6  16    3.43    1.60
  -8   6  16    8.21    2.84
  -8   6 -16    6.20    1.44
  -8  -6 -16    4.15    1.34
  -8   6  17    2.24    1.89
  -8  -6  17    6.07    2.13
  -8   6 -17    4.04    1.11
  -8  -6 -17    3.85    1.58
  -8  -6  18   20.68    4.02
  -8   6  18   27.53    4.54
  -8  -6 -18   24.56    3.46
  -8   6 -18   22.11    2.53
  -8  -6  19  306.97   14.47
  -8   6  19  338.97   16.39
  -8  -6 -19  328.00   12.98
  -8   6  20    6.41    2.63
  -8  -6  20    3.68    2.02
  -8  -6 -20   -0.05    1.18
  -8  -6  21   17.58    3.69
  -8  -6  22    8.09    2.70
  -8  -6  23   72.18    7.53
  -8   7   0    4.59    1.17
  -8  -7   0    3.34    0.94
  -8   7   1   39.96    3.26
  -8   7  -1   43.66    3.00
  -8   7  -1   42.88    2.22
  -8  -7  -1   44.76    3.07
  -8  -7   1   46.48    3.12
  -8   7   2  195.06    7.57
  -8   7  -2  178.55    5.85
  -8  -7   2  171.73    6.09
  -8   7  -2  183.65    4.68
  -8  -7  -2  163.38    6.10
  -8   7   3   45.99    3.87
  -8   7  -3   49.79    2.81
  -8  -7  -3   48.39    3.29
  -8  -7   3   52.62    3.29
  -8   7  -3   46.02    2.16
  -8   7   4    2.81    1.25
  -8  -7   4    5.88    1.18
  -8   7  -4    3.37    0.65
  -8   7  -4    2.69    0.54
  -8  -7  -4    3.46    0.90
  -8   7   5    1.46    0.83
   8  -7  -5    1.87    0.74
  -8   7  -5    1.55    0.55
  -8  -7  -5    1.49    0.80
  -8   7  -5    1.92    0.50
   8  -7  -6   42.26    3.06
  -8   7  -6   46.40    2.26
  -8  -7   6   35.27    2.80
  -8   7   6   43.10    4.21
  -8   7  -6   41.62    2.09
  -8  -7  -6   33.27    2.92
  -8   7  -7   13.63    1.21
   8  -7  -7   14.16    1.86
  -8  -7   7   13.79    1.83
  -8   7   7   18.80    3.02
  -8   7  -7   14.64    1.27
  -8  -7  -7   16.56    2.11
  -8  -7   8    1.66    1.05
   8  -7  -8    1.40    0.75
  -8   7   8    0.40    1.08
  -8   7  -8    0.80    0.39
  -8  -7  -8    0.78    0.72
  -8  -7   9   19.22    2.42
  -8   7   9   29.70    3.96
  -8   7  -9   24.45    1.81
  -8  -7  -9   23.27    2.63
  -8  -7  10    1.40    0.84
  -8   7  10    3.90    1.65
  -8   7 -10    2.65    0.54
  -8  -7 -10    3.83    1.40
  -8  -7  11   74.80    5.06
  -8   7 -11   68.82    3.32
  -8  -7 -11   74.48    5.04
  -8   7  11   73.89    6.39
  -8  -7  12   58.39    4.69
  -8   7  12   58.73    6.03
  -8   7 -12   67.54    3.97
  -8   7 -12   66.09    3.35
  -8  -7 -12   59.74    4.58
  -8   7  13    2.35    1.27
  -8  -7  13    2.29    1.02
  -8  -7 -13    5.59    1.58
  -8   7 -13    6.43    1.18
  -8  -7  14    8.95    2.30
  -8   7  14    7.52    2.74
  -8  -7 -14    7.51    1.82
  -8   7 -14    7.02    1.32
  -8   7  15    3.61    2.02
  -8  -7  15    3.00    1.75
  -8   7 -15    3.17    0.86
  -8  -7 -15    3.26    1.14
  -8   7  16   -0.57    1.54
  -8  -7  16    0.51    1.15
  -8   7 -16   -0.28    0.60
  -8  -7 -16    0.41    1.05
  -8   7  17    7.51    2.40
  -8  -7  17    7.66    2.43
  -8  -7 -17    8.47    2.15
  -8  -7  18    2.40    1.57
  -8   7  18   -1.08    1.98
  -8  -7 -18    1.00    1.06
  -8   7  19   -0.60    1.58
  -8  -7  19    2.42    1.43
  -8  -7 -19   -0.57    1.16
  -8  -7  20    3.85    2.02
  -8  -7  21   16.50    3.36
  -8  -7  22    8.85    2.61
  -8   8   0  400.67   10.68
  -8  -8   0  379.07    9.70
  -8   8  -1    0.30    0.62
  -8   8   1    1.98    0.88
  -8   8  -1    0.41    0.32
  -8  -8  -1    1.11    0.76
  -8  -8   1    0.21    0.59
  -8   8   2   42.16    3.62
  -8   8  -2   40.53    2.84
  -8  -8  -2   42.63    3.13
  -8  -8   2   39.76    2.92
  -8   8  -2   41.64    1.97
  -8   8   3   61.26    4.61
  -8   8  -3   65.53    3.38
  -8  -8   3   60.42    3.62
  -8  -8  -3   60.86    3.80
  -8   8  -3   61.65    2.32
  -8   8   4   44.26    4.08
  -8   8  -4   45.58    2.63
  -8  -8   4   44.63    3.16
  -8  -8  -4   44.06    3.32
  -8   8  -4   41.90    1.87
   8  -8  -5   42.65    2.93
  -8   8  -5   47.57    2.51
  -8   8   5   39.84    3.99
  -8   8  -5   41.13    1.85
  -8  -8   5   42.63    3.09
  -8  -8  -5   43.01    3.36
  -8  -8   6  197.54    6.84
   8  -8  -6  199.61    6.92
  -8  -8   6  201.76    6.97
  -8   8  -6  198.25    5.03
  -8   8   6  193.87    9.25
  -8   8  -6  192.52    4.43
  -8  -8  -6  191.88    7.40
  -8   8  -7   12.18    1.09
  -8  -8   7    9.31    1.53
   8  -8  -7   12.86    1.77
  -8   8   7   14.70    2.73
  -8   8  -7   11.22    1.00
  -8   8   7   13.77    1.83
  -8  -8  -7    8.44    1.61
  -8  -8   8    5.26    1.27
  -8   8  -8    5.85    0.74
  -8   8   8    6.39    2.05
  -8   8   8    8.09    1.55
  -8   8  -8    5.40    0.77
  -8  -8  -8    3.46    1.08
  -8   8  -9  225.33    4.85
  -8  -8   9  211.15    7.98
  -8   8   9  206.46    7.76
  -8   8  -9  218.69    5.22
  -8  -8  -9  216.53    8.47
  -8   8   9  200.49   10.30
  -8  -8  10  444.47   12.33
  -8   8 -10  434.93    7.55
  -8   8 -10  441.28    8.41
  -8  -8 -10  454.74   13.04
  -8   8  10  438.10   15.87
  -8   8 -10  486.09    9.43
  -8  -8  11    1.02    0.92
  -8  -8 -11    0.00    0.80
  -8   8 -11    0.90    0.52
  -8   8  11    1.45    1.60
  -8  -8  12  219.80    9.19
  -8   8 -12  225.36    6.03
  -8  -8 -12  226.44    9.43
  -8   8  12  229.02   11.90
  -8  -8  13   48.47    4.58
  -8   8  13   60.36    6.15
  -8  -8 -13   53.75    4.64
  -8   8 -13   51.01    2.83
  -8  -8  14   20.46    3.21
  -8   8  14   19.00    3.81
  -8  -8 -14   20.88    2.90
  -8  -8  15   17.66    3.05
  -8   8  15   18.27    3.65
  -8  -8 -15   14.92    2.59
  -8  -8  16  106.51    7.59
  -8   8  16  118.49    9.08
  -8  -8 -16  127.94    7.72
  -8   8  17    5.96    2.47
  -8  -8  17    2.53    1.73
  -8  -8 -17    6.07    1.77
  -8  -8  18   48.76    5.43
  -8   8  18   43.99    6.84
  -8  -8 -18   52.99    5.21
  -8  -8  19    4.80    2.27
  -8  -8  20  109.06    8.44
  -8   9   0  188.47    7.11
  -8  -9   0  173.15    6.42
  -8   9  -1    0.68    0.66
  -8   9   1   -0.13    0.70
  -8   9  -1    0.26    0.27
  -8  -9  -1    0.12    0.58
  -8  -9   1    0.59    0.54
  -8   9  -2   13.54    1.68
  -8   9   2   14.49    2.13
  -8   9   2   12.33    1.37
  -8   9  -2   12.61    0.95
  -8  -9   2   12.81    1.73
  -8  -9  -2   10.79    1.67
  -8   9  -3   80.15    3.69
  -8   9   3   68.94    4.86
  -8   9   3   67.45    3.38
  -8  -9  -3   63.44    4.05
  -8   9  -3   68.75    2.11
  -8  -9   3   63.11    3.73
  -8  -9   4   -0.34    0.49
  -8   9   4    1.09    0.97
  -8   9  -4   -0.24    0.46
  -8   9   4   -0.03    0.41
  -8   9  -4    0.14    0.26
  -8  -9  -4    1.09    0.74
  -8  -9   5    2.49    0.94
  -8   9  -5    1.92    0.44
  -8   9   5    5.00    1.61
  -8   9  -5    3.82    0.45
  -8   9   5    2.55    0.73
  -8  -9  -5    3.84    1.06
  -8  -9   6    6.71    1.18
   8  -9  -6    6.69    1.28
  -8  -9   6    8.92    1.51
  -8   9  -6    5.99    0.66
  -8   9   6    5.47    1.47
  -8   9  -6    6.16    0.52
  -8   9   6    4.97    1.09
  -8  -9  -6    7.95    1.61
  -8  -9   7   17.33    2.00
   8  -9  -7   25.15    2.48
  -8  -9   7   20.07    2.21
  -8   9   7   27.27    3.58
  -8   9   7   26.24    2.49
  -8   9  -7   23.29    1.03
  -8  -9  -7   19.20    2.48
  -8  -9   8   39.00    3.20
  -8   9   8   38.52    3.16
  -8  -9  -8   43.86    3.80
  -8   9  -8   39.15    1.42
  -8   9   8   44.32    4.69
  -8  -9   9    3.41    1.17
  -8  -9  -9    5.11    1.45
  -8   9   9    6.11    1.95
  -8  -9  10   48.03    3.91
  -8  -9 -10   45.35    4.06
  -8   9  10   46.28    5.05
  -8  -9  11   11.39    2.07
  -8  -9 -11   11.92    2.09
  -8   9  11   14.80    3.08
  -8  -9 -12    1.15    1.00
  -8  -9  12    0.19    0.81
  -8   9  12    0.37    1.10
  -8  -9 -13   16.99    2.68
  -8  -9  13   17.39    2.66
  -8   9  13   20.62    3.75
  -8  -9  14   43.46    4.52
  -8   9  14   50.67    5.82
  -8  -9 -14   52.20    4.79
  -8   9  15    2.97    2.27
  -8  -9  15    0.66    0.93
  -8  -9 -15    2.49    1.42
  -8  -9  16    0.65    1.18
  -8  -9 -16    1.29    1.11
  -8  -9  17   13.13    2.83
  -8  -9 -17   17.78    3.06
  -8  10   0   42.63    3.03
  -8  10   0   42.52    1.99
  -8 -10   0   36.21    2.96
  -8  10   0   48.33    1.98
  -8  10   1  134.73    5.92
  -8  10  -1  139.33    5.13
  -8  10   1  134.25    4.11
  -8  10  -1  137.00    3.30
  -8 -10  -1  132.27    5.76
  -8  10  -1  144.65    3.15
  -8 -10   1  130.61    5.57
  -8  10   2   13.12    1.96
  -8  10  -2   14.40    1.45
  -8  10   2   13.89    1.44
  -8  10  -2   13.09    0.72
  -8  10  -2   13.83    0.71
  -8 -10  -2   14.13    1.98
  -8 -10   2   12.66    1.66
  -8  10   3  271.64    9.58
  -8  10   3  246.62    6.68
  -8 -10  -3  255.01    8.57
  -8 -10   3  267.07    8.01
  -8  10   4   10.75    2.05
  -8  10   4   14.55    1.62
  -8 -10  -4   11.79    1.88
  -8 -10   4   13.27    1.73
  -8 -10   5    4.07    1.13
  -8  10   5    4.25    1.44
  -8  10   5    4.32    0.97
  -8 -10  -5    2.11    0.78
  -8 -10   5    2.47    0.75
   8 -10  -6   51.13    3.44
  -8 -10   6   51.42    3.54
  -8  10   6   52.80    4.71
  -8 -10  -6   49.10    3.85
  -8  10   6   46.41    3.13
  -8 -10   6   48.71    3.37
  -8 -10   7  120.19    5.52
  -8  10   7  115.17    7.23
  -8  10   7  103.71    4.99
  -8 -10  -7  109.66    5.99
  -8 -10   7  116.05    5.23
  -8 -10   8    0.48    0.49
  -8 -10   8    1.77    0.95
  -8 -10  -8    0.88    0.83
  -8  10   8    0.13    0.67
  -8  10   8    1.80    1.42
  -8 -10   9   46.83    3.31
  -8 -10   9   46.68    3.68
  -8 -10  -9   46.56    4.12
  -8  10   9   44.66    4.86
  -8 -10  10   26.36    2.92
  -8 -10 -10   23.71    2.93
  -8  10  10   35.59    4.44
  -8 -10  11    1.37    1.09
  -8 -10 -11    1.70    1.13
  -8  10  11    0.12    1.77
  -8 -10 -12   14.93    2.65
  -8 -10  12   16.72    2.52
  -8 -10  13  120.91    7.08
  -8 -10 -13  125.40    7.48
  -8 -10  14   -0.21    1.12
  -8 -10 -14   -0.49    1.10
  -8 -10 -15   23.44    3.33
  -8 -10 -16   18.96    3.14
  -8 -11   0    3.61    1.11
  -8 -11  -1   27.16    2.65
  -8 -11   1   24.63    2.47
  -8 -11  -2    0.19    0.61
  -8 -11   2    0.75    0.65
  -8 -11  -3   16.92    2.22
  -8 -11   3   14.68    1.87
  -8 -11  -4   10.11    1.75
  -8 -11   4   10.68    1.62
  -8 -11   5   17.15    2.08
  -8 -11  -5   14.01    2.06
  -8 -11   5   12.98    1.70
  -8 -11   6   -0.02    0.66
  -8 -11   6    0.92    0.60
  -8 -11  -6    0.30    0.69
  -8 -11   7    7.67    1.46
  -8 -11  -7    6.32    1.51
  -8 -11   7   10.44    1.56
  -8 -11   8    3.20    0.93
  -8 -11   8    4.16    1.02
  -8 -11  -8    3.28    1.21
  -8 -11   9   -0.39    0.70
  -8 -11   9   -0.02    0.56
  -8 -11  -9    0.51    0.79
  -8 -11  10   19.08    2.10
  -8 -11  10   20.27    2.50
  -8 -11 -10   21.09    3.00
  -8 -11  11    0.41    0.66
  -8 -11 -11   -0.02    0.77
  -8 -11 -12    4.95    1.69
  -8 -11 -13    2.35    1.43
  -8 -11 -14    4.30    1.95
  -8 -11 -15    5.50    1.62
  -8 -12   0   66.31    4.13
  -8 -12   1   34.34    2.90
  -8 -12  -1   31.24    2.97
  -8 -12  -2    3.29    1.10
  -8 -12   2    4.60    1.05
  -8 -12  -3   42.55    3.50
  -8 -12   3   40.01    3.03
  -8 -12  -4  116.06    6.03
  -8 -12   4  117.27    5.19
  -8 -12   5    0.19    0.48
  -8 -12  -5    1.91    1.08
  -8 -12   5    0.72    0.55
  -8 -12   6   58.81    3.83
  -8 -12  -6   62.51    4.60
  -8 -12   6   58.51    3.51
  -8 -12  -7   63.71    4.77
  -8 -12  -8   12.11    2.31
  -8 -12  -9    7.58    1.91
  -8 -12 -10   18.37    2.78
  -8 -12 -11    8.31    1.95
  -8 -12 -12   34.15    4.00
  -8 -12 -13    5.01    1.50
  -8 -12 -14   20.54    3.33
  -8 -13   0    0.12    0.52
  -8 -13  -1    0.39    0.58
  -8 -13  -2    1.14    0.83
  -8 -13  -3    2.53    1.05
  -8 -13  -4    7.51    1.72
  -8 -13  -5    3.03    1.15
  -8 -13  -6    0.27    1.09
  -8 -13  -7    0.68    1.01
  -8 -13  -8    8.79    1.96
  -8 -13  -9    1.02    0.84
  -8 -13 -10    1.14    1.09
  -8 -13 -11    2.09    1.01
  -8 -13 -12    3.77    1.70
  -8 -13 -13    4.64    1.81
  -9   0  -1   -1.07    0.82
  -9   0  -2 2042.31   28.09
  -9   0  -3   -0.30    0.75
  -9   0   3   -0.26    0.52
  -9   0   4  405.35    9.74
  -9   0  -4  397.91    9.29
  -9   0   5    0.78    0.76
  -9   0  -5   -0.17    0.65
  -9   0   6  974.85   18.11
  -9   0  -6  980.94   16.73
   9   0   7   -0.16    0.49
  -9   0   7    0.82    0.86
  -9   0  -7    0.28    0.60
  -9   0   8  554.61   13.92
   9   0   8  557.00   11.77
  -9   0  -8  571.03   12.19
   9   0   9   -0.28    0.53
  -9   0   9   -0.49    0.87
  -9   0  -9   -1.10    0.89
  -9   0  10    9.14    1.96
   9   0  10    9.17    1.46
  -9   0 -10   10.52    1.65
  -9   0  11   -0.75    1.17
  -9   0 -11    0.52    0.56
  -9   0  12  196.38    9.55
  -9   0 -12  208.87    7.68
  -9   0 -13   -1.33    0.76
  -9   0  13    1.04    1.43
  -9   0 -14  583.97   14.45
  -9   0  14  586.12   18.68
  -9   0 -15   -0.43    1.09
  -9   0  15    0.55    1.26
  -9   0 -16   15.03    2.23
  -9   0  16   12.31    3.05
  -9   0 -17   -0.27    1.03
  -9   0  17   -0.55    1.73
  -9   0 -18  244.75   10.09
  -9   0  18  247.73   13.69
  -9   0 -19   -1.99    1.50
  -9   0  19    0.80    1.50
  -9   0 -20   49.53    4.70
  -9   0  20   43.29    6.10
  -9   0 -21    0.04    0.89
  -9   0  21    0.50    1.75
  -9   0 -22   14.01    2.79
  -9   0  22   14.29    3.43
  -9   0 -23    2.50    1.45
  -9  -1  -1    0.30    0.51
  -9   1  -1    0.80    0.52
  -9   1   2   74.30    3.69
  -9   1  -2   71.96    3.55
  -9  -1  -2   66.26    3.59
  -9   1   3   98.57    4.39
  -9   1  -3   95.71    4.16
  -9  -1  -3   94.86    4.25
  -9  -1   4  111.58    4.78
  -9   1   4  112.92    4.98
  -9  -1  -4  108.96    4.63
  -9   1  -4  113.32    4.51
  -9  -1   5   36.19    2.84
  -9   1   5   44.25    3.22
  -9   1  -5   43.69    2.78
  -9  -1  -5   40.61    2.84
  -9   1   6   20.81    2.35
  -9  -1   6   20.45    2.27
  -9  -1  -6   22.88    2.18
  -9   1  -6   20.02    1.97
   9   1   7    3.50    0.86
  -9  -1   7    4.61    1.16
  -9   1   7    4.16    1.34
  -9  -1  -7    3.98    1.04
  -9   1  -7    1.46    0.64
  -9   1   8   14.96    2.26
  -9  -1   8   15.07    2.12
   9  -1   8   17.69    1.88
   9   1   8   16.85    1.92
  -9  -1  -8   14.41    1.80
  -9   1  -8   15.85    1.80
  -9   1   9   18.56    2.63
  -9  -1   9   19.63    2.65
   9   1   9   20.50    2.15
  -9   1  -9   19.40    2.04
  -9  -1  -9   17.94    2.06
   9  -1   9   18.24    1.91
  -9   1  10   39.36    3.94
  -9  -1  10   42.30    3.92
  -9   1 -10   40.36    3.06
   9  -1  10   41.40    3.01
  -9  -1 -10   44.70    3.30
  -9  -1  11   92.14    6.03
  -9   1  11   89.82    6.23
  -9   1 -11   83.21    4.51
  -9  -1 -11   90.97    4.89
   9  -1  11   84.84    4.48
  -9  -1  12    3.36    1.05
  -9   1  12    4.91    1.85
  -9   1 -12    7.06    1.48
  -9  -1 -12    8.11    1.52
  -9  -1 -13    2.35    0.93
  -9   1 -13    1.39    0.88
  -9  -1  13    0.06    0.96
  -9   1  13    1.27    1.49
  -9   1 -14   42.59    3.49
  -9  -1 -14   41.64    3.68
  -9   1  14   43.43    4.93
  -9  -1  14   38.82    4.77
  -9   1 -15   93.51    5.45
  -9  -1 -15   89.51    5.57
  -9  -1  15   84.44    7.24
  -9   1  15   84.27    7.11
  -9  -1 -16   77.69    5.32
  -9   1 -16   73.14    5.03
  -9  -1  16   74.34    6.76
  -9   1  16   81.00    7.40
  -9   1 -17   15.17    2.60
  -9  -1 -17   13.59    2.43
  -9   1  17   13.73    3.09
  -9  -1  17   13.21    3.13
  -9   1 -18   24.72    3.10
  -9  -1 -18   25.45    3.32
  -9  -1  18   24.13    4.33
  -9   1  18   27.50    4.54
  -9   1 -19    2.42    1.14
  -9  -1 -19   -1.28    1.54
  -9  -1  19    4.31    2.18
  -9   1  19   -0.03    1.41
  -9   1 -20   17.11    3.16
  -9  -1 -20   21.15    3.13
  -9  -1  20   16.63    3.84
  -9   1  20   19.45    4.17
  -9   1 -21    1.01    0.90
  -9  -1 -21    0.72    0.97
  -9   1  21    4.00    2.09
  -9  -1  21    4.02    2.28
  -9   1 -22    4.88    1.86
  -9  -1 -22    4.18    1.79
  -9  -1  22   -0.65    1.19
  -9   1  22    6.00    2.75
  -9   1 -23   -0.31    0.83
  -9  -2   0   -1.00    0.84
  -9   2   1  973.77   16.17
  -9  -2  -1  975.42   16.60
  -9   2   2  243.74    7.06
  -9  -2  -2  226.64    6.96
  -9   2  -2  253.42    6.85
  -9   2  -3    6.31    1.10
  -9   2   3    8.01    1.35
  -9  -2  -3    5.35    1.00
  -9  -2   4  137.38    5.29
  -9   2   4  133.94    5.62
  -9  -2  -4  130.23    5.16
  -9   2  -4  136.66    4.91
  -9  -2   5  929.20   16.83
  -9   2   5  927.01   17.71
  -9   2  -5  954.66   15.66
  -9  -2  -5  932.43   16.49
  -9  -2   6   19.07    2.14
  -9   2   6   20.13    2.41
  -9  -2  -6   20.48    2.07
  -9   2  -6   20.25    1.89
  -9   2   7  101.41    5.59
  -9  -2   7   97.18    5.01
   9   2   7  102.29    4.64
  -9  -2  -7  104.28    4.81
  -9   2  -7  106.30    4.47
  -9   2   8    7.16    1.79
   9   2   8    6.02    1.12
  -9  -2   8    6.72    1.50
  -9  -2  -8    6.57    1.28
  -9   2  -8    6.39    1.10
  -9  -2   9  125.04    6.22
  -9   2   9  135.29    7.20
   9  -2   9  134.73    5.19
  -9   2  -9  128.81    5.21
  -9  -2  -9  129.53    5.65
  -9   2  10   13.08    2.44
   9  -2  10   10.09    1.39
  -9  -2  10   13.37    2.28
  -9   2 -10   12.57    1.72
  -9  -2 -10   13.55    1.90
  -9  -2  11  657.88   16.95
  -9   2  11  672.87   18.59
  -9  -2 -11  670.95   14.89
  -9   2 -11  653.56   13.94
   9  -2  11  690.27   13.84
  -9  -2  12    3.25    1.17
  -9   2  12    1.61    1.37
   9  -2  12    3.88    0.99
  -9  -2 -12    3.54    1.01
  -9   2 -12    4.08    1.17
  -9  -2 -13    5.84    1.50
  -9   2 -13    2.92    1.03
  -9  -2  13    4.93    1.67
  -9   2  13    4.13    2.28
  -9  -2 -14    0.22    0.65
  -9   2 -14    0.29    0.72
  -9  -2  14    0.67    1.21
  -9   2  14    0.35    1.51
  -9  -2 -15  590.94   15.34
  -9   2 -15  559.83   14.13
  -9  -2  15  563.05   18.48
  -9   2  15  562.92   19.53
  -9  -2 -16    0.74    0.96
  -9   2 -16    1.42    0.78
  -9   2  16    2.03    1.77
  -9  -2  16    0.50    1.43
  -9   2 -17  166.59    7.75
  -9  -2 -17  177.74    8.45
  -9  -2  17  159.26   10.48
  -9   2  17  184.29   11.41
  -9   2 -18    4.59    1.27
  -9  -2 -18    2.25    0.94
  -9  -2  18    2.23    1.92
  -9   2  18    2.86    1.84
  -9   2 -19   35.43    3.76
  -9  -2 -19   41.23    4.39
  -9  -2  19   44.55    6.03
  -9   2  19   42.20    5.76
  -9  -2 -20   -1.09    1.35
  -9   2 -20   -0.44    0.95
  -9   2  20    0.54    1.65
  -9  -2  20   -0.68    1.59
  -9   2 -21  130.75    7.67
  -9  -2 -21  137.36    8.30
  -9   2  21  139.69   10.75
  -9  -2  21  130.23   10.23
  -9   2 -22   -0.76    1.20
  -9  -2 -22   -1.93    1.58
  -9  -2  22    1.33    1.27
  -9   2 -23   46.88    4.85
  -9  -3   0    0.05    0.54
  -9   3   0    0.54    0.67
  -9  -3  -1    0.75    0.56
  -9  -3   1    1.41    0.70
  -9   3   1    0.16    0.54
  -9   3  -2    6.65    1.14
  -9   3   2    7.10    1.28
  -9  -3  -2    8.05    1.37
  -9   3  -3    5.45    1.00
  -9   3   3    4.02    1.04
  -9  -3  -3    6.28    1.11
  -9   3   4  177.42    6.75
  -9  -3  -4  182.55    6.28
  -9   3  -4  183.54    5.65
  -9  -3   5   17.41    1.96
  -9   3   5   20.41    2.44
  -9   3  -5   20.32    1.81
  -9  -3  -5   15.48    1.82
  -9  -3   6   58.77    3.66
  -9   3   6   66.19    4.41
  -9  -3  -6   61.12    3.68
  -9   3  -6   60.31    3.18
  -9   3   7    9.68    1.73
   9   3   7   12.36    1.70
  -9  -3   7   11.73    1.84
  -9   3  -7   11.14    1.45
  -9  -3  -7   12.99    1.79
  -9   3   8    5.48    1.46
  -9  -3   8    4.40    1.17
  -9   3  -8    4.09    0.97
  -9  -3  -8    3.20    1.01
  -9   3   9    2.46    1.12
  -9  -3   9    2.06    0.84
  -9   3  -9    4.10    1.04
  -9  -3  -9    3.70    1.06
  -9   3  10    0.44    0.97
  -9  -3  10    1.30    1.08
   9  -3  10    0.16    0.48
  -9   3 -10   -0.10    0.59
  -9  -3 -10   -0.59    0.68
  -9   3  11    6.37    1.88
  -9  -3  11    4.67    1.44
   9  -3  11    5.07    1.10
  -9  -3 -11    5.16    1.19
  -9   3 -11    6.35    1.29
  -9  -3  12   59.77    5.01
  -9   3  12   67.98    6.07
  -9  -3 -12   60.06    4.31
  -9   3 -12   57.86    3.77
   9  -3  12   64.81    3.81
  -9  -3  13   36.53    4.18
  -9   3  13   43.14    5.04
  -9   3 -13   38.47    3.17
  -9  -3 -13   37.13    3.49
   9  -3  13   39.46    3.05
  -9  -3  14  263.03   11.63
  -9   3 -14  270.87    8.96
  -9  -3 -14  260.56    9.70
  -9   3  14  280.74   13.18
  -9  -3 -15   75.00    5.23
  -9   3 -15   74.04    4.72
  -9  -3  15   76.69    6.43
  -9   3  15   71.21    6.88
  -9  -3 -16    3.24    1.38
  -9   3 -16    1.90    1.03
  -9   3  16    0.54    1.65
  -9  -3  16   -0.38    1.38
  -9   3 -17    0.62    0.83
  -9  -3 -17    1.08    1.06
  -9   3  17    1.58    1.32
  -9  -3  17    1.77    1.14
  -9   3 -18   64.26    4.78
  -9  -3 -18   64.49    5.31
  -9  -3  18   59.40    6.28
  -9   3  18   65.14    7.00
  -9  -3 -19    4.28    1.60
  -9   3 -19    4.97    1.52
  -9   3  19    3.37    2.11
  -9  -3  19    3.85    1.78
  -9  -3 -20   17.95    2.88
  -9   3 -20   15.36    2.52
  -9  -3  20   16.36    3.71
  -9   3  20   15.12    3.66
  -9   3 -21    4.35    1.64
  -9  -3 -21    3.20    1.48
  -9  -3  21    1.07    1.75
  -9   3  21    0.97    1.72
  -9   3 -22    3.67    1.44
  -9  -3  22   -0.91    1.82
  -9   3 -23    1.54    1.24
  -9   3 -24   16.37    2.91
  -9  -4   0    0.84    0.57
  -9   4   0    0.11    0.45
  -9  -4  -1    3.23    0.93
  -9  -4   1    3.37    0.97
  -9   4   1    3.43    0.85
  -9   4  -1    2.26    0.68
  -9   4   2  566.86   12.34
  -9  -4  -2  569.24   12.08
  -9   4  -2  564.14   10.81
  -9   4   3   84.96    4.49
  -9  -4  -3   78.39    4.06
  -9   4  -3   88.25    3.70
  -9   4   4  608.32   13.91
  -9   4  -4  598.83   11.20
  -9  -4  -4  611.53   12.77
  -9  -4   5   67.14    3.88
  -9   4   5   72.84    4.66
  -9  -4  -5   68.86    3.90
  -9   4  -5   77.07    3.46
  -9  -4   6  155.51    6.08
  -9   4   6  148.28    7.06
  -9  -4  -6  145.43    5.90
  -9   4  -6  157.57    5.14
  -9   4   7   19.46    2.75
  -9  -4   7   24.04    2.46
  -9   4  -7   16.21    1.63
  -9  -4  -7   20.00    2.24
   9  -4  -8  621.64   13.37
  -9   4   8  578.20   16.25
  -9  -4   8  580.49   13.64
  -9   4  -8  588.14   11.61
  -9  -4  -8  567.68   13.21
  -9  -4   9   18.85    2.37
  -9   4   9   22.05    3.23
  -9   4  -9   20.48    1.97
  -9  -4  -9   22.01    2.49
  -9  -4  10   73.88    4.93
  -9   4 -10   71.33    3.81
  -9  -4 -10   74.42    4.55
  -9   4  10   71.47    5.94
   9  -4  11   43.83    2.92
  -9  -4  11   32.35    3.64
  -9   4  11   43.49    4.76
  -9   4 -11   41.59    3.05
  -9  -4 -11   42.73    3.59
  -9  -4  12  337.33   12.10
  -9   4  12  326.41   13.86
  -9  -4 -12  331.39   10.69
  -9   4 -12  332.15    9.25
   9  -4  12  337.69    8.90
   9  -4  13    3.46    0.94
  -9   4 -13    1.65    0.55
  -9  -4 -13    5.37    1.55
  -9   4  13    5.28    2.18
  -9  -4  13    1.98    1.14
  -9  -4  14  442.61   15.27
  -9  -4 -14  453.21   13.33
  -9   4 -14  433.57   11.44
  -9   4  14  464.81   17.60
  -9   4 -15   18.38    2.27
  -9  -4 -15   18.36    2.72
  -9  -4  15   15.89    3.15
  -9   4  15   18.95    3.73
  -9  -4 -16   44.01    4.25
  -9   4 -16   43.70    3.67
  -9  -4  16   44.25    5.37
  -9   4  16   44.96    5.76
  -9  -4 -17    0.53    0.87
  -9   4 -17   -1.42    0.93
  -9  -4  17   -0.85    1.37
  -9   4  17   -1.81    1.29
  -9   4 -18   95.17    5.70
  -9  -4 -18   94.93    6.53
  -9  -4  18   82.91    7.79
  -9   4  18   93.70    8.41
  -9  -4 -19    8.14    1.93
  -9   4 -19    6.99    1.50
  -9  -4  19   12.60    3.24
  -9   4  19   10.47    3.13
  -9   4 -20   62.73    4.90
  -9  -4 -20   70.77    5.89
  -9   4  20   64.08    7.07
  -9  -4  20   57.62    6.81
  -9   4 -21   -0.10    1.01
  -9  -4  21    0.66    1.70
  -9   4 -22   18.57    2.85
  -9  -4  22   22.19    4.44
  -9   4 -23    2.04    1.39
  -9  -5   0   -0.44    0.70
  -9   5   0   -0.53    0.60
  -9   5   1  210.68    6.97
  -9   5  -1  212.95    6.39
  -9  -5   1  198.25    6.71
  -9  -5  -1  208.19    6.91
  -9   5   2   13.02    1.80
  -9   5  -2   13.11    1.40
  -9  -5   2   12.59    1.66
  -9   5  -2   12.79    1.46
  -9  -5  -2   14.63    1.84
  -9   5  -3    6.66    1.06
  -9   5   3    8.10    1.63
  -9   5  -3    5.94    0.94
  -9  -5  -3    3.16    0.91
  -9   5   4   17.14    2.23
  -9   5  -4   16.56    1.54
  -9  -5  -4   15.76    1.93
  -9  -5   5  119.21    5.17
  -9   5   5  134.21    6.73
  -9  -5  -5  116.27    5.31
  -9   5  -5  120.85    4.28
  -9   5   6    0.82    0.84
  -9  -5   6    0.79    0.66
  -9   5  -6   -0.53    0.43
  -9  -5  -6   -0.15    0.62
  -9   5   7   19.51    2.95
  -9  -5   7   14.83    1.90
  -9   5  -7   18.15    1.68
  -9  -5  -7   16.81    2.08
  -9   5   8   17.73    2.86
  -9  -5   8   18.10    2.27
  -9  -5  -8   17.65    2.20
  -9   5  -8   15.67    1.64
  -9  -5   9   92.81    5.31
  -9   5   9  107.95    7.21
  -9   5  -9  102.50    4.31
  -9  -5  -9   95.71    5.23
  -9  -5  10   22.46    2.69
  -9   5  10   29.72    4.10
  -9   5 -10   25.51    2.22
  -9  -5 -10   24.44    2.69
  -9  -5  11   25.64    3.12
  -9   5  11   31.09    4.23
  -9   5 -11   28.27    2.41
  -9  -5 -11   23.16    2.76
   9  -5  12    2.87    0.82
  -9   5  12    8.01    2.62
  -9  -5  12    1.86    1.12
  -9   5 -12    2.89    0.94
  -9  -5 -12    2.38    1.06
   9  -5  13    3.72    0.95
  -9  -5  13    3.57    1.49
  -9   5  13    1.37    1.13
  -9  -5 -13    4.62    1.50
  -9   5 -13    0.89    0.58
  -9  -5  14   23.96    3.61
  -9   5  14   29.82    4.55
  -9  -5 -14   30.08    3.40
  -9   5 -14   29.77    2.77
   9  -5  14   25.09    2.38
  -9  -5  15   -0.13    1.23
  -9   5  15    0.62    1.70
  -9   5 -15    0.45    0.59
  -9  -5 -15    0.51    0.88
  -9  -5  16   13.62    3.23
  -9   5  16   22.91    4.34
  -9   5 -16   18.41    2.39
  -9  -5 -16   22.14    3.07
  -9   5  17    0.58    1.88
  -9  -5  17   -3.13    2.22
  -9  -5 -17    2.14    1.33
  -9   5 -17   -0.40    0.62
  -9   5  18   15.27    3.75
  -9  -5  18    8.30    2.61
  -9  -5 -18   10.73    2.26
  -9   5 -18   10.69    1.92
  -9  -5  19    4.21    1.85
  -9   5  19   13.93    3.63
  -9  -5 -19    9.12    2.12
  -9   5 -19    5.97    1.40
  -9   5  20    2.50    2.23
  -9  -5  20   -1.91    1.79
  -9  -5 -20    1.23    1.39
  -9   5 -20    1.35    0.82
  -9  -5  21    4.28    2.55
  -9   5 -21    2.90    1.15
  -9  -5  22    4.17    2.57
  -9  -5  23   23.85    4.81
  -9   6   0   -0.09    0.54
  -9  -6   0   -0.33    0.62
  -9   6  -1  558.96   10.42
  -9   6   1  548.12   12.56
  -9   6  -1  564.17   11.71
  -9  -6   1  546.35   12.11
  -9  -6  -1  537.50   12.08
  -9   6   2   19.27    2.34
  -9  -6   2   17.17    2.00
  -9   6  -2   17.73    1.78
  -9  -6  -2   13.87    1.78
  -9   6  -2   17.14    1.58
  -9   6   3    2.91    1.03
  -9   6  -3    4.61    0.97
  -9  -6   3    4.24    1.08
  -9   6  -3    4.21    0.77
  -9  -6  -3    1.55    0.65
  -9   6   4    6.27    1.64
  -9   6  -4    2.93    0.72
  -9   6  -4    4.64    0.86
  -9  -6  -4    4.01    1.09
  -9   6   5  517.40   14.47
  -9   6  -5  502.30    9.73
  -9  -6  -5  517.46   12.19
  -9   6  -5  504.41    9.51
  -9   6   6   19.13    2.86
  -9  -6   6   22.53    2.38
  -9   6  -6   19.70    1.63
  -9  -6  -6   18.34    2.20
  -9   6   7  172.83    8.84
   9  -6  -7  187.87    6.80
  -9  -6   7  181.42    6.91
  -9   6  -7  172.59    5.20
  -9  -6  -7  177.33    7.04
  -9  -6   8   20.53    2.44
  -9   6   8   15.66    2.85
  -9   6  -8   15.83    1.55
  -9  -6  -8   19.31    2.40
  -9  -6   9  145.97    6.66
  -9   6   9  148.32    8.72
  -9   6  -9  147.63    5.08
  -9  -6  -9  129.75    6.33
  -9  -6  10   14.39    2.18
  -9   6  10   13.67    2.85
  -9   6 -10   13.13    1.56
  -9  -6 -10   13.32    2.10
  -9  -6  11  225.43    9.22
  -9   6 -11  220.01    6.78
  -9  -6 -11  227.09    8.85
  -9   6  11  229.54   11.67
  -9  -6  12   37.55    3.84
  -9   6 -12   45.65    3.05
  -9  -6 -12   48.93    4.22
  -9   6  12   46.07    5.46
  -9  -6  13   92.85    6.52
  -9  -6 -13   96.04    6.00
  -9   6 -13   98.60    4.71
  -9   6  13  105.83    8.27
   9  -6  14   15.59    1.85
  -9   6 -14   14.65    1.96
  -9  -6 -14   14.63    2.41
  -9  -6  14   15.24    2.86
  -9   6  14   16.09    3.22
  -9  -6  15  117.08    7.78
  -9   6  15  116.59    9.05
  -9  -6 -15  112.78    6.88
  -9   6 -15  107.97    5.29
  -9   6  16    6.03    2.40
  -9  -6  16    3.80    2.21
  -9   6 -16    5.18    1.41
  -9  -6 -16    5.58    1.76
  -9  -6  17  207.68   11.69
  -9   6  17  239.27   13.60
  -9   6 -17  228.42    8.27
  -9  -6 -17  236.87   10.60
  -9  -6  18   -0.14    1.51
  -9   6  18    0.41    1.58
  -9  -6 -18   -0.19    1.19
  -9   6 -18   -0.57    0.99
  -9  -6  19    4.43    2.38
  -9   6  19    5.63    2.74
  -9  -6 -19    8.64    2.23
  -9   6 -19    7.46    1.70
  -9  -6  20    3.62    1.89
  -9   6 -20    4.17    1.13
  -9  -6  21  112.99    9.57
  -9  -6  22    5.54    2.46
  -9  -6  23   35.63    5.57
  -9   7   0   -0.33    0.64
  -9  -7   0    0.16    0.57
  -9   7   1   11.04    1.83
  -9   7  -1   11.05    1.66
  -9   7  -1   11.15    1.23
  -9  -7  -1    9.47    1.57
  -9  -7   1   14.08    1.86
  -9   7   2   -1.29    0.81
  -9  -7   2    1.08    0.76
  -9   7  -2    0.17    0.48
  -9   7  -2    0.32    0.36
  -9  -7  -2    0.85    0.68
  -9   7   3  131.64    6.68
  -9   7  -3  128.09    4.91
  -9   7  -3  129.71    4.11
  -9  -7   3  134.93    5.68
  -9  -7  -3  123.10    5.54
  -9   7   4    5.56    1.59
  -9  -7   4   11.53    1.70
  -9   7  -4    8.35    1.18
  -9  -7  -4    9.73    1.64
  -9   7  -4    7.59    0.97
  -9   7   5    8.47    1.99
  -9   7  -5   13.24    1.49
  -9  -7  -5   12.34    1.82
  -9   7  -5   11.54    1.17
  -9   7   6   50.22    4.62
  -9  -7   6   53.15    3.67
  -9   7  -6   58.52    2.83
  -9  -7  -6   57.44    3.97
  -9   7  -6   53.23    2.61
   9  -7  -7   46.57    3.37
  -9   7  -7   40.01    2.36
  -9  -7   7   45.59    3.48
  -9   7   7   42.06    4.38
  -9   7  -7   44.56    2.41
  -9  -7  -7   50.15    3.80
  -9   7   8    4.83    1.78
  -9  -7   8    3.95    1.29
  -9  -7  -8    3.74    1.17
  -9   7  -8    3.59    0.77
  -9  -7   9   61.28    4.39
  -9   7   9   64.37    5.88
  -9   7  -9   67.05    3.19
  -9  -7  -9   65.39    4.53
  -9  -7  10    1.29    0.99
  -9   7  10    2.90    1.76
  -9   7 -10    2.77    0.68
  -9  -7 -10    0.75    0.74
  -9  -7  11   32.95    3.63
  -9  -7 -11   34.90    3.53
  -9   7 -11   25.17    2.08
  -9   7  11   24.92    4.04
  -9  -7  12    2.55    1.21
  -9   7  12    9.14    2.68
  -9   7 -12    7.52    1.27
  -9  -7 -12   10.13    2.15
  -9  -7  13    0.02    1.01
  -9   7  13    0.16    1.40
  -9  -7 -13    0.04    1.16
  -9   7 -13    0.42    0.52
  -9  -7  14    0.77    1.28
  -9   7  14    1.54    1.22
  -9  -7 -14    4.03    1.62
  -9   7 -14    2.82    0.93
  -9  -7  15    3.36    1.52
  -9   7  15    2.80    1.76
  -9  -7 -15    5.83    1.78
  -9   7 -15    4.38    1.01
  -9  -7  16    1.26    1.13
  -9   7  16    1.35    1.63
  -9   7 -16    1.90    0.77
  -9  -7 -16    1.24    1.10
  -9   7  17    2.58    1.71
  -9  -7  17    1.06    1.29
  -9  -7 -17   -0.22    0.90
  -9   7  18   30.23    4.86
  -9  -7  18   18.11    3.82
  -9  -7 -18   30.27    3.90
  -9  -7  19    1.40    1.71
  -9   7  19    1.45    2.17
  -9  -7  20    5.67    2.79
  -9  -7  21    7.81    2.75
  -9  -7  22    7.23    2.77
  -9   8   0    0.54    0.68
  -9  -8   0   -0.64    0.68
  -9   8   1   57.98    4.26
  -9   8  -1   59.08    3.87
  -9  -8   1   51.74    3.50
  -9   8  -1   53.55    2.57
  -9  -8  -1   48.50    3.46
  -9   8   2  260.59    9.61
  -9   8  -2  273.70    8.18
  -9  -8  -2  258.57    8.33
  -9  -8   2  261.86    8.24
  -9   8  -2  267.51    6.04
  -9   8   3   22.89    2.97
  -9   8  -3   21.57    2.03
  -9  -8   3   19.44    2.20
  -9   8  -3   23.72    1.57
  -9  -8  -3   18.20    2.19
  -9   8   4  191.50    8.83
  -9   8  -4  209.30    6.30
  -9  -8   4  203.15    7.28
  -9  -8  -4  193.07    7.33
  -9   8  -4  197.13    4.90
  -9   8   5   42.87    4.35
  -9   8  -5   44.90    2.69
  -9   8  -5   43.26    2.13
  -9  -8  -5   42.60    3.45
  -9  -8   5   39.37    3.11
  -9   8  -6   73.89    3.32
  -9  -8   6   80.74    4.54
  -9  -8   6   80.86    4.56
  -9   8   6   69.28    5.69
  -9   8  -6   73.28    2.84
  -9  -8  -6   74.02    4.68
  -9   8   7   -0.58    1.12
  -9   8  -7    4.76    0.88
  -9  -8   7    4.41    1.10
  -9  -8  -7    1.98    0.81
  -9   8  -7    2.21    0.53
  -9  -8   8  372.78   10.86
  -9   8  -8  361.88    7.50
  -9   8   8  343.82   13.74
  -9   8  -8  346.70    7.26
  -9  -8  -8  341.93   10.86
  -9  -8   9    4.84    1.26
  -9   8  -9    6.64    0.86
  -9   8   9    8.08    2.29
  -9   8  -9    4.87    0.80
  -9  -8  -9    6.06    1.58
  -9  -8  10   37.03    3.54
  -9   8 -10   36.07    2.07
  -9  -8 -10   38.04    3.66
  -9   8 -10   38.18    2.28
  -9   8  10   39.99    4.87
  -9  -8  11   63.26    4.92
  -9   8 -11   75.21    3.38
  -9  -8 -11   67.46    5.05
  -9   8  11   69.44    6.47
  -9  -8  12   94.38    6.13
  -9   8 -12   91.37    3.89
  -9  -8 -12   90.92    6.00
  -9   8  12   83.55    7.56
  -9   8 -13    4.70    1.04
  -9  -8 -13    6.03    1.95
  -9  -8  13    3.75    1.49
  -9   8  13    2.30    1.51
  -9  -8  14  181.51    9.48
  -9   8  14  194.33   11.69
  -9  -8 -14  200.96    9.43
  -9   8  15    1.28    1.24
  -9  -8  15    4.11    1.64
  -9  -8 -15   -1.90    1.48
  -9  -8  16   17.24    3.28
  -9   8  16   15.98    3.61
  -9  -8 -16   18.79    3.02
  -9  -8  17   13.12    2.80
  -9   8  17   15.74    3.53
  -9  -8 -17   12.42    2.51
  -9   8  18  146.03   10.79
  -9  -8  18  133.09    9.24
  -9  -8  19    0.07    1.44
  -9   9   0    0.39    0.81
  -9   9   0    0.06    0.34
  -9  -9   0   -0.54    0.71
  -9   9  -1   23.77    2.61
  -9   9   1   26.97    2.99
  -9  -9   1   18.42    2.17
  -9  -9  -1   18.41    2.21
  -9   9  -1   24.02    1.62
  -9   9  -2   21.92    2.33
  -9   9   2   25.72    3.08
  -9  -9  -2   15.52    2.04
  -9   9  -2   22.70    1.49
  -9  -9   2   14.34    1.97
  -9   9   3   11.24    2.17
  -9   9  -3   10.98    1.57
  -9   9  -3   12.30    1.07
  -9  -9  -3   10.90    1.81
  -9  -9   3    9.38    1.57
  -9   9   4    1.74    0.95
  -9   9  -4    4.43    0.94
  -9  -9   4    3.35    1.08
  -9   9  -4    3.61    0.58
  -9  -9  -4    2.51    0.96
  -9  -9   5   20.99    2.38
  -9   9  -5   18.08    1.64
  -9   9   5   18.07    2.91
  -9   9  -5   20.24    1.27
  -9   9   5   16.25    1.95
  -9  -9  -5   23.03    2.72
  -9  -9   6    0.99    0.75
  -9  -9   6    0.67    0.72
  -9   9  -6   -0.11    0.38
  -9   9   6    1.84    1.26
  -9   9  -6    0.74    0.34
  -9   9   6    0.38    0.55
  -9  -9  -6    3.08    1.28
  -9  -9   7    7.95    1.48
  -9  -9   7    7.30    1.55
  -9   9   7    7.16    2.15
  -9   9  -7    7.23    1.04
  -9   9   7    7.30    1.37
  -9   9  -7    8.08    0.87
  -9  -9  -7    7.06    1.54
  -9  -9   8   46.89    3.75
  -9  -9   8   45.76    3.53
  -9   9  -8   48.78    2.05
  -9  -9  -8   45.79    4.02
  -9   9   8   53.08    5.24
  -9  -9   9   42.16    3.60
  -9  -9  -9   33.88    3.55
  -9   9   9   41.36    4.77
  -9  -9  10    1.80    0.97
  -9  -9 -10    2.07    1.19
  -9   9  10    1.51    1.67
  -9  -9  11    1.18    0.88
  -9   9  11    2.63    1.44
  -9  -9 -11    4.99    1.73
  -9   9  12    5.40    2.19
  -9  -9  12    5.42    1.60
  -9  -9 -12    3.82    1.40
  -9  -9  13   -1.17    1.57
  -9   9  13    2.39    2.01
  -9  -9 -13   -0.71    1.07
  -9  -9  14    2.35    1.45
  -9   9  14   -0.45    1.44
  -9  -9 -14    3.28    1.45
  -9   9  15   10.59    2.64
  -9  -9  15    8.18    2.15
  -9  -9 -15    8.27    2.23
  -9   9  16    1.95    1.86
  -9  -9  16   -1.33    1.50
  -9  -9 -16   -1.43    1.10
  -9   9  17    2.33    1.60
  -9  -9  17    1.58    1.85
  -9  10   0    0.41    0.64
  -9  10   0    0.49    0.43
  -9 -10   0   -0.25    0.77
  -9  10   1  165.03    7.10
  -9  10  -1  159.39    6.27
  -9  10  -1  170.35    4.08
  -9 -10  -1  161.21    6.68
  -9 -10   1  161.76    6.52
  -9  10   2  127.63    6.51
  -9  10  -2  117.47    4.93
  -9 -10  -2  110.86    5.57
  -9  10  -2  117.63    3.04
  -9 -10   2  110.27    5.31
  -9  10  -3   10.05    1.34
  -9  10   3    8.79    1.72
  -9 -10   3    9.24    1.56
  -9 -10  -3    8.44    1.69
  -9  10   4   10.70    2.15
  -9 -10   4    7.69    1.40
  -9 -10  -4    7.09    1.58
  -9 -10   5  327.97    9.66
  -9  10   5  323.64   11.98
  -9 -10  -5  308.23   10.15
  -9 -10   5  300.53    9.17
  -9  10   6   -0.50    1.02
  -9 -10   6    1.20    0.79
  -9 -10   6    1.71    0.73
  -9 -10  -6    1.50    0.86
  -9  10   7   24.21    3.52
  -9 -10   7   19.28    2.29
  -9 -10   7   24.07    2.62
  -9 -10  -7   22.18    2.82
  -9  10   8   14.91    2.98
  -9 -10   8   13.72    1.96
  -9 -10   8   15.15    2.24
  -9 -10  -8   16.37    2.43
  -9 -10   9   46.83    3.83
  -9  10   9   37.95    4.62
  -9 -10  -9   44.82    4.16
  -9 -10   9   46.09    3.54
  -9 -10  10   12.72    2.04
  -9 -10  10   11.00    2.10
  -9 -10 -10   12.37    2.38
  -9  10  10   14.03    3.01
  -9 -10  11  171.90    8.04
  -9  10  11  157.27    9.74
  -9 -10 -11  168.46    8.50
  -9  10  12    8.36    2.62
  -9 -10  12    7.07    1.77
  -9 -10 -12    6.67    1.79
  -9 -10  13    3.05    1.20
  -9  10  13    2.55    2.28
  -9 -10 -13    3.57    1.43
  -9 -10  14    9.15    2.37
  -9  10  14    6.69    3.13
  -9 -10 -14   15.23    2.80
  -9 -10 -15  123.94    7.98
  -9 -11   0   -0.26    0.57
  -9 -11   1    1.60    0.85
  -9 -11  -1    1.55    0.85
  -9  11   2   27.22    2.86
  -9 -11  -2   23.10    2.60
  -9 -11   2   22.75    2.46
  -9  11   3    9.21    1.86
  -9 -11  -3    6.86    1.54
  -9 -11   3    7.02    1.41
  -9  11   4    3.31    1.29
  -9 -11   4   -0.37    0.71
  -9 -11  -4    1.44    0.95
  -9  11   5    8.56    1.85
  -9 -11   5    9.71    1.70
  -9 -11  -5    5.40    1.47
  -9 -11   5    5.54    1.22
  -9  11   6    4.78    1.63
  -9 -11   6    2.13    0.86
  -9 -11   6    1.48    0.56
  -9 -11  -6    2.67    0.84
  -9  11   7   -1.21    1.19
  -9 -11   7   -0.03    0.71
  -9 -11  -7   -0.14    0.73
  -9 -11   7   -0.24    0.65
  -9 -11   8   13.16    1.90
  -9 -11   8   12.39    2.07
  -9 -11  -8   11.08    2.17
  -9  11   8   12.62    2.86
  -9 -11   9    8.90    1.62
  -9 -11   9    5.14    1.41
  -9 -11  -9   11.53    2.31
  -9  11   9    7.88    2.69
  -9 -11  10   -0.42    0.69
  -9 -11  10    0.67    0.63
  -9 -11 -10    1.21    1.07
  -9 -11  11    0.59    0.60
  -9 -11 -11   -1.03    1.05
  -9 -11 -12    2.89    1.41
  -9 -11 -13    0.94    1.33
  -9 -11 -14   21.56    3.41
  -9 -12   0    0.47    0.62
  -9 -12  -1   25.96    2.74
  -9 -12   1   28.03    2.76
  -9 -12   2   64.77    4.16
  -9 -12  -2   71.36    4.62
  -9 -12   3   -0.62    0.90
  -9 -12  -3    0.40    0.63
  -9 -12  -4   77.62    5.06
  -9 -12   4   82.84    4.49
  -9 -12   5   62.44    4.17
  -9 -12  -5   66.66    4.80
  -9 -12   5   61.09    3.84
  -9 -12   6   26.32    2.67
  -9 -12  -6   28.13    3.15
  -9 -12   6   29.78    2.70
  -9 -12  -7    5.17    1.49
  -9 -12  -8  101.51    6.38
  -9 -12  -9    9.31    2.13
  -9 -12 -10   30.47    3.65
  -9 -12 -11   15.72    2.83
  -9 -12 -12   52.81    5.09
  -9 -12 -13   -2.42    1.26
  -9 -13   0   -0.56    0.68
  -9 -13  -1    9.67    1.81
  -9 -13  -2    5.91    1.47
  -9 -13  -3    5.46    1.48
  -9 -13  -4    1.90    0.81
  -9 -13  -5    7.50    1.85
  -9 -13  -6    4.22    1.37
  -9 -13  -7    1.21    1.09
  -9 -13  -8    5.56    1.58
  -9 -13  -9   -0.23    0.92
  -9 -13 -10   40.49    4.27
  -9 -13 -11    0.27    0.88
  -9 -13 -12    3.23    1.73
 -10   0  -1    0.35    0.60
 -10   0  -2  313.24    8.52
 -10   0  -3    0.35    0.65
 -10   0   3    0.01    0.52
 -10   0   4  765.01   15.09
 -10   0  -4  775.74   14.61
 -10   0   5    0.26    0.86
 -10   0  -5   -0.93    0.77
 -10   0   6  785.86   16.32
 -10   0  -6  798.44   15.11
 -10   0   7   -0.83    1.07
 -10   0  -7   -0.34    0.60
 -10   0   8   19.08    2.48
 -10   0  -8   17.91    2.06
 -10   0   9    1.13    0.97
 -10   0  -9    1.36    0.87
 -10   0  10  148.26    7.84
 -10   0 -10  162.16    6.56
 -10   0  11   -0.20    0.93
 -10   0 -11   -1.24    0.82
 -10   0  12  158.44    8.73
 -10   0 -12  143.66    6.54
 -10   0  13    0.35    1.17
 -10   0 -13   -0.93    1.07
 -10   0 -14  186.81    8.00
 -10   0  14  198.20   10.63
 -10   0 -15   -1.01    0.84
 -10   0  15   -0.02    1.47
 -10   0 -16   42.06    3.99
 -10   0  16   37.33    5.05
 -10   0 -17   -1.03    1.21
 -10   0  17    1.07    1.62
 -10   0 -18   27.05    3.42
 -10   0  18   27.66    4.78
 -10   0 -19    0.62    0.99
 -10   0  19    1.70    2.02
 -10   0 -20   42.76    4.45
 -10   0  20   48.19    6.38
 -10   0 -21   -1.74    1.58
 -10   0  21   -1.84    2.16
 -10   0 -22  118.66    7.86
 -10  -1   0   41.72    3.03
 -10   1  -1    1.78    0.72
 -10  -1  -1    4.63    1.08
 -10  -1  -2    1.04    0.72
 -10   1  -2    1.13    0.60
 -10   1   2    1.14    0.63
 -10   1  -3    1.70    0.69
 -10   1   3    2.43    0.93
 -10  -1  -3    3.43    1.03
 -10   1   4    5.18    1.33
 -10  -1   4    5.62    1.26
 -10  -1  -4    6.21    1.25
 -10   1  -4    5.77    1.15
 -10  -1   5   10.52    1.64
 -10   1   5   10.80    1.71
 -10  -1  -5   11.33    1.58
 -10   1  -5   10.51    1.49
 -10  -1   6   16.49    2.13
 -10   1   6   23.06    2.52
 -10   1  -6   18.45    1.93
 -10  -1  -6   20.53    2.18
 -10   1   7   26.86    2.86
 -10  -1   7   34.72    3.17
 -10   1  -7   29.10    2.51
 -10  -1  -7   30.99    2.67
 -10  -1   8   -0.34    0.83
 -10   1   8    0.10    0.74
 -10  -1  -8   -0.42    0.67
 -10   1  -8    0.42    0.52
  10  -1   9   28.15    2.48
 -10   1   9   26.64    3.32
 -10  -1   9   25.00    3.00
 -10   1  -9   27.11    2.50
 -10  -1  -9   24.94    2.56
 -10   1  10    2.08    1.12
 -10  -1  10    0.33    0.89
 -10   1 -10    0.89    0.77
 -10  -1 -10    1.07    0.77
 -10   1  11    2.97    1.60
 -10  -1  11    3.54    1.41
 -10   1 -11    1.83    0.64
 -10  -1 -11    1.83    0.92
 -10  -1  12   -2.07    1.80
 -10   1  12    0.47    0.94
 -10   1 -12    0.21    0.66
 -10  -1 -12   -0.88    0.83
 -10  -1  13    1.24    0.99
 -10   1  13    2.95    1.65
 -10  -1 -13   -0.25    0.83
 -10   1 -13    1.00    0.86
 -10  -1 -14   20.16    2.64
 -10   1 -14   19.22    2.48
 -10  -1  14   21.18    3.45
 -10   1  14   14.95    2.87
 -10   1 -15   92.61    5.61
 -10  -1 -15   90.88    5.75
 -10   1  15   91.15    7.64
 -10  -1  15   86.43    7.25
 -10   1 -16   11.72    2.11
 -10  -1 -16   14.04    2.37
 -10  -1  16   13.53    3.31
 -10   1  16   12.93    3.11
 -10   1 -17    2.16    1.08
 -10  -1 -17    1.91    1.20
 -10   1  17    1.12    3.33
 -10  -1  17    3.81    1.47
 -10   1 -18   -1.39    1.20
 -10  -1 -18    2.62    1.55
 -10   1  18    2.01    1.81
 -10  -1  18    0.94    1.17
 -10   1 -19    0.88    1.57
 -10  -1 -19   -0.36    0.83
 -10  -1  19    0.77    1.59
 -10   1  19    1.89    3.73
 -10  -1 -20    0.09    0.92
 -10   1 -20    0.72    1.36
 -10  -1  20    0.26    1.36
 -10   1  20   -1.67    2.29
 -10   1 -21   10.06    2.12
 -10  -1 -21   11.53    2.56
 -10  -1  21   11.49    3.48
 -10   1  21   16.48    4.09
 -10   1 -22   29.31    3.77
 -10  -2   0   27.46    2.39
 -10   2   1  238.84    7.14
 -10   2  -1  233.36    6.99
 -10  -2  -1  228.35    7.26
 -10   2   2   81.13    4.12
 -10  -2  -2   73.33    3.97
 -10   2  -2   77.16    3.85
 -10   2   3  975.24   17.58
 -10   2  -3  960.01   16.50
 -10  -2  -3  983.72   17.37
 -10   2   4   -0.27    0.74
 -10  -2   4    1.16    0.79
 -10  -2  -4   -0.24    0.68
 -10   2  -4    0.53    0.58
 -10  -2   5   73.83    4.16
 -10   2   5   59.85    3.98
 -10  -2  -5   66.96    3.92
 -10   2  -5   60.62    3.42
 -10   2   6   41.38    3.55
 -10  -2   6   39.98    3.20
 -10  -2  -6   39.07    3.01
 -10   2  -6   47.33    3.03
 -10   2   7  626.92   15.53
 -10  -2   7  623.93   14.29
 -10  -2  -7  640.84   13.72
 -10   2  -7  632.61   12.85
 -10  -2   8   39.96    3.51
 -10   2   8   42.75    3.87
 -10  -2  -8   37.31    3.09
 -10   2  -8   38.11    2.83
 -10  -2   9  583.80   14.88
 -10   2   9  585.60   16.24
 -10   2  -9  605.12   12.91
 -10  -2  -9  578.25   13.52
 -10   2  10    0.55    1.01
  10  -2  10    0.03    0.59
 -10  -2  10    1.50    1.23
 -10   2 -10    1.09    0.82
 -10  -2 -10   -0.03    0.74
 -10   2  11   47.27    4.81
 -10  -2  11   54.88    4.68
 -10  -2 -11   50.62    3.90
 -10   2 -11   50.06    3.53
 -10  -2  12    0.54    1.00
 -10   2  12    1.33    1.38
 -10  -2 -12   -1.10    0.97
 -10   2 -12    1.33    0.96
 -10  -2  13  484.57   16.09
 -10  -2 -13  483.21   13.33
 -10   2 -13  464.81   12.34
 -10   2  13  471.75   16.96
 -10   2 -14   -0.54    0.97
 -10  -2 -14   -1.84    1.30
 -10  -2  14    0.41    1.34
 -10   2  14    3.18    1.91
 -10   2 -15   88.31    5.40
 -10  -2 -15   97.36    5.99
 -10   2  15  103.15    8.20
 -10  -2  15   89.07    7.40
 -10  -2 -16   37.25    3.79
 -10   2 -16   29.90    3.13
 -10   2  16   37.22    5.28
 -10  -2  16   35.56    4.92
 -10  -2 -17   50.69    4.53
 -10   2 -17   51.28    4.44
 -10   2  17   46.38    5.89
 -10  -2  17   51.62    6.01
 -10   2 -18    8.53    1.91
 -10  -2 -18    7.20    1.90
 -10   2  18    4.37    1.80
 -10  -2  18   12.10    3.42
 -10   2 -19  280.79   10.95
 -10  -2 -19  290.20   11.90
 -10  -2  19  274.39   14.62
 -10   2  19  298.21   15.74
 -10  -2 -20    5.23    1.65
 -10   2 -20    1.59    0.81
 -10  -2  20    1.83    1.68
 -10   2  20    7.77    2.74
 -10   2 -21   13.17    2.70
 -10  -2 -21   17.31    3.03
 -10  -2  21   11.59    3.46
 -10   2 -22    1.78    1.17
 -10   2 -23   57.21    5.40
 -10  -3   0   10.25    1.62
 -10   3   0    7.84    1.30
 -10  -3   1   40.16    2.98
 -10   3  -1   44.01    2.91
 -10   3   1   44.22    3.00
 -10  -3  -1   39.43    2.99
 -10   3   2  134.43    5.51
 -10   3  -2  134.90    5.10
 -10  -3  -2  129.95    5.43
 -10   3   3    4.05    1.09
 -10   3  -3    5.37    1.08
 -10  -3  -3    4.18    1.07
 -10   3   4    3.06    0.92
 -10  -3  -4    4.47    1.25
 -10   3  -4    2.94    0.87
 -10   3   5    5.90    1.29
 -10  -3   5    5.24    1.25
 -10   3  -5    5.29    1.02
 -10  -3  -5    4.69    1.18
 -10   3   6   17.46    2.44
 -10  -3   6   16.64    2.13
 -10  -3  -6   18.12    2.15
 -10   3  -6   20.95    2.01
 -10   3   7   12.28    2.10
 -10  -3   7   10.52    1.76
 -10  -3  -7   11.50    1.68
 -10   3  -7   12.43    1.61
 -10   3   8   13.28    2.22
 -10  -3   8   13.54    2.02
 -10   3  -8   19.30    2.01
 -10  -3  -8   16.14    2.07
 -10   3   9   12.18    2.37
 -10  -3   9    6.71    1.51
 -10   3  -9   12.65    1.63
 -10  -3  -9   13.48    1.98
 -10   3  10    4.46    1.64
 -10  -3  10    6.53    1.77
 -10   3 -10    8.37    1.42
 -10  -3 -10   10.43    1.83
 -10   3  11    4.61    2.02
 -10  -3  11    2.49    1.16
  10  -3  11    1.96    0.71
 -10   3 -11    1.28    0.67
 -10  -3 -11    2.65    1.20
 -10   3  12   23.65    3.83
 -10  -3  12   30.33    3.62
 -10   3 -12   25.87    2.63
 -10  -3 -12   31.15    3.21
 -10  -3  13   -2.26    1.76
 -10   3  13    2.38    1.84
 -10   3 -13   -0.03    0.73
 -10  -3 -13   -0.06    0.74
 -10  -3  14    7.72    2.41
 -10   3  14    2.86    1.65
 -10  -3 -14    6.82    1.71
 -10   3 -14    4.06    1.14
 -10   3  15    7.97    2.81
 -10  -3  15    7.77    2.50
 -10   3 -15    6.58    1.41
 -10  -3 -15    3.76    1.48
 -10   3  16    6.49    2.45
 -10  -3  16    3.76    1.69
 -10  -3 -16    4.89    1.45
 -10   3 -16    3.17    1.25
 -10   3  17    0.50    1.48
 -10  -3  17    1.35    1.21
 -10   3 -17    1.76    0.97
 -10  -3 -17    0.62    0.91
 -10   3  18   17.64    3.95
 -10  -3  18   10.99    3.13
 -10   3 -18   15.01    2.40
 -10  -3 -18   15.26    2.77
 -10  -3  19   -0.19    1.23
 -10   3  19   -0.40    1.66
 -10  -3 -19    1.35    0.98
 -10   3 -19    1.10    0.93
 -10   3  20    5.86    3.09
 -10  -3  20    3.67    2.30
 -10  -3 -20    3.15    1.29
 -10   3 -20    3.36    1.46
 -10  -3  21   -0.12    1.41
 -10   3 -21    1.26    0.98
 -10   3 -22    1.90    1.37
 -10   3 -23    3.09    1.54
 -10   4   0  744.87   14.25
 -10  -4   0  777.16   15.24
 -10   4  -1   31.74    2.42
 -10   4  -1   29.11    2.33
 -10   4   1   32.65    2.69
 -10  -4  -1   31.56    2.68
 -10  -4   1   31.25    2.64
 -10   4  -2   13.69    1.61
 -10  -4   2   12.37    1.76
 -10   4  -2   12.67    1.55
 -10   4   2   14.18    1.88
 -10  -4  -2   13.85    1.83
 -10   4   3   56.44    3.86
 -10  -4  -3   55.68    3.65
 -10   4  -3   61.19    3.29
 -10   4   4  635.80   14.86
 -10   4  -4  662.61   12.46
 -10  -4  -4  658.32   13.92
 -10  -4   5   38.72    3.10
 -10   4   5   42.20    3.67
 -10   4  -5   38.07    2.57
 -10  -4  -5   41.50    3.20
 -10   4   6  657.98   16.38
 -10  -4   6  651.95   14.27
 -10  -4  -6  652.15   14.23
 -10   4  -6  657.59   12.52
 -10  -4   7   97.41    5.14
 -10   4   7  104.55    6.37
 -10  -4  -7   96.61    5.07
 -10   4  -7  102.49    4.41
 -10   4   8    4.34    1.70
 -10  -4   8    2.01    0.98
 -10  -4  -8    1.74    0.84
 -10   4  -8    2.45    0.80
 -10   4   9   22.33    3.21
 -10  -4   9   18.01    2.35
 -10   4  -9   20.13    2.07
 -10  -4  -9   20.76    2.48
 -10  -4  10  186.13    8.17
 -10   4  10  188.96    9.91
 -10   4 -10  185.34    6.49
 -10  -4 -10  191.22    7.69
 -10   4  11   -0.06    1.31
 -10  -4  11   -0.20    0.92
 -10   4 -11    0.28    0.48
 -10  -4 -11    0.29    0.72
 -10  -4  12  137.33    7.69
 -10   4  12  129.64    8.82
 -10  -4 -12  131.63    6.72
 -10   4 -12  125.68    5.67
 -10  -4  13   17.83    2.83
 -10   4  13   21.14    3.59
 -10   4 -13   23.39    2.49
 -10  -4 -13   20.21    2.70
 -10  -4 -14    7.99    1.87
 -10   4 -14    5.87    1.41
 -10   4  14    7.93    2.65
 -10  -4  14    6.50    1.90
 -10  -4 -15   13.34    2.39
 -10   4 -15   10.99    1.86
 -10   4  15   15.50    3.62
 -10  -4  15    8.73    2.58
 -10  -4 -16  209.97    9.55
 -10   4 -16  209.41    8.30
 -10   4  16  218.06   12.84
 -10  -4  16  212.00   11.41
 -10   4 -17    2.47    1.14
 -10  -4 -17    1.46    0.86
 -10  -4  17    2.24    1.40
 -10   4  17    2.04    1.80
 -10   4 -18  135.78    7.18
 -10  -4 -18  156.39    8.56
 -10  -4  18  150.93   10.25
 -10   4  18  154.96   11.14
 -10  -4 -19   15.46    2.92
 -10   4 -19   14.25    2.41
 -10   4  19   19.94    4.08
 -10  -4  19   13.62    3.43
 -10   4 -20   49.13    4.44
 -10  -4 -20   45.93    4.88
 -10  -4  20   45.15    6.26
 -10   4  20   37.71    5.96
 -10   4 -21    0.87    0.96
 -10  -4  21   -0.07    1.72
 -10   4 -22   76.36    5.81
 -10   4 -23    2.88    1.39
 -10  -5   0    8.38    1.44
 -10   5   0   19.67    2.09
 -10   5   1   19.73    2.19
 -10   5  -1   19.84    2.04
 -10   5  -1   18.59    1.78
 -10  -5   1   25.58    2.48
 -10  -5  -1   23.54    2.41
 -10   5   2   34.61    2.99
 -10   5  -2   37.43    2.66
 -10  -5   2   37.50    3.01
 -10  -5  -2   33.30    2.80
 -10   5  -2   35.97    2.47
 -10   5  -3   73.54    3.63
 -10   5   3   71.35    4.53
 -10   5  -3   74.88    3.56
 -10  -5  -3   72.47    4.19
 -10   5   4    5.78    1.46
 -10   5  -4    7.77    1.17
 -10  -5  -4    6.12    1.31
 -10   5   5   16.03    2.37
 -10  -5   5   13.07    1.84
 -10  -5  -5   15.31    2.00
 -10   5  -5   15.18    1.60
 -10   5   6   78.95    5.60
 -10  -5   6   76.13    4.47
 -10  -5  -6   73.99    4.42
 -10   5  -6   78.71    3.68
 -10   5   7   75.34    5.63
 -10  -5   7   59.06    4.06
 -10  -5  -7   63.32    4.19
 -10   5  -7   69.10    3.46
 -10  -5   8   47.61    3.78
 -10   5   8   46.33    4.64
 -10   5  -8   45.94    2.90
 -10  -5  -8   47.78    3.69
 -10   5   9    0.58    0.97
 -10  -5   9    1.12    0.95
 -10   5  -9    0.96    0.53
 -10  -5  -9    0.17    0.64
 -10   5  10    5.19    1.85
 -10  -5  10    2.90    0.97
 -10   5 -10    6.16    1.17
 -10  -5 -10    4.77    1.39
 -10   5  11    3.06    1.61
 -10  -5  11    3.49    1.55
 -10  -5 -11    1.85    0.89
 -10   5 -11    2.53    0.74
 -10  -5  12   31.45    3.72
 -10   5  12   29.74    4.36
 -10   5 -12   30.86    2.75
 -10  -5 -12   32.04    3.45
 -10  -5  13    2.19    1.17
 -10   5  13    6.51    2.48
 -10  -5 -13    4.13    1.35
 -10   5 -13    5.60    1.19
 -10  -5  14   -1.13    1.58
 -10   5  14    2.24    2.05
 -10  -5 -14    2.10    1.33
 -10   5 -14    1.84    1.01
 -10  -5  15   19.69    3.37
 -10   5  15   15.18    3.32
 -10   5 -15   16.35    2.17
 -10  -5 -15   16.59    2.79
 -10  -5  16   40.53    4.92
 -10   5  16   43.83    6.05
 -10  -5 -16   41.58    4.27
 -10   5 -16   43.67    3.68
 -10  -5  17    1.41    1.57
 -10   5  17    0.76    1.63
 -10  -5 -17    2.32    1.20
 -10   5 -17    2.33    1.13
 -10   5  18    6.62    2.97
 -10  -5  18    2.70    1.56
 -10  -5 -18    3.92    1.48
 -10   5 -18    3.65    1.11
 -10   5  19    1.08    1.39
 -10  -5  19   -0.81    1.44
 -10  -5 -19    1.11    1.47
 -10   5 -19    0.42    1.06
 -10  -5  20   -0.07    1.51
 -10   5 -20   -0.68    1.00
 -10  -5  21   12.86    3.48
 -10   5 -21   16.04    2.59
 -10   6   0   64.93    3.93
 -10  -6   0   65.94    4.02
 -10   6  -1   33.32    2.40
 -10   6   1   32.35    2.94
 -10   6  -1   43.62    3.06
 -10  -6  -1   38.25    3.09
 -10  -6   1   32.09    2.83
 -10   6  -2   58.00    3.42
 -10   6   2   61.34    4.27
 -10   6  -2   62.42    3.22
 -10  -6  -2   58.26    3.79
 -10  -6   2   63.33    4.02
 -10   6   3  198.34    8.12
 -10   6  -3  196.41    6.22
 -10  -6   3  193.30    7.11
 -10   6  -3  197.01    5.84
 -10  -6  -3  188.50    7.07
 -10  -6   4   40.42    3.21
 -10   6  -4   42.92    2.72
 -10   6   4   47.73    4.09
 -10   6  -4   44.02    2.60
 -10  -6  -4   42.07    3.33
 -10   6  -5   32.67    2.36
 -10   6   5   32.51    3.69
 -10  -6  -5   31.89    2.98
 -10   6  -5   30.63    2.19
 -10   6   6    9.38    2.13
 -10  -6   6   10.03    1.71
 -10   6  -6    7.57    1.08
 -10  -6  -6    9.46    1.70
 -10   6   7   87.98    6.35
 -10  -6   7   93.14    5.13
 -10   6  -7   95.35    4.03
 -10  -6  -7   93.55    5.22
 -10   6   8   61.61    5.56
 -10  -6   8   55.13    4.07
 -10  -6  -8   48.62    3.87
 -10   6  -8   54.63    3.08
 -10  -6   9  316.43   10.52
 -10   6   9  302.99   12.93
 -10   6  -9  306.61    7.98
 -10  -6  -9  310.44   10.32
 -10   6  10    0.04    1.15
 -10  -6  10    0.43    0.88
 -10  -6 -10    1.38    0.76
 -10   6 -10    0.98    0.52
 -10  -6  11    7.08    1.98
 -10   6  11    4.20    2.46
 -10   6 -11    6.71    1.27
 -10  -6 -11    5.71    1.37
 -10  -6  12    1.82    1.31
 -10   6  12    5.94    2.49
 -10   6 -12    2.49    0.88
 -10  -6 -12    4.64    1.51
 -10  -6  13  147.57    8.62
 -10  -6 -13  153.85    7.93
 -10   6 -13  159.78    6.19
 -10   6  13  151.75   10.15
 -10  -6 -14    0.89    1.18
 -10   6 -14   -0.32    0.68
 -10  -6  14   -0.30    1.30
 -10   6  14    1.28    1.25
 -10  -6  15   77.24    6.61
 -10   6  15   76.20    7.57
 -10  -6 -15   80.01    5.97
 -10   6 -15   80.53    4.75
 -10   6  16   19.75    3.89
 -10  -6  16   25.76    4.01
 -10  -6 -16   25.19    3.41
 -10   6 -16   23.52    2.63
 -10   6  17    1.26    1.28
 -10  -6  17    0.04    1.75
 -10   6 -17    3.62    1.26
 -10  -6 -17    2.48    1.46
 -10   6  18    5.94    2.64
 -10  -6  18    7.30    2.70
 -10  -6 -18    8.44    2.25
 -10   6 -18    7.47    1.59
 -10  -6  19  134.39   10.03
 -10   6  19  140.30   11.05
 -10   6 -19  133.33    6.74
 -10  -6  20    0.62    1.93
 -10  -6  21    2.14    1.60
 -10   7   0   44.91    3.49
 -10  -7   0   41.08    3.21
 -10   7   1    1.54    0.85
 -10   7  -1    5.05    0.93
 -10   7  -1    2.24    0.85
 -10  -7  -1    1.83    0.80
 -10  -7   1    2.88    1.07
 -10   7  -2   31.33    2.66
 -10   7   2   31.24    3.16
 -10  -7   2   38.74    3.14
 -10   7  -2   32.63    2.24
 -10  -7  -2   31.72    2.89
 -10   7   3   47.06    4.16
 -10   7  -3   52.78    3.25
 -10  -7   3   53.38    3.79
 -10   7  -3   49.71    2.71
 -10  -7  -3   54.87    3.87
 -10   7   4   14.83    2.50
 -10   7  -4   16.63    1.80
 -10  -7   4   14.02    1.94
 -10  -7  -4   17.24    2.24
 -10   7  -4   16.77    1.54
 -10   7   5    5.41    1.51
 -10  -7   5    7.30    1.53
 -10   7  -5   10.42    1.43
 -10   7  -5    9.04    1.14
 -10  -7  -5    8.71    1.70
 -10   7   6   -0.30    0.93
 -10  -7   6    0.37    0.66
 -10   7  -6   -0.23    0.55
 -10  -7  -6    0.32    0.68
 -10   7  -6    0.10    0.46
 -10   7   7   38.51    4.34
 -10   7  -7   37.25    2.43
 -10  -7   7   28.28    2.93
 -10   7  -7   35.04    2.29
 -10  -7  -7   30.04    3.06
 -10  -7   8   91.49    5.40
 -10   7   8   91.16    6.95
 -10   7  -8   86.99    3.77
 -10  -7  -8   99.26    5.71
 -10   7   9    3.44    1.93
 -10  -7   9    5.56    1.64
 -10  -7  -9    1.46    0.75
 -10   7  -9    5.00    1.01
 -10  -7  10   26.77    3.07
 -10   7  10   38.39    4.91
 -10  -7 -10   31.40    3.39
 -10   7 -10   34.12    2.48
 -10  -7  11    6.68    1.86
 -10   7  11    8.81    2.56
 -10   7 -11    5.87    1.18
 -10  -7 -11   10.79    2.06
 -10  -7  12   -0.63    0.78
 -10   7  12    0.14    1.11
 -10  -7 -12    0.07    0.85
 -10   7 -12    0.48    0.54
 -10   7  13   27.51    4.46
 -10  -7  13   26.42    3.56
 -10   7 -13   28.17    2.48
 -10  -7 -13   26.70    3.45
 -10   7  14   -1.38    1.65
 -10  -7  14   -0.77    1.38
 -10   7 -14    0.42    0.68
 -10  -7 -14    0.33    0.83
 -10  -7  15    7.16    2.30
 -10   7  15    8.42    2.33
 -10  -7 -15    7.29    1.91
 -10   7 -15    6.33    1.32
 -10  -7  16    0.43    1.16
 -10   7  16    2.54    2.02
 -10  -7 -16    1.52    0.96
 -10  -7  17    2.51    2.15
 -10   7  17    1.65    1.74
 -10  -7 -17    1.77    1.33
 -10   7  18   -0.91    1.34
 -10  -7  18    0.25    1.76
 -10  -7  19    0.75    1.34
 -10  -7  20   14.53    3.64
 -10  -7  21   -0.69    2.22
 -10   8   0  333.41   10.44
 -10  -8   0  334.61    9.85
 -10   8  -1    1.52    1.13
 -10   8   1    1.23    0.96
 -10   8  -1    0.94    0.51
 -10  -8   1   -0.66    1.02
 -10  -8  -1   -0.38    0.85
 -10   8   2  200.80    8.68
 -10   8  -2  211.59    7.43
 -10  -8  -2  189.45    7.38
 -10  -8   2  197.45    7.43
 -10   8  -2  203.56    5.57
 -10   8   3   23.80    3.06
 -10   8  -3   19.25    2.14
 -10  -8  -3   20.70    2.48
 -10   8  -3   19.99    1.60
 -10  -8   3   23.96    2.54
 -10   8   4   89.06    6.12
 -10   8  -4   94.13    4.42
 -10  -8  -4   83.08    4.94
 -10   8  -4   90.35    3.45
 -10  -8   4   94.93    5.09
 -10   8   5    0.33    1.16
 -10  -8   5    0.12    0.66
 -10   8  -5    1.59    0.88
 -10  -8  -5   -0.18    0.65
 -10   8  -5   -0.66    0.46
 -10   8   6  188.59    9.68
 -10  -8   6  191.78    7.60
 -10  -8   6  185.45    7.40
 -10   8  -6  210.80    6.24
 -10   8  -6  192.71    5.27
 -10  -8  -6  196.68    7.94
 -10   8   7    1.42    1.03
 -10   8  -7    6.15    0.96
 -10  -8   7    5.14    1.43
 -10  -8  -7    3.91    1.25
 -10   8  -7    5.35    0.86
 -10  -8   8    3.66    1.29
 -10   8  -8    7.05    1.14
 -10   8   8    6.03    2.20
 -10   8  -8    4.60    0.85
 -10  -8  -8    3.66    1.15
 -10  -8   9    7.22    1.73
 -10   8  -9    6.97    0.97
 -10   8   9   10.12    2.55
 -10   8  -9    6.86    0.98
 -10  -8  -9    7.53    1.68
 -10   8 -10  205.61    5.82
 -10  -8  10  215.91    9.05
 -10   8  10  222.42   11.79
 -10  -8 -10  217.48    9.14
 -10   8 -10  210.84    6.04
 -10  -8  11    4.32    1.43
 -10   8  11    2.27    1.31
 -10   8 -11    3.86    0.94
 -10  -8 -11    2.88    1.21
 -10  -8  12   87.32    6.20
 -10   8  12   79.58    7.53
 -10  -8 -12   85.36    6.05
 -10  -8  13    3.57    1.66
 -10   8  13    1.35    1.57
 -10  -8 -13    2.66    1.39
 -10  -8  14   12.44    2.55
 -10   8  14   13.41    3.38
 -10  -8 -14   20.06    3.13
 -10  -8  15    1.63    1.06
 -10   8  15    1.01    1.84
 -10  -8 -15    2.92    1.42
 -10   8  16   70.59    7.43
 -10  -8  16   51.88    5.48
 -10  -8 -16   61.89    5.63
 -10   8  17   17.81    4.13
 -10  -8  17   13.43    2.99
 -10  -8  18    5.54    2.44
 -10  -8  19   16.63    4.74
 -10   9   0   13.22    2.09
 -10   9   0    7.79    1.09
 -10  -9   0    6.85    1.47
 -10   9  -1    7.13    1.62
 -10   9   1    6.26    1.59
 -10   9  -1    7.82    1.04
 -10  -9  -1    4.79    1.19
 -10  -9   1    3.78    1.12
 -10   9  -2   23.27    2.48
 -10   9   2   23.33    3.00
 -10  -9  -2   19.65    2.41
 -10   9  -2   24.87    1.71
 -10  -9   2   21.48    2.46
 -10   9   3   11.54    2.18
 -10   9  -3   12.43    1.77
 -10  -9   3    7.06    1.43
 -10   9  -3   11.36    1.14
 -10  -9  -3    7.49    1.59
 -10   9   4   28.00    3.67
 -10   9  -4   26.00    2.40
 -10  -9   4   29.19    2.85
 -10  -9  -4   25.57    2.91
 -10   9  -4   24.88    1.62
 -10   9  -5    0.20    0.47
 -10   9   5    0.26    1.02
 -10  -9   5    0.22    0.77
 -10   9  -5    1.34    0.49
 -10  -9  -5   -0.23    0.69
 -10   9  -6    2.05    0.61
 -10   9   6    1.52    1.09
 -10  -9   6    1.96    0.77
 -10  -9   6    2.35    1.05
 -10   9  -6    2.33    0.58
 -10  -9  -6    2.90    1.41
 -10   9   7   11.11    2.56
 -10  -9   7    8.58    1.63
 -10  -9   7    8.62    1.64
 -10  -9  -7   10.10    1.99
 -10   9   8   -1.44    1.61
 -10  -9   8    0.82    0.74
 -10  -9   8    0.17    0.69
 -10  -9  -8    0.56    0.75
 -10   9   9    0.60    1.37
 -10  -9   9   -0.94    1.00
 -10  -9  -9   -0.36    0.94
 -10   9  10   -0.19    1.46
 -10  -9  10   -0.22    0.93
 -10  -9 -10   -0.73    1.16
 -10  -9  11    5.37    1.64
 -10  -9 -11    4.98    1.70
 -10   9  11    3.64    1.84
 -10  -9  12    8.53    2.01
 -10   9  12    5.91    1.90
 -10  -9 -12   11.14    2.45
 -10  -9  13    9.26    2.02
 -10   9  13   10.71    3.19
 -10  -9 -13   12.21    2.34
 -10  -9  14   -1.07    1.43
 -10   9  14   -2.41    1.87
 -10  -9 -14    0.51    0.80
 -10  -9  15   -0.53    1.08
 -10   9  15   -0.99    1.40
 -10  -9 -15   -0.52    0.92
 -10  -9  16    1.39    1.75
 -10   9  16    4.85    2.18
 -10   9  17   -0.49    1.97
 -10  -9  17    2.27    1.41
 -10  10   0   49.66    3.96
 -10 -10   0   45.57    3.62
 -10  10   0   47.01    2.46
 -10  10  -1   50.73    3.85
 -10  10   1   54.95    4.42
 -10  10   1   54.08    2.79
 -10 -10  -1   51.94    3.89
 -10  10  -1   53.63    2.44
 -10 -10   1   49.88    3.74
 -10  10  -2    5.84    1.33
 -10  10   2    5.24    1.55
 -10 -10   2    2.86    0.97
 -10 -10  -2    2.00    0.85
 -10  10   3  269.60   10.70
 -10 -10   3  240.70    8.45
 -10 -10  -3  260.21    9.20
 -10  10   4   17.94    2.81
 -10 -10   4   11.50    1.77
 -10 -10  -4   14.12    2.28
 -10  10   5    0.79    0.95
 -10 -10   5    1.39    0.81
 -10 -10  -5    2.46    1.17
 -10 -10   5    0.29    0.75
 -10  10   6   13.85    2.75
 -10 -10   6   15.44    2.20
 -10 -10   6   13.95    2.15
 -10 -10  -6   15.21    2.32
 -10 -10   7   96.50    5.55
 -10  10   7   93.85    7.04
 -10 -10  -7   91.74    5.77
 -10 -10   7   92.75    5.33
 -10  10   8   -0.62    1.56
 -10 -10   8   -0.65    0.93
 -10 -10   8   -0.92    0.79
 -10 -10  -8    0.42    0.99
 -10 -10   9   93.05    5.72
 -10  10   9   80.73    7.10
 -10 -10  -9   93.16    6.09
 -10 -10   9   96.33    5.38
 -10 -10  10   18.81    2.37
 -10 -10  10   19.78    2.65
 -10 -10 -10   22.24    3.11
 -10  10  10   17.94    3.23
 -10 -10  11    1.21    1.23
 -10 -10 -11   -0.80    0.78
 -10  10  11   -1.30    1.67
 -10 -10 -12   -0.37    0.86
 -10  10  12    1.96    1.92
 -10 -10  12   -0.70    1.25
 -10 -10  13  109.08    7.06
 -10  10  13  106.58    8.68
 -10 -10 -13  113.74    7.39
 -10 -10  14    5.10    1.80
 -10  10  14    8.34    2.88
 -10 -10 -14    3.74    1.56
 -10  10  15   29.81    5.50
 -10  10  16    1.64    1.59
 -10 -11   0    4.62    1.27
 -10 -11   1    0.14    0.61
 -10 -11  -1   -0.67    0.68
 -10 -11   2    3.04    1.05
 -10 -11  -2    1.04    0.76
 -10  11   3    1.46    1.34
 -10 -11  -3   -0.26    0.82
 -10 -11   3   -1.18    0.86
 -10  11   4    2.95    1.37
 -10 -11   4    0.77    0.79
 -10 -11  -4    0.44    0.91
 -10  11   5    1.19    1.14
 -10 -11   5   -0.14    0.66
 -10 -11  -5    0.76    0.76
 -10 -11   5   -0.40    0.66
 -10  11   6   26.59    3.58
 -10 -11   6   22.17    2.63
 -10 -11  -6   16.87    2.59
 -10 -11   6   22.43    2.53
 -10  11   7    1.25    0.95
 -10 -11   7    2.09    1.01
 -10 -11  -7   -0.26    1.05
 -10 -11   7    0.95    0.80
 -10  11   8    8.07    2.21
 -10 -11   8    8.02    1.71
 -10 -11   8    7.83    1.56
 -10 -11  -8   12.02    2.38
 -10 -11   9    2.94    1.13
 -10 -11   9    2.32    1.10
 -10 -11  -9    1.08    1.21
 -10  11   9    3.54    1.66
 -10 -11  10    0.69    0.74
 -10 -11  10    1.11    0.85
 -10 -11 -10    2.92    1.63
 -10  11  10    1.34    1.34
 -10 -11  11    3.71    1.25
 -10  11  11    5.48    2.00
 -10 -11 -11    4.00    1.57
 -10  11  12   16.18    4.97
 -10 -11 -12   33.02    4.04
 -10 -11 -13   -1.26    1.41
 -10 -12   0  107.71    5.77
 -10 -12  -1    9.49    1.86
 -10 -12   1    8.15    1.61
 -10 -12   2   14.59    2.11
 -10 -12  -2   14.12    2.18
 -10 -12   3   16.54    2.17
 -10 -12  -3   15.20    2.30
 -10 -12  -4   45.39    4.01
 -10 -12   4   39.97    3.28
 -10 -12   5   -0.22    0.63
 -10 -12  -5    0.14    0.78
 -10 -12   5    1.41    0.88
 -10 -12   6   52.75    4.02
 -10 -12  -6   50.98    4.46
 -10 -12   6   47.37    3.54
 -10 -12  -7    6.44    1.76
 -10 -12  -8    5.17    1.61
 -10 -12  -9   15.36    2.76
 -10 -12 -10   71.58    5.77
 -10 -12 -11    3.52    1.63
 -10 -12 -12   49.03    4.96
 -10 -13   0    1.09    0.61
 -10 -13  -1    0.78    0.92
 -10 -13  -2   -0.16    0.91
 -10 -13  -3    2.77    0.94
 -10 -13  -4    2.97    0.96
 -10 -13  -5   -1.12    0.89
 -10 -13  -6   -0.62    0.96
 -10 -13  -7    2.46    1.17
 -10 -13  -8    4.47    1.48
 -10 -13  -9    1.93    1.18
 -10 -13 -10    5.33    1.66
 -11   0   0   -0.39    0.62
 -11   0  -1    0.18    0.71
 -11   0  -2  436.56   10.79
 -11   0   3    0.21    0.59
 -11   0  -3    0.46    0.67
 -11   0   4  737.95   15.37
 -11   0  -4  751.81   14.88
 -11   0   5    0.27    0.63
 -11   0  -5   -0.84    0.90
 -11   0   6    5.12    1.34
 -11   0  -6    3.27    0.97
 -11   0   7   -1.32    1.17
 -11   0  -7    0.29    0.51
 -11   0   8  315.24   10.69
 -11   0  -8  318.22    9.35
 -11   0   9    1.79    1.08
 -11   0  -9   -1.12    0.71
 -11   0  10  154.69    8.01
 -11   0 -10  158.81    6.72
 -11   0  11    1.11    1.23
 -11   0 -11    0.11    0.91
 -11   0  12  168.62    9.30
 -11   0 -12  167.66    7.29
 -11   0  13   -0.59    0.95
 -11   0 -13   -0.22    0.81
 -11   0  14  290.42   13.21
 -11   0 -14  279.38   10.12
 -11   0 -15   -0.86    0.84
 -11   0  15    0.11    1.45
 -11   0 -16   68.51    5.17
 -11   0  16   65.07    6.81
 -11   0 -17   -1.32    1.31
 -11   0  17    1.17    1.50
 -11   0 -18  215.27    9.82
 -11   0  18  210.97   12.95
 -11   0 -19    0.64    0.83
 -11   0  19   -0.58    1.32
 -11   0 -20   30.58    3.85
 -11   0  20   26.78    5.06
 -11   0 -21   -3.02    1.46
 -11  -1   0   -1.06    0.87
 -11  -1  -1   -0.18    0.58
 -11   1  -1   -0.01    0.56
 -11   1   2   60.00    3.73
 -11   1  -2   63.50    3.80
 -11  -1  -2   61.83    3.81
 -11  -1   3   15.44    1.92
 -11   1   3   13.69    1.85
 -11   1  -3   16.66    2.03
 -11  -1  -3   17.26    2.04
 -11  -1   4   31.42    2.79
 -11   1   4   27.75    2.69
 -11  -1  -4   29.30    2.64
 -11   1  -4   31.78    2.65
 -11  -1   5   25.98    2.61
 -11   1   5   25.36    2.67
 -11   1  -5   23.54    2.33
 -11  -1  -5   25.32    2.47
 -11  -1   6  104.89    5.50
 -11   1   6  100.18    5.56
 -11  -1  -6  100.43    5.01
 -11   1  -6  103.27    4.90
 -11  -1   7   47.98    3.86
 -11   1   7   45.21    3.85
 -11  -1  -7   47.12    3.42
 -11   1  -7   43.04    3.20
 -11  -1   8   22.84    2.78
 -11   1   8   23.24    2.98
 -11  -1  -8   21.68    2.44
 -11   1  -8   20.56    2.24
 -11   1   9   18.54    2.79
 -11  -1   9   11.92    2.21
 -11  -1  -9   13.71    2.02
 -11   1  -9   12.43    1.73
 -11   1  10    6.69    1.73
 -11  -1  10    5.16    1.61
 -11   1 -10    7.07    1.43
 -11  -1 -10    6.71    1.52
 -11   1  11   97.18    6.84
 -11  -1  11   79.54    6.02
 -11   1 -11   92.37    5.13
 -11  -1 -11   87.74    5.20
 -11  -1  12    0.15    1.18
 -11   1  12    0.65    1.00
 -11   1 -12    2.18    0.98
 -11  -1 -12    2.87    1.29
 -11  -1  13   17.00    3.24
 -11   1  13   14.75    2.88
 -11   1 -13   14.03    2.14
 -11  -1 -13   14.59    2.30
 -11  -1  14   13.61    3.11
 -11   1  14   15.67    3.19
 -11   1 -14   12.41    2.09
 -11  -1 -14   15.33    2.42
 -11   1 -15   47.17    4.06
 -11  -1 -15   54.52    4.56
 -11   1  15   55.12    6.08
 -11  -1  15   53.36    5.68
 -11   1 -16   55.19    4.64
 -11  -1 -16   58.42    4.87
 -11  -1  16   62.34    6.64
 -11   1  16   49.73    5.97
 -11  -1 -17   -0.45    1.12
 -11   1 -17    0.42    0.96
 -11  -1  17    3.13    2.28
 -11   1  17    1.44    2.33
 -11   1 -18    5.99    2.46
 -11  -1 -18    3.16    1.37
 -11   1  18    6.87    2.92
 -11  -1  18    2.82    1.34
 -11   1 -19    2.53    1.17
 -11  -1 -19    2.84    1.44
 -11  -1  19    1.61    1.48
 -11   1  19    0.94    1.72
 -11   1 -20    4.55    1.37
 -11  -1 -20    6.68    2.00
 -11  -1  20    6.17    2.44
 -11   1  20    1.97    1.48
 -11   1 -21   15.32    2.79
 -11   1 -22    0.92    1.18
 -11  -2   0   -0.36    0.61
 -11   2   1  266.83    8.08
 -11   2  -1  251.56    7.75
 -11  -2  -1  278.24    8.57
 -11  -2  -2    5.71    1.40
 -11   2  -2    9.38    1.42
 -11   2   2    8.18    1.52
 -11   2   3  111.65    5.33
 -11   2  -3  114.20    5.01
 -11  -2  -3  105.86    5.10
 -11   2   4    0.32    0.64
 -11  -2   4    0.37    0.65
 -11  -2  -4   -0.54    0.84
 -11   2  -4    1.44    0.68
 -11  -2   5  624.21   14.17
 -11   2   5  630.93   14.83
 -11   2  -5  634.05   13.12
 -11  -2  -5  636.90   13.86
 -11   2   6   20.99    2.58
 -11  -2   6   22.31    2.58
 -11  -2  -6   22.37    2.40
 -11   2  -6   26.70    2.42
 -11   2   7  284.35   10.32
 -11  -2   7  273.00    9.40
 -11  -2  -7  289.55    9.08
 -11   2  -7  283.84    8.38
 -11   2   8    0.70    0.88
 -11  -2   8   -1.64    1.08
 -11   2  -8   -0.41    0.76
 -11  -2  -8    0.87    0.75
 -11  -2   9  114.72    6.34
 -11   2   9  110.20    6.87
 -11  -2  -9  102.48    5.43
 -11   2  -9  107.66    5.20
 -11   2  10   -1.26    1.47
 -11  -2  10    0.82    1.17
 -11   2 -10    0.35    0.83
 -11  -2 -10    1.00    0.97
 -11   2  11  495.25   16.44
 -11  -2  11  486.92   15.01
 -11   2 -11  500.04   12.54
 -11  -2 -11  510.27   13.42
 -11   2  12   -1.28    1.64
 -11  -2  12   -1.17    1.45
 -11   2 -12    0.75    0.63
 -11  -2 -12   -0.06    0.70
 -11  -2  13    8.92    2.43
 -11   2  13    8.69    2.62
 -11  -2 -13    9.81    1.94
 -11   2 -13    9.27    1.73
 -11  -2  14   24.01    3.77
 -11   2  14   25.51    4.14
 -11   2 -14   25.04    2.96
 -11  -2 -14   22.87    2.90
 -11  -2  15  151.58    9.51
 -11   2 -15  145.90    7.19
 -11  -2 -15  150.72    7.76
 -11   2  15  151.33   10.22
 -11   2 -16   12.82    2.23
 -11  -2 -16   12.48    2.37
 -11  -2  16   10.37    2.96
 -11   2  16   16.09    3.72
 -11  -2 -17  167.25    8.62
 -11   2 -17  176.24    8.21
 -11  -2  17  167.61   11.02
 -11   2  17  195.78   12.24
 -11   2 -18    1.79    1.40
 -11  -2 -18   -1.27    1.37
 -11   2  18    0.05    1.53
 -11  -2  18    2.75    1.81
 -11   2 -19    0.24    0.82
 -11  -2 -19    0.78    1.11
 -11   2  19    1.12    1.98
 -11  -2  19   -1.07    1.51
 -11   2 -20   -0.17    0.80
 -11  -2 -20   -0.61    1.16
 -11  -2  20    0.06    1.24
 -11   2 -21  132.08    7.88
 -11   2 -22   23.28    3.53
 -11  -3   0    1.04    0.59
 -11   3   0   -0.16    0.49
 -11  -3  -1    5.57    1.29
 -11  -3   1    6.34    1.38
 -11   3  -1    5.14    1.17
 -11   3   1    6.37    1.28
 -11   3   2  220.13    7.55
 -11   3  -2  220.77    7.04
 -11  -3  -2  204.32    7.27
 -11   3   3  156.40    6.54
 -11   3  -3  151.19    5.73
 -11  -3  -3  146.81    6.09
 -11   3   4   10.29    1.76
 -11  -3  -4   13.62    1.81
 -11   3  -4   15.21    1.80
 -11   3   5   20.19    2.49
 -11  -3   5   20.44    2.37
 -11   3  -5   22.74    2.18
 -11  -3  -5   18.10    2.17
 -11   3   6   24.23    2.90
 -11  -3   6   21.76    2.51
 -11  -3  -6   22.76    2.44
 -11   3  -6   23.30    2.20
 -11  -3   7   19.90    2.52
 -11   3   7   21.87    2.87
 -11  -3  -7   18.93    2.28
 -11   3  -7   21.73    2.22
 -11   3   8    9.98    2.22
 -11  -3   8   11.86    2.00
 -11  -3  -8   10.04    1.71
 -11   3  -8    9.85    1.53
 -11   3   9    2.39    1.25
 -11  -3   9    2.70    1.16
 -11   3  -9    3.60    1.08
 -11  -3  -9    4.42    1.39
 -11   3  10    1.74    1.34
 -11  -3  10    0.79    0.76
 -11   3 -10    1.90    0.83
 -11  -3 -10    1.51    0.91
 -11   3  11   -1.92    1.54
 -11  -3  11    1.43    1.27
 -11   3 -11    0.84    0.52
 -11  -3 -11    0.21    0.67
 -11   3  12    4.45    1.68
 -11  -3  12    4.91    1.73
 -11   3 -12    5.15    1.26
 -11  -3 -12    4.99    1.52
 -11  -3  13    7.83    2.05
 -11   3  13   10.49    2.80
 -11   3 -13    9.46    1.71
 -11  -3 -13    7.77    1.80
 -11  -3  14    8.02    2.27
 -11   3  14   11.48    2.91
 -11   3 -14   14.01    2.16
 -11  -3 -14   12.31    2.28
 -11   3 -15   44.30    3.83
 -11  -3 -15   42.71    4.31
 -11  -3  15   43.29    5.13
 -11   3  15   43.09    5.68
 -11  -3 -16    7.38    1.96
 -11   3 -16    4.62    1.47
 -11   3  16    9.31    3.05
 -11  -3  16    6.37    1.92
 -11  -3 -17   15.06    2.64
 -11   3 -17   15.66    2.55
 -11   3  17   16.82    3.74
 -11  -3  17   12.39    3.32
 -11   3 -18    0.75    0.83
 -11  -3 -18   -0.23    1.46
 -11   3  18   -1.21    2.25
 -11  -3  18   -0.67    1.89
 -11   3 -19    4.06    1.59
 -11  -3 -19    1.93    1.31
 -11   3  19    3.19    2.30
 -11  -3  19    2.78    1.38
 -11   3 -20    7.01    1.84
 -11  -3  20    6.78    2.59
 -11   3 -21    0.58    1.20
 -11   3 -22    1.60    1.33
 -11  -4   0   -1.26    1.01
 -11   4   0   -0.21    0.56
 -11   4  -1   35.11    2.75
 -11   4   1   36.97    3.01
 -11   4  -1   39.02    2.83
 -11  -4  -1   31.39    2.85
 -11  -4   1   36.22    3.04
 -11   4  -2  298.88    8.27
 -11   4   2  310.02    9.41
 -11  -4   2  319.10    9.48
 -11   4  -2  317.74    8.50
 -11  -4  -2  305.31    9.19
 -11   4   3   61.77    4.18
 -11   4  -3   64.45    3.60
 -11  -4  -3   63.85    4.05
 -11   4   4   20.00    2.51
 -11  -4  -4   20.80    2.35
 -11   4  -4   19.68    1.99
 -11  -4   5   28.41    2.75
 -11   4   5   26.65    3.04
 -11   4  -5   27.10    2.34
 -11  -4  -5   26.14    2.64
 -11  -4   6   40.42    3.36
 -11   4   6   40.21    3.88
 -11  -4  -6   42.61    3.45
 -11   4  -6   38.87    2.79
 -11   4   7   47.23    4.40
 -11  -4   7   37.58    3.40
 -11  -4  -7   42.68    3.42
 -11   4  -7   42.04    2.94
 -11  -4   8  383.91   11.58
 -11   4   8  384.99   13.65
 -11  -4  -8  392.52   11.30
 -11   4  -8  376.25    9.64
 -11   4   9    1.44    1.30
 -11  -4   9    2.31    1.12
 -11   4  -9    2.81    0.96
 -11  -4  -9    0.84    0.84
 -11   4  10    7.88    2.29
 -11  -4  10    8.55    1.94
 -11   4 -10    8.70    1.44
 -11  -4 -10    8.91    1.89
 -11  -4  11   37.91    3.94
 -11   4 -11   35.80    3.00
 -11  -4 -11   43.01    3.81
 -11   4  11   34.92    4.44
 -11  -4  12  318.87   12.23
 -11   4  12  333.60   14.63
 -11  -4 -12  308.79   11.19
 -11   4 -12  315.75    9.56
 -11  -4  13   14.37    2.76
 -11   4  13   13.12    3.04
 -11   4 -13   14.32    2.02
 -11  -4 -13    9.34    1.90
 -11  -4  14   51.65    5.25
 -11   4 -14   47.40    3.80
 -11  -4 -14   52.35    4.53
 -11   4  14   59.36    6.51
 -11   4 -15   27.46    3.02
 -11  -4 -15   26.47    3.42
 -11   4  15   27.25    4.72
 -11  -4  15   21.48    3.83
 -11   4 -16    0.53    0.75
 -11  -4 -16   -1.53    1.35
 -11   4  16    2.14    1.53
 -11  -4  16    3.09    1.90
 -11  -4 -17    1.83    0.91
 -11   4 -17    3.67    1.29
 -11   4  17    5.50    2.57
 -11  -4  17    5.70    2.26
 -11   4 -18  169.23    8.10
 -11  -4 -18  167.05    9.14
 -11  -4  18  166.56   11.18
 -11   4  18  162.05   11.80
 -11  -4 -19    1.27    1.03
 -11   4 -19    2.80    1.30
 -11   4  19    0.75    1.96
 -11  -4  19   -0.90    1.67
 -11   4 -20  128.54    7.46
 -11  -4  20  139.12   10.82
 -11   4 -21    4.85    1.64
 -11   4 -22   35.49    3.95
 -11  -5   0   -0.53    0.74
 -11   5   0    0.57    0.81
 -11  -5   1    7.57    1.48
 -11   5  -1    9.35    1.39
 -11   5  -1    9.72    1.60
 -11   5   1    9.50    1.59
 -11  -5  -1    5.46    1.34
 -11   5  -2   98.23    4.59
 -11   5   2   94.26    5.24
 -11   5  -2   97.78    4.45
 -11  -5  -2  104.42    5.30
 -11  -5   2   98.59    5.12
 -11  -5   3   73.64    4.46
 -11   5  -3   73.46    3.86
 -11   5   3   72.75    4.75
 -11   5  -3   77.30    3.87
 -11  -5  -3   73.19    4.40
 -11   5   4   70.79    4.92
 -11   5  -4   70.57    3.67
 -11  -5  -4   71.52    4.39
 -11   5   5   39.45    3.87
 -11  -5   5   29.82    2.82
 -11   5  -5   33.69    2.54
 -11  -5  -5   33.16    3.08
 -11   5   6    2.91    1.21
 -11  -5   6    6.24    1.40
 -11  -5  -6    5.15    1.35
 -11   5  -6    6.06    1.13
 -11   5   7  100.21    6.75
 -11  -5   7  106.10    5.73
 -11  -5  -7  102.44    5.56
 -11   5  -7  103.97    4.56
 -11  -5   8   73.04    4.98
 -11   5   8   76.41    6.15
 -11   5  -8   72.46    3.86
 -11  -5  -8   69.36    4.69
 -11   5   9    5.50    1.90
 -11  -5   9    5.70    1.61
 -11   5  -9    5.27    1.06
 -11  -5  -9    4.03    1.30
 -11  -5  10   22.53    2.99
 -11   5  10   34.40    4.42
 -11   5 -10   27.79    2.49
 -11  -5 -10   25.96    2.93
 -11   5  11   11.01    2.66
 -11  -5  11   10.33    2.17
 -11  -5 -11    7.70    1.74
 -11   5 -11   12.49    1.79
 -11  -5  12   71.22    5.81
 -11   5  12   72.32    6.71
 -11   5 -12   72.08    4.29
 -11  -5 -12   74.81    5.33
 -11   5  13    8.47    2.73
 -11  -5  13    5.71    1.80
 -11   5 -13    6.46    1.34
 -11  -5 -13    9.90    2.17
 -11  -5  14   12.14    2.80
 -11   5  14   15.19    3.55
 -11   5 -14   14.01    2.07
 -11  -5 -14   15.11    2.62
 -11  -5  15   22.30    3.97
 -11   5  15   23.05    4.22
 -11  -5 -15   21.65    2.94
 -11   5 -15   20.36    2.52
 -11  -5  16    2.75    1.93
 -11   5  16    2.11    1.81
 -11   5 -16    1.00    0.74
 -11  -5 -16    2.16    1.19
 -11  -5  17   15.23    3.36
 -11   5  17   23.20    4.40
 -11   5 -17   17.66    2.42
 -11  -5 -17   24.00    3.52
 -11  -5  18    0.33    1.32
 -11   5  18    2.57    1.64
 -11  -5 -18    1.61    1.23
 -11   5 -18    1.69    1.01
 -11  -5  19   16.07    3.74
 -11   5 -19   15.38    2.57
 -11  -5  20    0.05    1.56
 -11   5 -20    1.73    1.22
 -11   6   0    0.24    0.65
 -11  -6   0    0.64    0.61
 -11   6   1   42.53    3.51
 -11   6  -1   43.18    3.26
 -11   6  -1   40.42    2.80
 -11  -6   1   47.74    3.58
 -11  -6  -1   41.61    3.37
 -11  -6   2    3.67    1.11
 -11   6   2    2.83    1.18
 -11   6  -2    4.26    0.95
 -11   6  -2    2.85    0.76
 -11  -6  -2    2.95    1.02
 -11   6   3   -0.55    0.94
 -11   6  -3    1.03    0.65
 -11  -6   3   -0.37    0.75
 -11   6  -3    0.04    0.44
 -11  -6  -3    0.19    0.70
 -11   6  -4   40.20    2.81
 -11   6   4   35.46    3.60
 -11  -6   4   38.34    3.30
 -11   6  -4   38.78    2.61
 -11  -6  -4   41.34    3.45
 -11  -6   5   94.50    5.16
 -11   6   5   95.80    6.30
 -11   6  -5   98.72    4.37
 -11  -6  -5   91.78    5.19
 -11   6  -5   90.74    4.05
 -11   6   6    6.78    2.06
 -11  -6   6    4.91    1.25
 -11   6  -6    5.73    1.08
 -11  -6  -6    4.32    1.17
 -11   6   7   33.83    4.03
 -11  -6   7   35.13    3.28
 -11  -6  -7   38.12    3.49
 -11   6  -7   35.91    2.60
 -11   6   8   22.36    3.41
 -11  -6   8   25.14    2.96
 -11   6  -8   24.25    2.17
 -11  -6  -8   27.99    3.00
 -11  -6   9   95.11    5.85
 -11   6   9   92.17    7.24
 -11   6  -9   86.29    4.20
 -11  -6  -9   98.04    5.83
 -11   6  10    7.49    2.27
 -11  -6  10    6.12    1.88
 -11   6 -10    5.56    1.16
 -11  -6 -10    5.75    1.62
 -11  -6  11  346.60   12.39
 -11   6  11  329.86   14.87
 -11  -6 -11  348.98   11.77
 -11   6 -11  351.24    9.46
 -11  -6  12    8.32    2.14
 -11   6  12   10.53    3.13
 -11   6 -12    7.24    1.40
 -11  -6 -12    7.16    1.67
 -11   6  13    2.75    2.48
 -11  -6  13    0.51    1.22
 -11   6 -13    0.85    0.77
 -11  -6 -13    0.74    0.80
 -11  -6  14   51.12    5.23
 -11  -6 -14   57.62    4.98
 -11   6 -14   52.03    3.77
 -11   6  14   55.83    6.52
 -11  -6  15  116.93    8.25
 -11   6  15  122.99    9.94
 -11  -6 -15  123.26    7.53
 -11   6 -15  108.19    5.59
 -11  -6  16   -0.02    1.84
 -11   6  16    1.98    2.45
 -11   6 -16    1.03    0.96
 -11  -6 -16   -0.58    1.12
 -11  -6  17  120.32    9.35
 -11   6  17  129.31   10.47
 -11  -6 -17  128.22    7.94
 -11   6 -17  116.54    6.12
 -11   6  18   -1.91    2.36
 -11  -6  18    0.84    1.45
 -11   6 -18    0.89    0.66
 -11  -6  19   12.57    3.25
 -11  -6  20    1.57    1.44
 -11   7   0   -0.20    0.72
 -11  -7   0   -1.18    0.96
 -11   7   1   56.29    4.26
 -11   7  -1   62.44    4.12
 -11  -7  -1   57.27    4.09
 -11   7  -1   57.70    3.23
 -11  -7   1   51.56    3.86
 -11   7  -2   97.93    4.94
 -11   7   2   87.32    5.64
 -11  -7   2   89.24    5.05
 -11   7  -2   94.58    4.08
 -11  -7  -2   90.37    5.13
 -11   7   3    1.66    0.97
 -11  -7   3   -0.70    0.94
 -11   7  -3    1.23    0.74
 -11   7  -3    1.20    0.60
 -11  -7  -3    2.05    1.10
 -11   7   4    6.62    1.88
 -11  -7   4    9.37    1.71
 -11   7  -4    8.08    1.28
 -11   7  -4    7.72    1.13
 -11  -7  -4    5.41    1.39
 -11   7   5   18.47    2.97
 -11   7  -5   19.79    2.06
 -11  -7   5   15.09    2.22
 -11   7  -5   19.04    1.78
 -11  -7  -5   14.89    2.17
 -11   7   6   52.57    5.05
 -11  -7   6   48.71    3.91
 -11   7  -6   52.47    3.20
 -11  -7  -6   47.92    3.94
 -11   7  -6   47.56    2.85
 -11   7   7   15.79    3.05
 -11   7  -7   15.14    1.71
 -11  -7   7   12.47    2.01
 -11   7  -7   14.82    1.61
 -11  -7  -7   12.81    2.22
 -11   7  -8   96.95    4.24
 -11  -7   8   90.63    5.58
 -11   7   8   90.95    7.16
 -11   7  -8   95.26    4.16
 -11  -7  -8   82.79    5.37
 -11   7   9   17.26    3.40
 -11  -7   9   14.83    2.45
 -11   7  -9   16.21    1.78
 -11  -7  -9   15.57    2.38
 -11  -7  10   -0.43    1.07
 -11   7  10    2.20    1.87
 -11   7 -10    0.62    0.48
 -11  -7 -10    0.76    1.05
 -11  -7  11   35.16    3.89
 -11   7  11   39.77    5.19
 -11   7 -11   40.86    2.94
 -11  -7 -11   38.56    4.04
 -11  -7  12   20.20    3.11
 -11   7  12   18.99    3.83
 -11   7 -12   22.33    2.19
 -11  -7 -12   17.94    2.73
 -11   7  13    1.95    1.87
 -11  -7  13    0.29    0.92
 -11  -7 -13    2.36    1.55
 -11   7 -13    1.60    0.79
 -11  -7  14   -0.79    1.49
 -11   7  14   -0.35    1.84
 -11   7 -14   -0.09    0.60
 -11  -7 -14    1.21    1.03
 -11   7  15   31.40    4.93
 -11  -7  15   24.29    3.72
 -11  -7 -15   26.44    3.55
 -11   7  16    5.31    1.86
 -11  -7  16    7.50    2.32
 -11  -7 -16    8.46    2.16
 -11  -7  17    2.30    1.43
 -11   7  17    1.85    1.50
 -11  -7  18   16.87    3.68
 -11  -7  19    3.05    2.29
 -11  -7  20    0.32    2.47
 -11   8   0   -0.25    1.09
 -11   8   0   -0.73    0.60
 -11  -8   0   -1.08    1.11
 -11   8  -1   16.00    2.19
 -11   8   1   19.16    2.68
 -11   8  -1   17.26    1.75
 -11  -8   1   22.60    2.52
 -11  -8  -1   20.95    2.50
 -11   8  -2  347.30   10.22
 -11   8   2  334.99   11.74
 -11  -8   2  336.79   10.44
 -11  -8  -2  330.37   10.36
 -11   8  -2  346.41    8.10
 -11   8   3    0.71    1.07
 -11   8  -3    0.87    0.70
 -11  -8   3   -0.24    0.72
 -11  -8  -3    1.67    0.99
 -11   8  -3    0.60    0.58
 -11   8   4  230.50   10.38
 -11   8  -4  238.67    7.75
 -11  -8  -4  212.66    8.34
 -11   8  -4  218.56    6.08
 -11  -8   4  230.25    8.53
 -11   8   5   32.46    3.99
 -11  -8   5   25.57    2.81
 -11   8  -5   33.45    2.67
 -11   8  -5   26.56    1.97
 -11  -8  -5   28.21    2.98
 -11   8   6   38.30    4.43
 -11  -8   6   39.43    3.59
 -11   8  -6   46.67    3.05
 -11   8  -6   41.52    2.51
 -11  -8  -6   38.92    3.65
 -11  -8   6   44.30    3.72
 -11   8   7    3.11    1.62
 -11   8  -7    2.69    0.84
 -11  -8   7    2.59    0.88
 -11  -8   7    2.61    1.05
 -11   8  -7    2.02    0.63
 -11  -8  -7    3.04    1.36
 -11   8  -8   96.78    4.27
 -11  -8   8   99.40    5.85
 -11   8   8   90.29    7.30
 -11   8  -8   86.89    3.80
 -11  -8  -8   90.74    5.77
 -11  -8   9    4.05    1.46
 -11   8  -9    1.52    0.68
 -11   8   9    2.36    1.83
 -11   8  -9    2.08    0.71
 -11  -8  -9    1.10    1.05
 -11  -8  10   15.91    2.63
 -11   8  10   14.96    3.10
 -11   8 -10   16.62    1.69
 -11  -8 -10   12.49    2.29
 -11   8  11   35.16    4.93
 -11  -8  11   35.17    3.92
 -11  -8 -11   31.40    3.67
 -11  -8  12   44.68    4.61
 -11  -8 -12   49.46    4.65
 -11   8  12   40.21    5.40
 -11  -8 -13    1.80    0.85
 -11   8  13    2.08    1.90
 -11  -8  13    0.63    1.30
 -11  -8  14   48.75    5.19
 -11   8  14   50.38    6.28
 -11  -8 -14   53.32    5.13
 -11  -8  15    1.00    1.01
 -11   8  15   -1.39    1.86
 -11  -8 -15    2.57    1.32
 -11  -8  16    1.52    2.09
 -11   8  16    1.64    1.36
 -11  -8  17    2.80    2.05
 -11  -8  18   37.69    5.72
 -11  -8  19    1.06    1.64
 -11   9   0   -0.05    1.08
 -11   9   0    0.38    0.48
 -11  -9   0   -1.20    1.02
 -11   9  -1   21.52    2.70
 -11   9   1   19.57    2.81
 -11   9  -1   20.60    1.78
 -11  -9   1   14.84    2.14
 -11  -9  -1   19.99    2.50
 -11   9  -2    9.26    1.88
 -11   9   2    6.22    1.48
 -11  -9  -2    9.36    1.86
 -11  -9   2    5.82    1.39
 -11   9  -2    7.12    0.99
 -11   9  -3    3.62    1.11
 -11   9   3   -0.25    1.14
 -11  -9   3    1.05    0.92
 -11   9  -3    2.08    0.64
 -11  -9  -3    2.06    0.87
 -11   9   4    2.50    1.23
 -11   9  -4    1.24    0.60
 -11  -9   4    2.31    1.03
 -11   9  -4    2.63    0.70
 -11  -9  -4    1.08    0.70
 -11   9  -5   -1.12    0.88
 -11   9   5   -1.63    1.17
 -11  -9   5    0.80    0.67
 -11  -9   5    0.41    0.74
 -11   9  -5    0.24    0.49
 -11  -9  -5    0.86    0.95
 -11   9   6   22.49    3.48
 -11  -9   6   32.17    3.24
 -11  -9   6   30.32    3.17
 -11  -9  -6   27.61    3.18
 -11   9   7    0.88    1.03
 -11  -9   7    1.50    0.92
 -11  -9   7    0.15    0.81
 -11  -9  -7    3.23    1.49
 -11   9   8    0.93    1.02
 -11  -9   8    0.35    1.03
 -11  -9   8    0.74    0.99
 -11  -9  -8   -0.38    0.73
 -11   9   9    5.64    1.97
 -11  -9   9    4.81    1.52
 -11  -9  -9    6.25    1.70
 -11   9  10    1.48    1.83
 -11  -9  10    0.76    0.94
 -11  -9 -10    2.82    1.43
 -11   9  11   18.47    3.74
 -11  -9  11   18.05    2.79
 -11  -9 -11   23.75    3.31
 -11  -9  12    0.34    1.13
 -11   9  12   -0.36    1.53
 -11  -9 -12    1.98    1.41
 -11   9  13   -1.99    2.05
 -11  -9  13    0.99    0.94
 -11  -9 -13    0.88    1.99
 -11  -9  14    1.86    1.04
 -11   9  14    2.62    1.75
 -11  -9 -14    1.18    0.93
 -11   9  15    9.12    2.83
 -11  -9  15   12.83    2.94
 -11  -9  16    5.21    1.94
 -11   9  16    3.74    2.57
 -11  -9  17    1.61    1.14
 -11  10   0   -1.09    1.04
 -11 -10   0    0.86    0.79
 -11  10   1  130.29    7.28
 -11 -10  -1  127.08    6.40
 -11 -10   1  129.19    6.34
 -11  10   1  133.86    4.79
 -11  10   2   15.02    2.50
 -11 -10   2   12.04    1.98
 -11 -10  -2   11.70    2.06
 -11  10   3   14.37    2.87
 -11 -10   3   13.35    2.05
 -11 -10  -3   15.70    2.37
 -11  10   4    2.86    1.65
 -11 -10   4    0.10    0.73
 -11 -10  -4   -1.12    1.05
 -11  10   5  132.37    8.37
 -11 -10   5  143.85    6.83
 -11 -10  -5  132.13    6.95
 -11 -10   5  136.23    6.58
 -11  10   6   -2.44    1.84
 -11 -10   6   -0.84    0.89
 -11 -10   6   -0.30    0.66
 -11 -10  -6   -0.15    0.73
 -11  10   7   11.46    2.64
 -11 -10   7   11.24    2.03
 -11 -10   7   12.59    2.44
 -11 -10  -7   14.31    2.35
 -11  10   8   16.67    3.20
 -11 -10   8   16.21    2.33
 -11 -10   8   18.22    2.62
 -11 -10  -8   17.57    2.73
 -11  10   9   23.79    3.92
 -11 -10   9   23.73    2.95
 -11 -10   9   22.16    3.00
 -11 -10  -9   22.31    2.95
 -11  10  10   10.21    2.81
 -11 -10  10   10.92    2.03
 -11 -10  10   10.96    2.24
 -11 -10 -10   10.58    2.04
 -11 -10  11  101.11    5.96
 -11 -10  11   89.41    6.27
 -11 -10 -11  102.77    6.89
 -11  10  11   96.00    8.19
 -11 -10  12    9.74    2.17
 -11  10  12    9.07    3.09
 -11 -10 -12   10.72    2.36
 -11 -10  13    2.54    1.54
 -11  10  13    3.85    1.48
 -11 -10 -13    2.31    0.92
 -11 -10  14    0.09    1.39
 -11  10  14    2.11    1.63
 -11  10  15   16.37    3.63
 -11 -11   0    0.15    0.95
 -11 -11   1    1.74    1.08
 -11 -11  -1    1.13    0.73
 -11 -11   2    6.39    1.58
 -11 -11  -2    4.18    1.34
 -11 -11  -3    1.30    0.83
 -11 -11   3    1.84    0.91
 -11 -11   4    2.21    0.96
 -11 -11  -4    1.04    0.89
 -11  11   5   -0.30    0.90
 -11 -11   5    1.85    1.09
 -11 -11  -5    0.73    1.33
 -11 -11   5    0.42    0.65
 -11  11   6   -0.25    0.89
 -11 -11   6    0.71    0.87
 -11 -11   6   -0.49    0.87
 -11 -11  -6    0.13    0.77
 -11  11   7    2.45    1.29
 -11 -11   7    0.09    0.75
 -11 -11   7    0.44    0.83
 -11 -11  -7    1.70    1.21
 -11  11   8    0.54    1.15
 -11 -11   8    1.34    1.02
 -11 -11   8    0.12    0.93
 -11 -11  -8    0.85    1.03
 -11  11   9    7.09    2.60
 -11 -11   9    4.40    1.51
 -11 -11   9    6.23    1.56
 -11 -11  -9    6.29    1.76
 -11 -11  10    0.96    1.02
 -11 -11  10    1.62    0.96
 -11 -11 -10   -0.71    1.26
 -11  11  10   -0.21    1.58
 -11 -11  11    3.28    1.40
 -11  11  11    5.65    2.41
 -11 -11 -11    4.62    1.55
 -11  11  12    2.54    1.78
 -11  11  13    1.57    1.70
 -11  11  14    5.72    3.10
 -11 -12   0   -0.61    1.03
 -11 -12  -1    6.15    1.79
 -11 -12   1    5.92    1.50
 -11 -12  -2   51.21    4.24
 -11 -12   2   52.98    4.12
 -11 -12   3    1.67    1.01
 -11 -12  -3    0.81    0.94
 -11 -12   4   36.98    3.50
 -11 -12  -4   29.89    3.37
 -11 -12   4   30.67    3.06
 -11 -12   5   15.21    2.39
 -11 -12  -5   17.17    2.59
 -11 -12   5   15.01    2.16
 -11 -12   6   10.56    1.99
 -11 -12  -6    8.53    2.02
 -11 -12   6    9.13    1.69
 -11 -12  -7   10.05    2.14
 -11 -12  -8   38.75    4.20
 -11 -12  -9    1.16    1.02
 -11 -12 -10   12.82    2.62
 -11 -13   0   -0.19    1.01
 -11 -13  -1    7.30    1.71
 -11 -13  -2    0.29    0.67
 -11 -13  -3    3.46    1.34
 -11 -13  -4    0.14    1.14
 -11 -13  -5    5.67    1.67
 -11 -13  -6    1.44    1.11
 -11 -13  -7    5.67    1.82
 -11 -13  -8    3.74    1.62
 -12   0   0  650.22   14.35
 -12   0  -1   -0.83    0.82
 -12   0  -2  172.84    6.73
 -12   0  -3   -1.22    1.07
 -12   0   3    0.60    0.60
 -12   0   4  263.29    8.88
 -12   0  -4  286.60    8.80
 -12   0   5    0.07    0.65
 -12   0  -5    0.52    0.66
 -12   0   6  188.21    7.82
 -12   0  -6  186.42    7.10
 -12   0   7   -1.17    0.97
 -12   0  -7    0.97    0.75
 -12   0   8   62.61    4.77
 -12   0  -8   58.18    3.98
 -12   0   9   -0.51    0.95
 -12   0  -9   -0.05    0.93
 -12   0  10  150.03    8.13
 -12   0 -10  142.77    6.63
 -12   0  11   -0.19    1.11
 -12   0 -11   -0.97    0.85
 -12   0  12  125.73    8.12
 -12   0 -12  116.66    6.24
 -12   0  13   -1.42    1.88
 -12   0 -13   -0.86    0.96
 -12   0  14  146.62    9.65
 -12   0 -14  152.33    7.59
 -12   0 -15    0.50    1.12
 -12   0  15    2.47    1.87
 -12   0 -16  269.85   10.73
 -12   0  16  286.83   14.47
 -12   0 -17   -0.23    1.02
 -12   0  17   -0.45    1.42
 -12   0 -18   25.50    3.41
 -12   0  18   23.98    4.45
 -12   0 -19    0.00    0.86
 -12   0  19   -0.14    2.15
 -12   0 -20   54.79    5.29
 -12  -1   0    0.40    0.65
 -12   1   0    1.19    0.76
 -12  -1  -1    6.61    1.43
 -12   1  -1    6.18    1.28
 -12  -1  -2    2.89    1.02
 -12   1  -2    4.39    1.21
 -12   1   2    2.68    0.99
 -12  -1   3   10.26    1.75
 -12   1   3    9.64    1.72
 -12   1  -3    7.72    1.45
 -12  -1  -3    9.25    1.58
 -12   1   4    5.21    1.43
 -12  -1   4    7.39    1.63
 -12  -1  -4    4.13    1.13
 -12   1  -4    4.74    1.21
 -12   1   5   23.02    2.73
 -12  -1   5   20.10    2.47
 -12   1  -5   25.43    2.51
 -12  -1  -5   22.09    2.40
 -12  -1   6   31.95    3.16
 -12   1   6   32.29    3.32
 -12  -1  -6   31.16    2.85
 -12   1  -6   32.50    2.92
 -12   1   7   17.21    2.37
 -12  -1   7   19.77    2.66
 -12  -1  -7   22.10    2.52
 -12   1  -7   21.36    2.40
 -12   1   8   13.72    2.42
 -12  -1   8    8.18    1.80
 -12  -1  -8    8.68    1.65
 -12   1  -8   10.85    1.76
 -12  -1   9    2.55    1.05
 -12   1   9    0.72    0.82
 -12  -1  -9    1.70    0.86
 -12   1  -9    1.72    0.71
 -12   1  10   35.01    4.01
 -12  -1  10   39.89    4.18
 -12   1 -10   36.30    3.23
 -12  -1 -10   39.48    3.47
 -12   1  11    4.47    1.63
 -12  -1  11    4.79    1.78
 -12   1 -11    4.87    1.40
 -12  -1 -11    5.33    1.34
 -12   1  12   48.53    5.30
 -12  -1  12   47.27    4.94
 -12   1 -12   48.43    3.92
 -12  -1 -12   51.25    4.18
 -12  -1  13   -0.77    1.17
 -12   1  13    0.94    1.64
 -12   1 -13   -0.05    0.68
 -12  -1 -13   -0.26    0.78
 -12  -1  14    4.55    1.73
 -12   1  14    7.95    2.69
 -12  -1 -14    7.93    1.83
 -12   1 -14    4.79    1.36
 -12   1 -15    0.21    0.90
 -12  -1 -15    0.14    0.90
 -12  -1  15    0.32    1.14
 -12   1  15    0.90    1.41
 -12  -1 -16   28.42    3.51
 -12   1 -16   28.91    3.35
 -12  -1  16   28.29    4.68
 -12   1  16   22.75    4.33
 -12   1 -17   23.79    3.57
 -12  -1 -17   25.68    3.51
 -12  -1  17   26.76    4.42
 -12   1  17   24.84    4.53
 -12  -1 -18    2.05    1.17
 -12   1 -18    2.81    1.48
 -12  -1  18    1.79    2.30
 -12   1  18    4.21    2.31
 -12   1 -19    8.04    2.12
 -12  -1 -19    7.61    2.05
 -12   1  19    6.01    2.68
 -12  -1  19    4.77    2.65
 -12   1 -20    1.68    1.14
 -12   1 -21   -0.60    1.03
 -12  -2   0    0.26    0.66
 -12   2   1   58.15    3.86
 -12  -2   1   63.20    4.09
 -12   2  -1   56.87    3.70
 -12  -2  -1   63.64    4.12
 -12   2   2   26.21    2.61
 -12  -2  -2   18.74    2.35
 -12   2  -2   27.28    2.64
 -12   2   3  688.58   15.39
 -12   2  -3  708.02   14.67
 -12  -2  -3  706.35   15.20
 -12   2   4    5.69    1.45
 -12  -2   4    6.98    1.49
 -12  -2  -4    5.01    1.23
 -12   2  -4    6.63    1.40
 -12   2   5   10.97    1.97
 -12  -2   5   13.96    2.10
 -12  -2  -5   14.14    1.99
 -12   2  -5   10.39    1.65
 -12  -2   6   18.66    2.45
 -12   2   6   20.81    2.75
 -12  -2  -6   18.60    2.31
 -12   2  -6   19.42    2.22
 -12   2   7  290.79   10.75
 -12  -2   7  283.91    9.93
 -12  -2  -7  285.51    9.38
 -12   2  -7  288.92    8.88
 -12   2   8    5.20    1.58
 -12  -2   8    0.92    0.99
 -12   2  -8    2.36    0.81
 -12  -2  -8    2.08    0.99
 -12  -2   9  138.48    7.23
 -12   2   9  122.99    7.41
 -12  -2  -9  126.31    6.32
 -12   2  -9  122.63    5.82
 -12   2  10   -0.44    1.23
 -12  -2  10    1.24    1.07
 -12   2 -10   -0.14    0.64
 -12  -2 -10    0.51    0.73
 -12   2  11    3.80    1.87
 -12  -2  11    8.19    2.17
 -12   2 -11    5.22    1.44
 -12  -2 -11    6.45    1.56
 -12   2  12   20.56    3.51
 -12  -2  12   12.11    2.66
 -12   2 -12   16.94    2.32
 -12  -2 -12   18.50    2.57
 -12   2  13  330.01   14.43
 -12  -2  13  313.12   13.09
 -12  -2 -13  312.00   11.11
 -12   2 -13  312.09   10.40
 -12  -2  14   15.49    3.16
 -12   2  14   15.64    3.44
 -12   2 -14   17.44    2.54
 -12  -2 -14   18.72    2.80
 -12   2 -15   36.21    3.64
 -12  -2 -15   37.13    3.93
 -12  -2  15   39.01    5.04
 -12   2  15   38.08    5.44
 -12  -2 -16   23.17    3.14
 -12   2 -16   23.97    3.07
 -12  -2  16   23.39    4.11
 -12   2  16   22.15    4.04
 -12   2 -17   26.52    3.30
 -12  -2 -17   31.61    3.91
 -12  -2  17   25.68    4.48
 -12   2  17   35.37    5.44
 -12  -2 -18   25.97    3.50
 -12   2 -18   21.14    3.13
 -12   2  18   25.98    4.93
 -12  -2  18   21.92    4.57
 -12   2 -19   77.87    6.00
 -12  -2 -19   82.97    6.46
 -12  -2  19   79.15    8.27
 -12   2 -20    4.27    1.57
 -12   2 -21    6.59    1.96
 -12  -3   0    3.50    1.00
 -12   3   0    0.04    0.56
 -12   3  -1   83.02    4.45
 -12   3   1   74.52    4.38
 -12   3  -1   78.93    4.35
 -12  -3   1   70.15    4.37
 -12  -3  -1   69.04    4.29
 -12  -3   2   31.37    3.00
 -12   3   2   29.13    2.86
 -12   3  -2   28.14    2.62
 -12  -3  -2   25.29    2.68
 -12   3  -3    3.79    1.09
 -12   3   3    1.95    0.86
 -12  -3  -3    1.02    0.95
 -12  -3   4   10.16    1.79
 -12   3   4    8.93    1.65
 -12  -3  -4    8.36    1.56
 -12   3  -4    9.50    1.55
 -12   3   5   -1.49    1.23
 -12  -3   5    0.94    0.81
 -12   3  -5    0.50    0.53
 -12  -3  -5    1.18    0.70
 -12  -3   6    0.72    0.67
 -12   3   6    2.33    1.19
 -12  -3  -6    2.48    0.96
 -12   3  -6    1.28    0.74
 -12   3   7    3.85    1.59
 -12  -3   7    3.42    1.36
 -12  -3  -7    2.39    0.91
 -12   3  -7    4.05    1.13
 -12   3   8   15.70    2.67
 -12  -3   8   18.80    2.70
 -12  -3  -8   21.89    2.62
 -12   3  -8   20.00    2.18
 -12   3   9    8.28    2.16
 -12  -3   9   11.68    2.24
 -12  -3  -9   10.52    1.83
 -12   3  -9   12.04    1.94
 -12   3  10   11.44    2.58
 -12  -3  10    8.53    1.88
 -12   3 -10   12.67    1.89
 -12  -3 -10    9.33    1.83
 -12   3  11   69.25    6.24
 -12  -3  11   57.01    5.05
 -12   3 -11   55.93    4.01
 -12  -3 -11   60.95    4.66
 -12  -3  12   48.18    4.95
 -12   3  12   53.96    5.74
 -12  -3 -12   47.62    4.13
 -12   3 -12   47.10    3.76
 -12  -3  13    0.18    1.05
 -12   3  13   -2.27    2.00
 -12   3 -13    0.90    0.86
 -12  -3 -13    0.53    0.88
 -12  -3  14   13.66    3.10
 -12   3  14   13.62    3.37
 -12   3 -14   11.88    2.02
 -12  -3 -14   19.83    2.97
 -12  -3  15   -0.45    1.13
 -12   3  15   -0.86    1.77
 -12   3 -15   -1.16    1.07
 -12  -3 -15   -0.93    1.20
 -12  -3  16    4.09    2.22
 -12   3  16    0.70    1.45
 -12   3 -16   -0.64    0.98
 -12  -3 -16    1.49    1.07
 -12   3  17    1.83    1.68
 -12  -3  17    0.18    1.62
 -12  -3 -17    0.39    0.93
 -12   3 -17   -0.99    0.98
 -12   3  18   10.35    3.60
 -12  -3  18    6.99    2.47
 -12  -3 -18    4.17    1.54
 -12   3 -18    6.04    1.92
 -12  -3  19    9.68    3.03
 -12   3 -19    4.70    1.59
 -12   3 -20    3.60    1.39
 -12   3 -21    3.09    1.40
 -12   4   0   32.12    2.89
 -12  -4   0   33.49    3.05
 -12  -4   1   12.56    1.95
 -12   4  -1   14.22    1.82
 -12   4   1   13.97    1.99
 -12   4  -1   12.46    1.73
 -12  -4  -1   11.07    1.85
 -12   4  -2  179.00    6.62
 -12   4   2  173.62    7.23
 -12  -4   2  167.93    7.03
 -12   4  -2  188.37    6.76
 -12  -4  -2  178.53    7.16
 -12   4   3   70.01    4.67
 -12   4  -3   74.09    4.09
 -12  -4  -3   58.78    4.08
 -12   4   4  116.05    6.32
 -12  -4  -4  112.50    5.71
 -12   4  -4  120.07    5.22
 -12   4   5    0.23    0.84
 -12  -4   5   -1.04    0.92
 -12   4  -5    0.12    0.56
 -12  -4  -5   -0.64    1.00
 -12  -4   6  182.98    7.63
 -12   4   6  181.88    8.54
 -12  -4  -6  180.89    7.52
 -12   4  -6  184.08    6.61
 -12   4   7    0.57    0.85
 -12  -4   7    3.91    1.33
 -12  -4  -7    1.48    0.77
 -12   4  -7    3.84    1.06
 -12   4   8   22.34    3.25
 -12  -4   8   17.66    2.63
 -12  -4  -8   18.45    2.46
 -12   4  -8   20.03    2.19
 -12   4   9    8.15    2.25
 -12  -4   9    9.02    1.93
 -12   4  -9    8.86    1.54
 -12  -4  -9   13.07    2.10
 -12  -4  10  185.87    8.73
 -12   4  10  182.50   10.12
 -12  -4 -10  183.66    8.23
 -12   4 -10  180.68    6.99
 -12  -4  11   24.03    3.32
 -12   4  11   27.76    4.12
 -12   4 -11   24.08    2.57
 -12  -4 -11   22.69    2.91
 -12  -4  12  257.02   11.21
 -12   4  12  255.95   12.93
 -12   4 -12  243.97    8.61
 -12  -4 -12  250.57    9.93
 -12   4  13   -1.12    1.79
 -12  -4  13   -1.13    1.43
 -12   4 -13    0.65    0.62
 -12  -4 -13    1.28    1.03
 -12  -4  14   57.75    5.79
 -12  -4 -14   58.09    5.01
 -12   4 -14   55.46    4.18
 -12   4  14   55.22    6.48
 -12  -4 -15   18.52    3.02
 -12   4 -15   14.96    2.26
 -12  -4  15   11.59    3.06
 -12   4  15   25.07    4.55
 -12  -4  16  184.61   11.06
 -12  -4 -16  195.83    9.61
 -12   4 -16  184.80    8.16
 -12   4  16  185.57   12.42
 -12  -4 -17    8.86    2.25
 -12   4 -17    6.26    1.62
 -12   4  17    9.91    3.08
 -12  -4  17   10.08    3.14
 -12   4 -18    2.88    1.52
 -12   4  18    1.83    1.63
 -12  -4  18    3.12    1.34
 -12   4 -19   -1.13    1.49
 -12  -4  19    0.56    1.97
 -12   4 -20   60.86    5.11
 -12   4 -21    2.08    1.41
 -12   5   0    7.37    1.47
 -12  -5   0    5.72    1.34
 -12   5  -1   82.57    4.56
 -12   5   1   80.76    4.85
 -12  -5  -1   77.45    4.75
 -12   5  -1   82.00    4.31
 -12  -5   1   86.11    5.02
 -12   5  -2  116.94    5.32
 -12   5   2  113.21    5.98
 -12  -5   2  121.44    5.97
 -12  -5  -2  112.60    5.72
 -12   5  -2  113.31    5.08
 -12  -5   3   15.26    2.17
 -12   5  -3   11.36    1.66
 -12   5   3   15.87    2.49
 -12  -5  -3   12.62    2.01
 -12   5  -3   14.77    1.84
 -12   5  -4   21.37    2.17
 -12   5   4   21.13    2.88
 -12   5  -4   21.49    2.19
 -12  -5  -4   22.02    2.61
 -12  -5   5   31.98    3.14
 -12   5   5   36.10    3.83
 -12   5  -5   38.01    2.85
 -12  -5  -5   35.77    3.31
 -12   5   6    3.97    1.51
 -12  -5   6    2.55    1.12
 -12  -5  -6    4.07    1.22
 -12   5  -6    5.90    1.23
 -12   5   7    0.09    1.05
 -12  -5   7    0.13    0.68
 -12   5  -7   -0.38    0.58
 -12  -5  -7   -0.39    0.71
 -12   5   8    1.06    1.45
 -12  -5   8    1.28    1.17
 -12  -5  -8   -0.95    0.76
 -12   5  -8    0.40    0.56
 -12   5   9   17.27    3.25
 -12  -5   9   14.33    2.39
 -12   5  -9   17.42    2.06
 -12  -5  -9   13.66    2.22
 -12  -5  10   25.71    3.25
 -12   5  10   32.38    4.50
 -12   5 -10   26.85    2.55
 -12  -5 -10   25.81    3.20
 -12  -5  11   44.88    4.46
 -12   5 -11   44.87    3.39
 -12  -5 -11   39.93    3.92
 -12   5  11   36.94    4.96
 -12  -5  12   42.88    4.57
 -12   5 -12   35.48    3.10
 -12  -5 -12   38.69    3.95
 -12   5  12   46.43    5.74
 -12  -5  13   58.10    5.81
 -12   5  13   74.70    7.39
 -12  -5 -13   68.34    5.38
 -12   5 -13   76.08    4.65
 -12   5  14   13.00    3.66
 -12  -5  14   10.54    2.76
 -12   5 -14    8.77    1.70
 -12  -5 -14   10.72    2.40
 -12   5  15    3.50    1.93
 -12  -5  15    2.40    1.46
 -12   5 -15    1.94    0.81
 -12  -5 -15    0.85    0.99
 -12  -5  16    3.47    2.00
 -12   5  16   -2.93    2.00
 -12  -5 -16    0.72    1.09
 -12   5 -16    0.48    0.95
 -12  -5  17   17.72    3.72
 -12   5  17   18.05    4.20
 -12   5 -17   17.39    2.53
 -12  -5 -17   18.62    3.09
 -12  -5  18    2.28    2.00
 -12   5 -18    2.20    0.95
 -12  -5  19    1.37    1.56
 -12   5 -19    3.86    1.40
 -12   6   0   22.76    2.60
 -12   6   0   24.52    2.38
 -12  -6   0   19.99    2.46
 -12   6   1  154.05    7.06
 -12   6  -1  163.71    6.74
 -12  -6   1  159.13    7.01
 -12  -6  -1  154.25    6.89
 -12   6  -1  159.41    5.98
 -12   6  -2    0.79    0.55
 -12  -6   2    1.97    1.19
 -12   6  -2    2.56    0.91
 -12   6   2    2.00    1.12
 -12  -6  -2    0.77    0.73
 -12   6  -3  413.53   10.53
 -12   6   3  394.00   12.56
 -12  -6   3  410.81   11.76
 -12   6  -3  408.77    9.94
 -12  -6  -3  405.77   11.62
 -12   6   4   12.39    2.35
 -12  -6   4   12.76    1.97
 -12   6  -4   17.68    2.02
 -12  -6  -4   18.03    2.42
 -12   6  -4   15.43    1.79
 -12   6   5    1.05    1.19
 -12  -6   5    2.53    1.30
 -12   6  -5    1.23    0.72
 -12  -6  -5    4.61    1.52
 -12   6  -5    0.91    0.61
 -12   6   6   21.10    3.17
 -12   6  -6   20.62    2.16
 -12  -6   6   23.60    2.83
 -12   6  -6   21.77    2.15
 -12  -6  -6   22.18    2.71
 -12   6   7  258.12   11.60
 -12  -6   7  260.27    9.58
 -12  -6  -7  259.11    9.60
 -12   6  -7  254.43    7.53
 -12   6   8    6.77    2.03
 -12  -6   8    6.23    1.66
 -12   6  -8    5.29    1.15
 -12  -6  -8    3.86    1.31
 -12   6   9   59.15    5.92
 -12  -6   9   71.95    5.32
 -12  -6  -9   62.95    4.76
 -12   6  -9   67.73    3.88
 -12  -6  10   87.63    6.06
 -12   6  10  110.10    8.28
 -12   6 -10   95.42    4.72
 -12  -6 -10   94.64    6.01
 -12  -6  11   39.46    4.28
 -12   6  11   38.47    5.14
 -12   6 -11   41.92    3.20
 -12  -6 -11   34.65    3.71
 -12  -6  12    7.78    2.09
 -12   6  12    8.71    2.74
 -12   6 -12    7.63    1.35
 -12  -6 -12    8.60    2.04
 -12  -6  13  230.17   11.12
 -12   6  13  222.92   13.06
 -12   6 -13  222.07    8.01
 -12  -6 -13  241.99   10.41
 -12  -6  14   -0.94    1.23
 -12   6  14    1.24    2.27
 -12   6 -14   -0.37    0.70
 -12  -6 -14    1.16    1.34
 -12  -6  15   52.28    5.86
 -12   6  15   57.41    6.94
 -12  -6 -15   57.80    5.23
 -12   6 -15   52.10    3.98
 -12  -6  16    3.85    1.82
 -12   6  16    4.26    2.27
 -12   6 -16    3.67    1.23
 -12  -6 -16    4.24    1.74
 -12  -6  17   15.46    3.45
 -12   6  17   17.83    4.11
 -12  -6  18    1.94    1.73
 -12  -6  19   80.90    8.04
 -12   7   0   70.20    4.77
 -12   7   0   74.03    4.02
 -12  -7   0   65.56    4.47
 -12   7   1    4.70    1.29
 -12   7  -1    4.53    0.98
 -12   7  -1    5.65    1.58
 -12  -7  -1    4.75    1.32
 -12  -7   1    4.20    1.38
 -12   7  -2   92.12    5.08
 -12   7   2   85.70    5.72
 -12   7  -2   92.64    4.31
 -12  -7   2   91.11    5.36
 -12  -7  -2   80.75    5.06
 -12   7   3    5.00    1.57
 -12  -7   3    9.68    1.87
 -12   7  -3    4.71    1.15
 -12   7  -3    5.84    1.16
 -12  -7  -3    6.42    1.64
 -12   7   4   13.66    2.50
 -12  -7   4   12.34    2.08
 -12   7  -4   11.15    1.62
 -12   7  -4   11.55    1.55
 -12  -7  -4   12.67    2.10
 -12   7   5    2.15    1.61
 -12   7  -5    0.12    0.51
 -12  -7   5   -0.76    0.94
 -12  -7   5   -0.14    0.72
 -12  -7  -5    0.01    0.88
 -12   7  -5    1.04    0.69
 -12   7   6   29.50    4.11
 -12  -7   6   25.49    2.96
 -12   7  -6   28.27    2.45
 -12  -7   6   25.58    2.99
 -12   7  -6   26.39    2.24
 -12  -7  -6   22.05    2.84
 -12   7   7    8.20    2.30
 -12   7  -7    8.50    1.36
 -12  -7   7    5.45    1.36
 -12   7  -7    5.91    1.11
 -12  -7  -7    5.90    1.51
 -12   7   8   16.90    3.19
 -12  -7   8   24.65    3.06
 -12   7  -8   24.84    2.33
 -12  -7  -8   16.60    2.51
 -12   7  -8   20.62    2.08
 -12   7   9    1.82    1.51
 -12  -7   9    1.90    1.39
 -12   7  -9    0.38    0.46
 -12  -7  -9   -1.23    1.15
 -12  -7  10   52.46    4.73
 -12   7  10   48.35    5.74
 -12   7 -10   52.04    3.37
 -12  -7 -10   51.10    4.53
 -12  -7  11    0.08    0.94
 -12   7  11   -1.18    1.26
 -12   7 -11    0.06    0.69
 -12  -7 -11    2.34    1.31
 -12  -7  12   19.01    3.13
 -12   7  12   19.50    4.00
 -12   7 -12   19.32    2.16
 -12  -7 -12   16.83    2.90
 -12  -7  13    2.50    1.32
 -12   7  13    5.21    2.58
 -12   7 -13    3.14    0.84
 -12  -7 -13    2.28    1.44
 -12  -7  14    3.85    1.79
 -12   7  14    2.26    1.94
 -12  -7 -14    4.40    1.70
 -12  -7  15   -2.21    1.72
 -12   7  15   -1.77    1.48
 -12  -7 -15    1.41    1.12
 -12   7  16    1.25    1.30
 -12  -7  16   -0.46    1.13
 -12  -7  17   11.06    3.06
 -12  -7  18   -0.13    1.76
 -12  -7  19   18.81    4.28
 -12   8   0  333.40   11.25
 -12  -8   0  315.70   10.34
 -12   8   0  332.31    8.68
 -12   8  -1   76.83    5.11
 -12   8   1   73.01    5.35
 -12  -8   1   63.07    4.51
 -12   8  -1   73.62    3.77
 -12  -8  -1   64.47    4.53
 -12   8   2   13.65    2.53
 -12   8  -2   12.62    1.92
 -12  -8   2   12.97    2.01
 -12  -8  -2   17.54    2.44
 -12   8  -2   17.53    1.79
 -12   8   3   21.49    3.17
 -12   8  -3   24.19    2.61
 -12  -8   3   24.25    2.80
 -12   8  -3   21.82    1.94
 -12  -8  -3   23.66    2.85
 -12   8   4   87.42    6.56
 -12   8  -4   96.64    5.08
 -12  -8  -4   89.48    5.52
 -12  -8   4   89.39    5.56
 -12   8  -4   90.23    4.00
 -12   8   5    0.81    1.06
 -12  -8   5   -0.17    0.83
 -12   8  -5   -0.95    0.87
 -12  -8   5    0.41    0.96
 -12   8  -5   -0.75    0.48
 -12  -8  -5   -1.16    1.02
 -12   8   6  139.47    8.77
 -12  -8   6  153.78    7.38
 -12   8  -6  161.98    6.25
 -12  -8   6  160.57    7.46
 -12  -8  -6  147.52    7.36
 -12   8  -6  150.93    5.28
 -12   8   7    6.88    2.13
 -12  -8   7    6.04    1.51
 -12   8  -7    5.36    1.11
 -12  -8   7    7.71    1.73
 -12   8  -7    6.98    1.24
 -12  -8  -7    3.64    1.34
 -12   8   8    0.67    1.34
 -12   8  -8    3.04    0.89
 -12  -8   8    2.32    1.20
 -12   8  -8    0.81    0.54
 -12  -8  -8    2.75    0.99
 -12  -8   9   23.90    3.14
 -12   8   9   27.27    4.62
 -12   8  -9   27.29    2.30
 -12  -8  -9   29.45    3.51
 -12  -8  10   83.51    6.01
 -12   8  10   87.82    7.85
 -12  -8 -10   86.43    6.02
 -12   8  11   10.48    2.92
 -12  -8  11    7.73    2.01
 -12  -8 -11    7.81    2.04
 -12  -8  12   56.79    5.51
 -12  -8 -12   67.10    5.48
 -12   8  12   61.32    7.12
 -12  -8  13    7.11    2.29
 -12  -8 -13    8.08    2.14
 -12   8  13    7.99    2.42
 -12  -8 -14   28.25    3.78
 -12  -8  14   18.73    3.60
 -12   8  14   23.08    4.38
 -12  -8  15   18.05    3.34
 -12   8  15   12.33    3.20
 -12  -8  16   71.18    7.07
 -12  -8  17    6.28    2.67
 -12  -8  18   10.92    3.21
 -12   9   0    2.83    1.31
 -12   9   0    3.51    1.00
 -12  -9   0    4.22    1.26
 -12   9   1   31.81    3.66
 -12   9  -1   30.07    3.39
 -12   9   1   31.21    2.49
 -12   9  -1   29.53    2.32
 -12  -9   1   24.99    2.92
 -12  -9  -1   21.46    2.72
 -12   9  -2    0.38    0.78
 -12   9   2   -0.27    0.91
 -12  -9  -2    0.07    0.72
 -12  -9   2    0.31    0.83
 -12   9  -2   -0.05    0.48
 -12   9   3   71.43    5.84
 -12   9  -3   70.83    4.80
 -12  -9  -3   59.95    4.55
 -12  -9   3   65.33    4.66
 -12   9  -3   69.53    3.38
 -12   9  -4    3.95    1.08
 -12   9   4    1.99    1.28
 -12  -9   4    3.31    1.30
 -12  -9  -4    3.86    1.34
 -12   9   5    1.50    1.21
 -12  -9   5    0.27    0.81
 -12  -9   5    1.41    1.10
 -12  -9  -5   -1.53    1.11
 -12   9   6    5.10    1.97
 -12  -9   6    4.38    1.36
 -12  -9   6    6.29    1.62
 -12  -9  -6    7.77    1.93
 -12   9   7    4.50    2.08
 -12  -9   7    7.02    1.69
 -12  -9   7    4.19    1.39
 -12  -9  -7    4.56    1.64
 -12   9   8    8.39    2.30
 -12  -9   8    9.89    2.05
 -12  -9   8    7.67    1.91
 -12  -9  -8   10.73    2.12
 -12   9   9    9.95    2.51
 -12  -9   9   13.30    2.35
 -12  -9   9   10.39    2.00
 -12  -9  -9   12.97    2.46
 -12   9  10    3.22    1.60
 -12  -9  10    3.88    1.53
 -12  -9 -10    5.13    1.51
 -12   9  11    4.41    2.22
 -12  -9  11    3.47    1.68
 -12  -9 -11    2.83    1.47
 -12  -9  12    1.17    1.37
 -12   9  12    2.00    1.36
 -12  -9 -12    1.87    1.07
 -12   9  13   -1.27    1.46
 -12  -9  13   -0.17    1.16
 -12  -9  14    4.10    1.54
 -12   9  14    7.32    2.32
 -12  -9  15    2.15    1.23
 -12   9  15    6.07    2.86
 -12  -9  16    1.51    1.51
 -12 -10   0   43.65    3.85
 -12  10   1    8.04    1.98
 -12 -10  -1    5.18    1.48
 -12 -10   1    4.56    1.39
 -12  10   2    2.29    1.72
 -12 -10  -2    0.21    0.69
 -12 -10   2   -0.31    0.86
 -12  10   3   52.47    5.17
 -12 -10   3   49.42    4.08
 -12 -10  -3   55.08    4.40
 -12  10   4    1.69    1.26
 -12 -10   4    0.91    0.76
 -12 -10  -4    4.15    1.54
 -12  10   5    5.85    2.24
 -12 -10   5    7.39    1.76
 -12 -10  -5    4.44    1.47
 -12 -10   5    9.25    1.89
 -12  10   6    2.81    1.48
 -12 -10   6    4.97    1.74
 -12 -10   6    1.61    0.75
 -12 -10  -6    2.19    1.31
 -12 -10   7   56.32    4.64
 -12  10   7   54.70    5.74
 -12 -10  -7   51.95    4.61
 -12 -10   7   60.18    4.59
 -12  10   8    3.40    2.05
 -12 -10   8   -0.68    1.15
 -12 -10   8   -0.05    1.01
 -12 -10  -8    1.10    1.09
 -12 -10   9   49.17    4.64
 -12  10   9   57.13    6.39
 -12 -10  -9   53.72    4.88
 -12 -10   9   57.91    4.59
 -12  10  10    5.21    1.32
 -12 -10  10    2.26    1.16
 -12 -10  10    5.91    1.71
 -12 -10 -10    6.64    2.02
 -12 -10  11    0.57    0.91
 -12 -10  11    0.68    1.36
 -12 -10 -11    0.17    1.24
 -12  10  11    1.57    1.55
 -12  10  12    3.94    1.61
 -12 -10  12    4.00    1.57
 -12  10  13   74.36    8.12
 -12 -10  13   70.55    6.22
 -12  10  14    3.87    2.33
 -12 -11   0    1.54    1.01
 -12 -11   1    2.65    1.30
 -12 -11  -1   -0.21    0.81
 -12 -11   2    1.77    1.09
 -12 -11  -2   -0.78    1.00
 -12 -11  -3   -0.16    0.81
 -12 -11   3    1.14    1.04
 -12 -11   4    0.22    0.71
 -12 -11  -4    0.11    0.84
 -12 -11   5    4.65    1.28
 -12 -11  -5    2.02    0.98
 -12 -11   5    1.78    1.07
 -12 -11   6    0.46    0.92
 -12 -11  -6   -1.54    1.26
 -12 -11   6    1.49    1.22
 -12 -11   7   -0.36    0.77
 -12 -11  -7   -0.81    0.99
 -12 -11   7   -0.02    0.80
 -12  11   8    9.81    2.93
 -12 -11   8    7.90    1.83
 -12 -11   8    8.10    1.83
 -12 -11  -8   10.15    2.39
 -12  11   9    4.75    1.88
 -12 -11   9    4.62    1.49
 -12 -11   9    3.44    1.44
 -12 -11  -9    4.05    1.73
 -12 -11  10    0.86    0.77
 -12 -11  10    0.02    1.07
 -12 -11 -10    1.46    1.34
 -12  11  10   -0.17    1.70
 -12  11  11    0.95    1.76
 -12 -11  11   -0.18    0.80
 -12  11  12   -4.01    2.16
 -12  11  13   -2.34    2.29
 -12 -12   0   79.93    5.33
 -12 -12  -1    4.57    1.44
 -12 -12   1    5.38    1.50
 -12 -12   2   10.71    1.90
 -12 -12  -2    8.71    1.92
 -12 -12   3   10.06    2.02
 -12 -12  -3    8.91    1.95
 -12 -12   4   38.90    3.71
 -12 -12   4   42.23    3.77
 -12 -12  -4   44.33    4.21
 -12 -12   5    5.84    1.63
 -12 -12  -5    2.69    1.24
 -12 -12   5    5.92    1.47
 -12 -12   6   40.20    3.91
 -12 -12  -6   40.44    4.21
 -12 -12   6   41.88    3.83
 -12 -12  -7    1.24    1.09
 -12 -12  -8    7.32    1.92
 -12 -13  -1    1.10    0.99
 -12 -13  -2    9.61    2.19
 -12 -13  -3    0.81    0.87
 -12 -13  -4    1.32    1.12
 -12 -13  -5   -0.47    0.88
 -12 -13  -6    8.53    2.16
 -13   0   0    0.46    0.71
 -13   0  -1   -0.69    0.90
 -13   0   2  111.72    5.68
 -13   0  -2  105.71    5.47
 -13   0   3   -0.20    0.88
 -13   0  -3    0.75    0.86
 -13   0   4  218.16    8.38
 -13   0  -4  216.90    7.95
 -13   0   5    1.05    0.94
 -13   0  -5   -0.41    0.61
 -13   0   6   11.46    2.10
 -13   0  -6    8.54    1.69
 -13   0   7   -0.16    0.80
 -13   0  -7    0.40    1.00
 -13   0   8  214.95    9.39
 -13   0  -8  220.66    8.37
 -13   0   9    1.06    1.15
 -13   0  -9    1.98    1.18
 -13   0  10   77.92    6.03
 -13   0 -10   80.13    5.14
 -13   0  11    0.39    1.15
 -13   0 -11    0.07    0.84
 -13   0  12   55.40    5.58
 -13   0 -12   51.14    4.27
 -13   0  13   -0.30    1.31
 -13   0 -13   -0.38    0.91
 -13   0  14  141.55    9.68
 -13   0 -14  147.14    7.63
 -13   0 -15   -0.34    1.23
 -13   0  15   -2.22    2.15
 -13   0 -16    4.24    1.47
 -13   0  16   11.52    3.25
 -13   0 -17    0.02    0.98
 -13   0  17   -0.82    1.39
 -13   0 -18   75.28    6.00
 -13   0  18   73.72    7.94
 -13   0 -19   -1.59    1.38
 -13  -1   0   -1.34    1.09
 -13   1   0   -0.50    0.74
 -13  -1  -1   22.92    2.65
 -13   1  -1   18.72    2.30
 -13  -1   1   23.11    2.58
 -13   1   1   19.51    2.38
 -13   1   2   42.28    3.50
 -13  -1  -2   46.86    3.65
 -13   1  -2   40.80    3.34
 -13  -1   3    9.61    1.81
 -13   1   3    7.74    1.65
 -13   1  -3    8.37    1.62
 -13  -1  -3    9.00    1.71
 -13   1   4    4.26    1.43
 -13  -1   4    5.62    1.47
 -13   1  -4    3.51    1.19
 -13  -1  -4    2.63    1.03
 -13   1   5    1.61    1.00
 -13  -1   5    0.36    0.80
 -13  -1  -5    0.77    0.71
 -13   1  -5    1.52    0.65
 -13  -1   6   20.70    2.80
 -13   1   6   17.72    2.56
 -13  -1  -6   20.64    2.52
 -13   1  -6   20.24    2.43
 -13   1   7    7.43    1.63
 -13  -1   7   12.59    2.28
 -13  -1  -7   11.67    1.95
 -13   1  -7   10.78    1.87
 -13   1   8    5.27    1.53
 -13  -1   8    2.86    1.18
 -13  -1  -8    3.30    1.05
 -13   1  -8    3.10    1.00
 -13  -1   9   -1.64    1.26
 -13   1   9    1.69    1.63
 -13  -1  -9    0.20    0.76
 -13   1  -9    0.70    0.70
 -13  -1  10    4.87    1.65
 -13   1  10    2.08    1.37
 -13   1 -10    3.35    1.26
 -13  -1 -10    1.95    1.19
 -13   1  11    6.40    2.14
 -13  -1  11    5.70    1.86
 -13   1 -11    4.86    1.48
 -13  -1 -11    6.24    1.57
 -13   1  12   19.58    3.46
 -13  -1  12   20.08    3.34
 -13   1 -12   18.83    2.60
 -13  -1 -12   17.76    2.69
 -13  -1  13   -0.45    1.43
 -13   1  13    3.51    2.58
 -13   1 -13    0.15    0.82
 -13  -1 -13    0.25    0.77
 -13  -1  14   -1.37    1.80
 -13   1  14    3.89    2.25
 -13   1 -14    0.68    0.75
 -13  -1 -14   -1.08    1.11
 -13  -1  15    4.93    2.25
 -13   1  15    2.32    1.71
 -13   1 -15    2.36    1.22
 -13  -1 -15    4.80    1.57
 -13   1 -16    2.07    1.39
 -13  -1 -16    6.50    1.87
 -13  -1  16    0.43    1.76
 -13   1  16    0.06    1.46
 -13   1 -17    1.09    1.20
 -13  -1 -17    0.62    0.89
 -13   1  17   -1.51    2.14
 -13   1 -18    2.68    1.28
 -13  -1 -18    2.20    1.66
 -13  -1  18    0.57    1.66
 -13   1 -19    4.59    1.67
 -13  -2   0    0.44    0.79
 -13   2   0    0.24    0.74
 -13   2   0    0.08    0.60
 -13   2   1  192.83    7.56
 -13  -2   1  182.92    7.48
 -13   2  -1  191.21    7.35
 -13  -2  -1  187.10    7.52
 -13   2   2   36.52    3.31
 -13  -2  -2   39.57    3.39
 -13   2  -2   39.40    3.25
 -13   2   3   51.02    3.98
 -13   2  -3   51.50    3.68
 -13  -2  -3   50.89    3.85
 -13   2   4   20.02    2.64
 -13  -2   4   18.34    2.38
 -13   2  -4   18.53    2.25
 -13  -2  -4   15.18    2.16
 -13  -2   5  500.67   13.40
 -13   2   5  505.09   14.01
 -13  -2  -5  493.96   12.95
 -13   2  -5  505.80   12.44
 -13  -2   6    4.76    1.35
 -13   2   6    2.62    1.10
 -13  -2  -6    5.41    1.34
 -13   2  -6    4.83    1.19
 -13   2   7   81.22    5.76
 -13  -2   7   91.91    5.77
 -13  -2  -7   83.73    5.15
 -13   2  -7   84.14    4.83
 -13   2   8    8.15    2.06
 -13  -2   8    6.46    1.95
 -13  -2  -8    4.44    1.24
 -13   2  -8    3.77    1.06
 -13   2   9   33.86    4.16
 -13  -2   9   34.80    3.77
 -13  -2  -9   35.36    3.47
 -13   2  -9   35.03    3.21
 -13   2  10   21.46    3.50
 -13  -2  10   23.33    3.24
 -13   2 -10   16.98    2.28
 -13  -2 -10   20.18    2.66
 -13  -2  11   51.47    4.96
 -13   2  11   56.31    5.75
 -13  -2 -11   56.44    4.52
 -13   2 -11   46.99    3.89
 -13   2  12   -0.51    1.12
 -13  -2  12   -0.38    1.06
 -13   2 -12    0.33    0.90
 -13  -2 -12   -0.39    0.90
 -13  -2  13    3.56    1.78
 -13   2  13    2.24    1.19
 -13   2 -13    2.80    0.97
 -13  -2 -13    1.60    1.13
 -13  -2  14   -1.50    1.83
 -13   2  14   -1.34    1.52
 -13  -2 -14   -1.70    1.39
 -13   2 -14    0.16    0.75
 -13  -2  15   25.65    4.20
 -13   2  15   30.17    4.97
 -13   2 -15   27.43    3.21
 -13  -2 -15   31.84    3.74
 -13   2 -16   -1.28    1.21
 -13  -2 -16    0.28    1.13
 -13  -2  16    1.37    1.50
 -13   2  16    0.53    1.43
 -13   2 -17   85.92    6.04
 -13  -2 -17   93.27    6.64
 -13  -2  17   79.35    7.90
 -13   2  17   78.25    8.18
 -13  -2 -18   -0.47    1.29
 -13   2 -18   -1.32    1.43
 -13  -2  18   -0.58    2.02
 -13   2 -19    1.23    1.11
 -13   2 -20   -0.37    1.19
 -13  -3   0   -0.64    0.98
 -13   3   0   -1.13    0.91
 -13   3   0    0.55    0.68
 -13  -3  -1    2.22    1.13
 -13  -3   1    5.30    1.41
 -13   3  -1    5.59    1.22
 -13   3  -1    3.70    1.17
 -13   3   1    2.38    0.89
 -13   3  -2    0.89    0.68
 -13   3   2    1.15    0.98
 -13  -3   2    0.83    0.76
 -13  -3  -2    0.63    0.70
 -13   3  -3   10.23    1.68
 -13   3   3    7.06    1.66
 -13  -3  -3    8.70    1.78
 -13  -3   4  123.39    6.19
 -13   3   4  131.39    6.75
 -13  -3  -4  127.79    6.23
 -13   3  -4  123.34    5.69
 -13   3   5   35.37    3.57
 -13  -3   5   34.08    3.32
 -13   3  -5   39.72    3.17
 -13  -3  -5   38.85    3.45
 -13  -3   6   10.13    1.93
 -13   3   6    9.05    2.03
 -13  -3  -6    5.57    1.47
 -13   3  -6    9.68    1.64
 -13  -3   7    5.56    1.65
 -13   3   7    5.99    1.89
 -13  -3  -7    6.54    1.52
 -13   3  -7    5.67    1.29
 -13   3   8   20.91    3.31
 -13  -3   8   18.54    2.74
 -13   3  -8   17.26    2.23
 -13  -3  -8   18.78    2.56
 -13   3   9   -0.44    1.32
 -13  -3   9    1.74    1.05
 -13  -3  -9    0.85    0.89
 -13   3  -9    1.77    0.88
 -13   3  10   10.60    2.63
 -13  -3  10    8.17    1.87
 -13   3 -10    8.51    1.56
 -13  -3 -10    8.17    1.83
 -13   3  11   23.49    3.80
 -13  -3  11   28.51    3.83
 -13   3 -11   20.04    2.54
 -13  -3 -11   22.01    2.98
 -13   3  12   10.00    2.73
 -13  -3  12    7.96    2.38
 -13   3 -12    6.87    1.53
 -13  -3 -12    6.32    1.68
 -13   3  13   -0.14    1.08
 -13  -3  13    1.84    1.16
 -13   3 -13    4.57    1.37
 -13  -3 -13    1.37    0.85
 -13  -3  14  125.85    8.89
 -13   3 -14  126.86    6.75
 -13  -3 -14  132.36    7.57
 -13   3  14  138.35   10.15
 -13  -3  15   50.48    5.80
 -13  -3 -15   45.79    4.53
 -13   3 -15   40.66    3.97
 -13   3  15   50.19    6.47
 -13   3 -16    2.48    1.30
 -13  -3 -16    1.71    1.10
 -13  -3  16    2.48    2.05
 -13   3  16    3.77    1.98
 -13   3 -17    1.67    1.43
 -13  -3 -17    9.69    2.41
 -13   3  17    3.97    2.12
 -13  -3  17    1.37    1.18
 -13   3 -18   12.06    2.21
 -13  -3  18   12.67    2.90
 -13   3 -19    2.44    1.20
 -13   3 -20   -0.21    0.85
 -13   4   0   -0.87    0.74
 -13  -4   0   -0.18    0.97
 -13   4   0   -0.26    0.61
 -13  -4   1    9.67    1.89
 -13   4  -1   11.09    1.71
 -13   4   1   12.61    2.08
 -13   4  -1    8.25    1.58
 -13  -4  -1    7.10    1.50
 -13   4  -2  169.88    6.83
 -13   4   2  164.48    7.35
 -13  -4  -2  167.13    7.26
 -13  -4   2  170.05    7.38
 -13   4  -2  174.03    6.80
 -13  -4   3    0.28    0.95
 -13   4   3    2.58    1.07
 -13   4  -3    1.71    0.92
 -13  -4  -3    1.01    0.76
 -13   4   4  162.19    7.74
 -13  -4   4  174.85    7.55
 -13  -4  -4  167.45    7.30
 -13   4  -4  164.23    6.51
 -13   4   5    7.26    2.04
 -13  -4   5    6.19    1.70
 -13   4  -5    7.48    1.42
 -13  -4  -5    4.51    1.29
 -13  -4   6   58.18    4.48
 -13   4   6   62.31    5.11
 -13  -4  -6   62.42    4.51
 -13   4  -6   60.97    3.90
 -13   4   7   60.26    5.36
 -13  -4   7   57.98    4.59
 -13  -4  -7   57.43    4.38
 -13   4  -7   61.29    3.97
 -13   4   8  367.79   13.84
 -13  -4   8  362.88   12.15
 -13  -4  -8  340.17   11.21
 -13   4  -8  350.23   10.07
 -13   4   9    7.95    1.93
 -13  -4   9   10.59    2.20
 -13   4  -9    6.57    1.50
 -13  -4  -9    9.11    1.91
 -13   4  10  106.70    7.89
 -13  -4  10   97.99    6.50
 -13   4 -10   98.02    5.25
 -13  -4 -10   91.74    5.93
 -13   4  11   19.64    3.66
 -13  -4  11   23.77    3.53
 -13   4 -11   18.89    2.42
 -13  -4 -11   21.35    2.96
 -13   4  12   10.13    2.71
 -13  -4  12   15.75    2.95
 -13   4 -12    9.76    1.74
 -13  -4 -12   11.39    2.25
 -13   4  13    2.85    1.80
 -13  -4  13    2.82    1.33
 -13  -4 -13   -1.03    1.35
 -13   4 -13    0.49    0.91
 -13  -4  14  101.09    7.86
 -13  -4 -14  106.20    6.90
 -13   4 -14  103.05    5.91
 -13   4  14  116.24    9.57
 -13  -4 -15    4.92    1.58
 -13   4 -15    3.27    1.24
 -13  -4  15    4.00    1.56
 -13   4  15    5.06    2.01
 -13   4 -16    3.51    1.35
 -13  -4 -16    2.50    1.22
 -13   4  16    3.43    2.19
 -13  -4  16    4.37    2.31
 -13   4 -17   -1.93    1.37
 -13  -4  17    1.09    1.58
 -13   4 -18   92.83    6.10
 -13  -4  18   90.61    8.63
 -13   4 -19    0.54    0.98
 -13   4 -20   35.44    3.96
 -13   5   0    0.13    0.57
 -13   5   0   -0.22    0.71
 -13  -5   0   -0.25    0.87
 -13   5  -1   72.56    4.54
 -13   5   1   71.41    4.81
 -13   5  -1   69.83    4.16
 -13  -5  -1   63.67    4.52
 -13  -5   1   67.96    4.68
 -13   5  -2    0.39    0.67
 -13  -5   2   -0.03    0.68
 -13   5   2    0.46    0.82
 -13   5  -2    0.16    0.64
 -13  -5  -2   -0.09    0.80
 -13  -5   3   15.17    2.33
 -13   5   3   14.35    2.39
 -13   5  -3   14.82    1.97
 -13  -5  -3   15.96    2.37
 -13   5  -3   14.91    2.01
 -13  -5   4    0.46    0.97
 -13   5  -4    0.24    0.58
 -13   5   4    0.87    1.14
 -13  -5  -4   -0.17    0.71
 -13   5  -4    0.39    0.51
 -13  -5   5   66.13    4.71
 -13   5   5   59.12    5.06
 -13   5  -5   64.66    3.94
 -13  -5  -5   66.46    4.68
 -13   5   6    5.80    1.89
 -13  -5   6    5.99    1.62
 -13  -5  -6    5.38    1.48
 -13   5  -6    5.41    1.15
 -13   5   7    8.04    2.18
 -13  -5   7   10.72    2.09
 -13   5  -7    6.48    1.38
 -13  -5  -7    7.07    1.68
 -13   5   8   16.36    3.05
 -13  -5   8   15.53    2.60
 -13  -5  -8   13.04    2.20
 -13   5  -8   12.25    1.77
 -13   5   9   68.64    6.28
 -13  -5   9   53.37    4.76
 -13   5  -9   67.32    4.18
 -13  -5  -9   60.65    4.76
 -13   5  10    0.62    1.60
 -13  -5  10   -0.32    0.92
 -13   5 -10   -0.97    0.97
 -13  -5 -10   -0.30    0.90
 -13   5  11    4.79    1.98
 -13  -5  11    1.98    1.39
 -13   5 -11    6.18    1.43
 -13  -5 -11    3.15    1.16
 -13   5  12    0.32    1.64
 -13  -5  12   -0.01    0.93
 -13   5 -12    1.08    0.66
 -13  -5 -12   -0.36    1.07
 -13  -5  13    2.26    1.65
 -13   5  13    0.93    1.48
 -13   5 -13    1.70    0.84
 -13  -5 -13   -0.04    1.21
 -13  -5  14   16.16    3.22
 -13   5  14   19.50    3.98
 -13   5 -14   12.73    2.03
 -13  -5 -14   18.39    2.95
 -13   5  15    0.03    1.53
 -13  -5  15    0.88    1.43
 -13   5 -15    1.18    0.69
 -13  -5 -15    1.01    1.41
 -13   5  16    1.40    1.59
 -13  -5  16    1.98    2.10
 -13   5 -16    0.05    0.91
 -13  -5  17   12.70    3.09
 -13   5 -17   11.89    2.25
 -13   5 -18   -0.08    0.88
 -13   6   0   -1.23    1.08
 -13   6   0    0.64    0.64
 -13  -6   0    0.75    0.89
 -13   6   1  242.55    9.32
 -13   6  -1  251.72    8.92
 -13  -6   1  253.58    9.33
 -13  -6  -1  259.18    9.38
 -13   6  -1  249.45    8.04
 -13   6  -2    0.20    0.64
 -13  -6   2   -0.21    0.82
 -13   6   2    2.49    1.36
 -13   6  -2    1.09    0.76
 -13  -6  -2    0.24    0.86
 -13  -6   3    4.83    1.42
 -13   6  -3    4.89    1.26
 -13   6   3    4.50    1.57
 -13   6  -3    2.10    0.94
 -13  -6  -3    4.60    1.50
 -13   6   4    0.98    0.80
 -13  -6   4   -0.12    0.74
 -13   6  -4    0.89    0.72
 -13   6  -4   -0.77    0.56
 -13  -6  -4    0.80    1.05
 -13  -6   5  419.89   12.45
 -13   6  -5  415.63   10.78
 -13   6   5  387.91   13.90
 -13  -6   5  443.22   12.97
 -13  -6  -5  397.08   12.18
 -13   6  -5  390.63   10.05
 -13   6   6    6.43    2.01
 -13   6  -6    7.62    1.37
 -13  -6   6    5.97    1.57
 -13  -6  -6    7.88    1.82
 -13   6  -6    6.73    1.30
 -13  -6   7   63.76    4.88
 -13   6   7   59.06    5.77
 -13  -6  -7   61.08    4.72
 -13   6  -7   57.94    3.66
 -13   6   8    2.10    1.64
 -13  -6   8    3.45    1.55
 -13   6  -8    3.43    1.05
 -13  -6  -8    3.84    1.45
 -13   6   9   46.05    5.43
 -13  -6   9   48.64    4.59
 -13   6  -9   44.78    3.30
 -13  -6  -9   51.70    4.48
 -13   6  10   -0.14    1.19
 -13  -6  10    0.62    1.08
 -13   6 -10   -0.70    0.96
 -13  -6 -10    0.73    0.83
 -13  -6  11   95.38    6.77
 -13   6  11  112.51    8.86
 -13  -6 -11  108.67    6.74
 -13   6 -11   97.22    5.10
 -13  -6  12    7.73    2.27
 -13   6  12    8.21    2.60
 -13   6 -12    7.26    1.52
 -13  -6 -12    7.48    1.92
 -13  -6  13    3.46    1.69
 -13   6  13    9.74    3.43
 -13   6 -13    5.82    1.37
 -13  -6 -13    6.41    1.89
 -13  -6  14    3.16    1.71
 -13   6  14    5.19    2.21
 -13   6 -14    2.89    1.03
 -13  -6 -14    2.17    1.11
 -13   6 -15   46.22    3.87
 -13  -6  15   44.82    5.42
 -13   6  15   48.92    6.75
 -13  -6  16    5.44    2.18
 -13  -6  17   57.39    6.65
 -13   7   0    0.67    0.67
 -13   7   0    0.44    0.91
 -13  -7   0    1.10    0.84
 -13   7   1   21.13    2.86
 -13   7  -1   24.09    2.89
 -13   7  -1   22.20    2.30
 -13  -7  -1   21.72    2.64
 -13  -7   1   24.03    2.93
 -13   7  -2   26.53    2.91
 -13   7   2   29.10    3.56
 -13  -7   2   21.64    2.86
 -13   7  -2   23.65    2.28
 -13  -7  -2   17.01    2.50
 -13   7   3    2.85    1.29
 -13  -7   3    1.18    1.14
 -13   7  -3    1.47    0.81
 -13   7  -3    1.99    0.79
 -13  -7  -3    2.94    1.15
 -13   7   4   -0.43    1.28
 -13  -7   4    2.89    1.14
 -13   7  -4    1.77    0.96
 -13   7  -4    1.15    0.57
 -13  -7  -4    0.68    0.89
 -13   7   5   20.10    3.42
 -13  -7   5   17.33    2.54
 -13   7  -5   17.19    2.15
 -13  -7   5   21.69    2.84
 -13  -7  -5   17.10    2.55
 -13   7  -5   18.51    1.99
 -13   7   6    4.85    1.90
 -13  -7   6    2.19    1.03
 -13  -7   6    1.71    0.87
 -13   7  -6    2.42    0.81
 -13   7  -6    1.26    0.65
 -13  -7  -6    1.98    1.14
 -13   7   7   10.11    2.64
 -13   7  -7   14.29    1.95
 -13  -7   7   13.00    2.27
 -13  -7  -7   13.32    2.28
 -13   7  -7   13.14    1.70
 -13   7   8   24.57    4.14
 -13  -7   8   20.37    2.95
 -13   7  -8   26.08    2.49
 -13   7  -8   26.64    2.46
 -13  -7  -8   18.87    2.80
 -13   7   9    2.93    1.92
 -13  -7   9    0.78    1.14
 -13   7  -9    0.02    0.50
 -13  -7  -9    2.74    1.28
 -13   7  10   -2.26    2.18
 -13  -7  10   -0.15    0.98
 -13   7 -10    0.16    0.51
 -13  -7 -10    1.09    0.96
 -13  -7  11    0.45    1.01
 -13   7  11    1.25    1.40
 -13   7 -11    0.77    0.53
 -13  -7 -11    0.87    1.07
 -13   7  12   10.76    3.09
 -13  -7  12   13.33    2.87
 -13  -7 -12   10.96    2.31
 -13   7  13    2.56    1.79
 -13  -7  13    2.11    1.68
 -13  -7 -13   -0.41    0.90
 -13  -7  14    2.77    2.06
 -13   7  14    3.87    2.11
 -13  -7  15   -2.35    2.04
 -13   7  15    1.53    1.32
 -13  -7  16    1.86    2.10
 -13  -7  17    1.20    1.63
 -13   8   0   -1.33    1.37
 -13   8   0   -0.12    0.65
 -13  -8   0   -1.08    1.09
 -13   8   1   17.26    2.77
 -13   8  -1   17.66    2.55
 -13   8  -1   16.90    1.92
 -13   8   1   11.92    1.75
 -13  -8   1   12.22    2.20
 -13  -8  -1   14.91    2.32
 -13   8   2   56.09    5.06
 -13   8  -2   55.73    4.32
 -13  -8   2   65.29    4.85
 -13   8  -2   54.08    3.38
 -13  -8  -2   58.47    4.50
 -13   8   3   16.17    2.81
 -13   8  -3   22.40    2.71
 -13  -8   3   19.95    2.83
 -13  -8  -3   20.94    2.83
 -13   8  -3   16.67    1.83
 -13   8   4  120.85    8.01
 -13   8  -4  128.18    6.21
 -13  -8  -4  130.80    6.97
 -13  -8   4  143.38    7.17
 -13   8  -4  128.11    5.12
 -13   8   5   34.57    4.30
 -13  -8   5   39.60    3.86
 -13   8  -5   40.33    3.41
 -13  -8   5   39.43    3.85
 -13  -8  -5   35.54    3.67
 -13   8  -5   42.28    2.91
 -13   8   6   26.13    3.98
 -13  -8   6   27.08    3.20
 -13  -8   6   27.23    3.20
 -13   8  -6   29.36    2.77
 -13   8  -6   26.15    2.24
 -13  -8  -6   26.67    3.28
 -13   8   7    1.83    1.49
 -13  -8   7    0.87    1.03
 -13  -8   7    4.05    1.51
 -13   8  -7    4.30    1.13
 -13  -8  -7    1.12    0.86
 -13   8   8   58.23    6.25
 -13  -8   8   60.92    5.04
 -13  -8   8   63.29    5.16
 -13  -8  -8   64.13    5.18
 -13   8   9   22.76    4.18
 -13  -8   9   24.08    3.69
 -13  -8  -9   18.52    2.78
 -13   8  10   26.59    4.51
 -13  -8  10   23.86    3.41
 -13  -8 -10   23.07    3.29
 -13   8  11   23.09    4.33
 -13  -8  11   15.06    2.67
 -13  -8 -11   23.21    3.31
 -13  -8  12   48.94    5.26
 -13  -8 -12   58.53    5.27
 -13   8  12   50.47    6.50
 -13   8  13    6.27    2.62
 -13  -8  13    6.24    2.08
 -13   8  14   91.10    9.08
 -13  -8  14   84.95    7.42
 -13  -8  15    0.93    1.50
 -13  -8  16    8.40    2.95
 -13   9   0    0.08    0.86
 -13   9   0    0.21    0.58
 -13  -9   0   -1.40    1.11
 -13   9  -1   20.25    2.94
 -13   9   1   21.09    3.23
 -13   9   1   21.81    2.20
 -13  -9   1   17.63    2.60
 -13  -9  -1   15.36    2.47
 -13   9  -1   22.79    2.19
 -13   9  -2    5.58    1.66
 -13   9   2    5.21    1.50
 -13  -9  -2    5.05    1.46
 -13   9  -2    8.48    1.35
 -13  -9   2    6.82    1.72
 -13   9   3   -0.47    0.92
 -13  -9  -3    0.44    0.94
 -13  -9   3    0.39    0.93
 -13   9   4    1.48    1.47
 -13  -9   4    2.75    1.33
 -13  -9  -4    3.01    1.39
 -13   9   5    2.73    1.49
 -13  -9   5    1.60    0.98
 -13  -9   5    2.78    1.37
 -13  -9  -5    0.73    1.09
 -13   9   6    1.50    1.28
 -13  -9   6    0.37    0.89
 -13  -9   6    0.27    0.83
 -13  -9  -6   -0.53    0.96
 -13   9   7    3.03    1.76
 -13  -9   7    2.83    0.95
 -13  -9   7    6.66    1.83
 -13  -9  -7    3.86    1.68
 -13   9   8    8.34    2.70
 -13  -9   8    7.83    2.11
 -13  -9   8    7.03    1.91
 -13  -9  -8    5.50    1.77
 -13   9   9    2.18    1.51
 -13  -9   9    7.93    2.05
 -13  -9   9    2.97    1.54
 -13  -9  -9    6.05    1.83
 -13   9  10   -1.30    2.06
 -13  -9  10    3.27    1.52
 -13  -9  10    2.51    1.40
 -13  -9 -10    4.28    1.60
 -13   9  11   12.47    3.38
 -13  -9  11    9.81    2.39
 -13  -9 -11   14.87    2.84
 -13   9  12   -3.14    2.40
 -13  -9  12   -1.13    1.47
 -13   9  13    4.48    2.53
 -13  -9  13    0.87    1.26
 -13  -9  14   -0.22    1.28
 -13  -9  15    0.92    1.31
 -13 -10   0    0.35    0.89
 -13 -10  -1   45.14    4.22
 -13 -10   1   46.06    4.06
 -13 -10  -2    8.73    1.91
 -13 -10   2   12.00    2.21
 -13  10   3    6.27    2.00
 -13 -10   3    4.45    1.31
 -13 -10  -3    4.26    1.50
 -13  10   4   11.03    2.68
 -13 -10   4   11.83    2.23
 -13 -10  -4   15.51    2.63
 -13  10   5   37.66    4.92
 -13 -10   5   36.59    3.76
 -13 -10  -5   29.38    3.50
 -13 -10   5   39.07    3.79
 -13  10   6    4.46    2.11
 -13 -10   6    4.42    1.51
 -13 -10  -6    3.88    1.59
 -13 -10   6    3.01    1.21
 -13  10   7   23.08    4.12
 -13 -10   7   19.96    2.75
 -13 -10   7   21.86    2.99
 -13 -10  -7   25.35    3.44
 -13  10   8   15.82    3.37
 -13 -10   8   18.52    2.79
 -13 -10   8   23.65    3.38
 -13 -10  -8   12.90    2.45
 -13  10   9    1.19    1.34
 -13 -10   9    1.92    0.94
 -13 -10   9    2.51    1.30
 -13 -10  -9    2.62    1.26
 -13  10  10    5.82    2.58
 -13 -10  10    3.23    1.15
 -13 -10  10    1.38    1.32
 -13  10  11  111.56    9.42
 -13 -10  11  120.57    7.92
 -13 -10  11  122.84    7.14
 -13  10  12    0.38    1.37
 -13 -10  12    3.21    1.56
 -13 -10  12    1.83    1.38
 -13  10  13    4.98    2.90
 -13 -10  13    6.92    2.20
 -13 -11   0    0.17    0.77
 -13 -11   1    9.80    2.07
 -13 -11  -1   11.47    2.12
 -13 -11   2   15.18    2.56
 -13 -11  -2    8.32    1.99
 -13 -11  -3    1.74    1.14
 -13 -11   3    1.96    1.01
 -13 -11   4   10.36    2.15
 -13 -11   4    8.03    1.88
 -13 -11  -4    6.34    1.83
 -13 -11   5   -0.09    0.87
 -13 -11  -5    1.89    1.26
 -13 -11   5   -0.14    0.86
 -13 -11   6    3.44    1.32
 -13 -11   6    2.87    1.04
 -13 -11  -6    1.93    1.19
 -13 -11   7   -0.87    0.88
 -13 -11  -7   -0.65    1.01
 -13 -11   7    0.37    0.69
 -13 -11   8   -0.39    0.96
 -13 -11   8    1.12    0.99
 -13 -11   9    1.47    1.71
 -13 -11   9   -0.61    1.81
 -13 -11  10    0.54    1.00
 -13 -11  10   -0.89    1.39
 -13 -11  11   -0.07    1.12
 -13 -12   0    0.55    0.76
 -13 -12   1    1.65    1.04
 -13 -12  -1    3.70    1.44
 -13 -12   2   36.34    3.74
 -13 -12  -2   30.70    3.57
 -13 -12   3   -0.71    0.71
 -13 -12  -3   -1.74    1.06
 -13 -12   4   29.47    3.54
 -13 -12  -4   25.88    3.46
 -13 -12   4   25.67    3.06
 -13 -12   5   20.04    2.92
 -13 -12  -5   19.31    2.81
 -13 -12   5   14.96    2.42
 -13 -12   6   10.13    2.11
 -14   0   0   29.57    3.06
 -14   0  -1    0.17    0.72
 -14   0   1   -0.71    1.09
 -14   0  -2    1.50    1.01
 -14   0   2    0.55    0.84
 -14   0   3   -0.08    0.69
 -14   0  -3   -0.17    0.68
 -14   0   4  186.76    8.16
 -14   0  -4  198.24    7.96
 -14   0   5    1.48    1.24
 -14   0  -5   -0.93    0.98
 -14   0   6  143.44    7.43
 -14   0  -6  146.49    6.89
 -14   0   7    0.30    0.84
 -14   0  -7   -0.10    0.77
 -14   0   8   19.63    2.92
 -14   0  -8   23.89    2.87
 -14   0   9    1.84    1.50
 -14   0  -9   -1.92    1.21
 -14   0  10   53.09    5.20
 -14   0 -10   60.92    4.67
 -14   0  11    2.89    1.74
 -14   0 -11    0.06    1.11
 -14   0  12  125.27    8.59
 -14   0 -12  120.86    6.85
 -14   0  13   -0.61    1.41
 -14   0 -13    0.04    0.93
 -14   0  14  162.11   10.53
 -14   0 -14  160.99    8.30
 -14   0  15    1.12    1.19
 -14   0 -15    1.15    0.83
 -14   0  16  126.09    9.87
 -14   0 -16  127.07    7.74
 -14   0 -17    0.26    0.93
 -14   0 -18   43.49    4.69
 -14   1   0   51.43    4.03
 -14  -1   0   50.37    3.99
 -14   1  -1   14.12    2.13
 -14  -1   1   18.06    2.51
 -14   1   1   15.25    2.28
 -14   1   1   13.05    2.14
 -14  -1  -1   14.43    2.11
 -14   1  -2    3.43    1.18
 -14  -1  -2    4.90    1.29
 -14   1   2    4.41    1.40
 -14  -1   3   81.07    5.19
 -14   1   3   81.92    5.26
 -14  -1  -3   78.10    5.01
 -14   1  -3   80.30    4.98
 -14   1   4    3.19    1.31
 -14  -1   4    1.20    1.08
 -14   1  -4    1.94    0.66
 -14  -1  -4    1.39    1.03
 -14  -1   5   -1.10    1.11
 -14   1   5   -0.81    1.17
 -14  -1  -5    0.87    0.79
 -14   1  -5   -0.78    0.98
 -14  -1   6   11.93    2.27
 -14   1   6   10.80    2.23
 -14  -1  -6   13.48    2.06
 -14   1  -6   11.30    1.83
 -14  -1   7   47.89    4.44
 -14   1   7   48.01    4.46
 -14  -1  -7   44.23    3.88
 -14   1  -7   46.91    3.83
 -14   1   8    1.81    1.23
 -14  -1   8    1.95    1.21
 -14  -1  -8    1.73    0.86
 -14   1  -8    1.73    1.03
 -14  -1   9    0.29    1.14
 -14   1   9   -0.48    0.97
 -14  -1  -9   -0.09    0.92
 -14   1  -9    0.52    0.71
 -14  -1  10    2.30    1.26
 -14   1  10    3.75    1.72
 -14   1 -10    3.49    1.30
 -14  -1 -10    6.72    1.68
 -14   1  11    6.01    2.22
 -14  -1  11    5.19    2.02
 -14   1 -11    3.13    1.27
 -14  -1 -11    4.26    1.30
 -14   1  12   26.45    4.10
 -14  -1  12   25.53    3.90
 -14   1 -12   24.33    2.97
 -14  -1 -12   26.15    3.27
 -14  -1  13    1.33    1.08
 -14   1  13    1.20    1.86
 -14   1 -13   -0.18    0.88
 -14  -1 -13   -0.52    0.95
 -14  -1  14   -0.11    1.42
 -14   1  14    1.74    1.63
 -14   1 -14    0.79    0.95
 -14  -1 -14    0.28    1.10
 -14  -1  15   11.18    3.18
 -14   1  15    8.13    2.94
 -14   1 -15   10.91    2.29
 -14  -1 -15    7.95    2.11
 -14  -1 -16   20.43    3.22
 -14   1 -16   23.19    3.20
 -14  -1  16   20.27    4.08
 -14   1  16   23.32    4.38
 -14  -1 -17    2.75    1.34
 -14   1 -17    0.21    0.79
 -14   1 -18    0.49    0.84
 -14  -2   0   -0.10    0.91
 -14   2   0    0.65    0.66
 -14   2   0    1.86    1.06
 -14   2   1   73.61    4.87
 -14  -2   1   72.57    4.85
 -14  -2  -1   71.40    4.79
 -14   2  -1   78.23    4.85
 -14   2  -2    3.94    1.11
 -14  -2   2    5.62    1.57
 -14   2   2    5.51    1.43
 -14  -2  -2    4.41    1.28
 -14  -2   3  222.76    8.79
 -14   2   3  218.60    8.87
 -14  -2  -3  224.26    8.60
 -14   2  -3  220.52    8.20
 -14   2   4    5.69    1.58
 -14  -2   4    8.87    1.87
 -14   2  -4    7.11    1.51
 -14  -2  -4    5.40    1.41
 -14   2   5    0.32    0.76
 -14  -2   5    2.42    1.21
 -14  -2  -5    0.52    0.73
 -14   2  -5    1.49    0.80
 -14  -2   6    1.33    1.28
 -14   2   6    0.39    0.94
 -14  -2  -6    0.14    0.88
 -14   2  -6    0.17    0.74
 -14   2   7  100.35    6.66
 -14  -2   7   95.28    6.17
 -14  -2  -7  102.82    5.98
 -14   2  -7   97.18    5.47
 -14   2   8    1.94    1.28
 -14  -2   8   -0.04    0.97
 -14  -2  -8    2.10    1.09
 -14   2  -8    1.68    0.96
 -14  -2   9  126.42    7.43
 -14   2   9  114.90    7.79
 -14  -2  -9  112.84    6.47
 -14   2  -9  121.60    6.29
 -14   2  10   -0.64    1.28
 -14  -2  10   -0.52    0.97
 -14   2 -10    1.01    1.01
 -14  -2 -10   -0.42    0.85
 -14   2  11    1.04    1.30
 -14  -2  11   -0.09    1.08
 -14   2 -11    0.09    0.87
 -14  -2 -11   -1.50    1.21
 -14   2  12    3.55    2.05
 -14  -2  12    6.67    2.25
 -14   2 -12    6.73    1.60
 -14  -2 -12    4.34    1.63
 -14  -2  13  222.91   11.59
 -14   2  13  221.77   12.38
 -14   2 -13  204.33    8.85
 -14  -2 -13  211.90    9.57
 -14  -2  14    3.89    1.85
 -14   2  14    4.95    2.32
 -14   2 -14    3.89    1.35
 -14  -2 -14    4.36    1.31
 -14  -2  15    0.59    1.70
 -14   2  15    0.45    1.22
 -14   2 -15   -0.06    0.83
 -14  -2 -15    2.68    1.50
 -14   2 -16    0.83    0.79
 -14  -2 -16    0.87    1.33
 -14  -2  16    6.70    2.96
 -14   2  16    1.25    1.70
 -14   2 -17   36.95    4.00
 -14   2 -18    2.72    1.39
 -14   2 -19  112.38    7.61
 -14  -3   0   -0.31    0.74
 -14   3   0    0.18    0.62
 -14   3   0    0.53    0.67
 -14   3  -1   32.83    3.24
 -14   3   1   31.00    3.19
 -14  -3  -1   30.13    3.25
 -14   3  -1   32.12    3.13
 -14  -3   1   37.98    3.53
 -14   3  -2    0.17    0.73
 -14  -3   2   -0.88    0.74
 -14   3   2    1.89    1.03
 -14  -3  -2   -0.49    0.83
 -14  -3   3    0.74    0.86
 -14   3   3    2.47    1.06
 -14  -3  -3    1.32    1.01
 -14   3  -3    1.63    1.03
 -14  -3   4   21.65    2.76
 -14   3   4   23.61    3.08
 -14  -3  -4   20.46    2.65
 -14   3  -4   26.16    2.77
 -14   3   5    1.92    1.10
 -14  -3   5    1.56    1.03
 -14   3  -5    1.52    0.70
 -14  -3  -5    1.14    0.90
 -14   3   6  135.13    7.64
 -14  -3   6  119.92    6.73
 -14  -3  -6  122.61    6.50
 -14   3  -6  127.45    6.08
 -14  -3   7   11.14    2.26
 -14   3   7   10.04    2.32
 -14  -3  -7   10.19    2.00
 -14   3  -7    8.21    1.58
 -14  -3   8   20.83    3.04
 -14   3   8   22.19    3.48
 -14   3  -8   22.27    2.63
 -14  -3  -8   24.80    3.04
 -14   3   9   28.52    3.99
 -14  -3   9   29.97    3.72
 -14  -3  -9   30.84    3.47
 -14   3  -9   30.63    3.08
 -14   3  10    0.13    1.04
 -14  -3  10   -1.37    1.28
 -14   3 -10    0.09    0.78
 -14  -3 -10    1.46    1.08
 -14   3  11    0.07    1.12
 -14  -3  11    0.89    1.46
 -14   3 -11   -0.09    0.78
 -14  -3 -11    0.59    0.84
 -14   3  12   17.33    3.46
 -14  -3  12   20.85    3.49
 -14   3 -12   17.45    2.55
 -14  -3 -12   18.10    2.81
 -14   3  13   -0.54    1.58
 -14  -3  13    4.04    2.05
 -14   3 -13    2.01    1.17
 -14  -3 -13   -0.88    1.35
 -14  -3  14   -1.17    1.26
 -14   3  14    1.72    1.69
 -14  -3 -14   -1.36    1.27
 -14   3 -14    0.30    0.71
 -14  -3  15    4.44    2.06
 -14   3  15    5.12    2.59
 -14   3 -15    6.98    1.83
 -14  -3 -15    6.59    1.90
 -14  -3  16   11.54    3.12
 -14   3 -16   12.92    2.32
 -14   3 -17    1.90    1.13
 -14   3 -18    0.15    1.00
 -14   3 -19   -0.74    0.78
 -14   4   0  361.08   11.15
 -14   4   0  381.91   10.99
 -14  -4   0  373.22   11.62
 -14  -4   1   15.55    2.36
 -14   4  -1   15.83    2.16
 -14   4   1   16.29    2.41
 -14   4  -1   14.48    2.22
 -14  -4  -1   13.75    2.21
 -14   4  -2   72.44    4.71
 -14   4   2   75.87    5.21
 -14  -4   2   72.48    4.99
 -14   4  -2   72.63    4.54
 -14  -4  -2   73.78    4.95
 -14  -4   3    5.22    1.39
 -14   4  -3    3.37    1.24
 -14   4   3    1.38    0.84
 -14   4  -3    3.49    1.10
 -14  -4  -3    5.47    1.43
 -14   4   4  169.87    8.30
 -14  -4   4  195.97    8.44
 -14  -4   4  188.95    8.21
 -14  -4  -4  177.18    7.86
 -14   4  -4  174.93    7.06
 -14  -4   5    7.08    1.74
 -14   4   5    5.58    1.67
 -14   4  -5    3.65    0.94
 -14  -4  -5    5.35    1.55
 -14  -4   6  184.68    8.36
 -14   4   6  181.09    9.25
 -14  -4  -6  186.35    8.20
 -14   4  -6  170.24    6.98
 -14   4   7    0.04    1.34
 -14  -4   7    2.00    1.24
 -14  -4  -7    0.86    0.83
 -14   4  -7    0.50    0.74
 -14   4   8    3.81    1.71
 -14  -4   8    1.29    0.99
 -14  -4  -8    0.70    0.98
 -14   4  -8    1.14    0.76
 -14   4   9    3.07    1.64
 -14  -4   9    0.55    1.14
 -14  -4  -9    0.77    1.01
 -14   4  -9    1.74    1.01
 -14   4  10  283.08   13.38
 -14  -4  10  271.61   11.60
 -14   4 -10  278.77    9.46
 -14  -4 -10  297.30   11.17
 -14   4  11    3.23    2.13
 -14  -4  11    3.47    1.61
 -14   4 -11    0.65    0.80
 -14  -4 -11    1.39    1.08
 -14  -4  12  161.91    9.38
 -14   4  12  173.41   11.04
 -14  -4 -12  169.81    8.61
 -14   4 -12  161.09    7.34
 -14   4  13    4.40    2.58
 -14  -4  13    0.41    1.20
 -14   4 -13    2.48    1.23
 -14  -4 -13    1.97    1.20
 -14  -4  14   34.40    4.91
 -14   4  14   35.36    5.55
 -14  -4 -14   39.50    4.43
 -14   4 -14   37.93    3.64
 -14  -4  15    8.64    2.79
 -14   4  15    7.06    2.34
 -14   4 -15   10.98    2.05
 -14  -4 -15    8.38    2.26
 -14  -4  16   51.27    6.52
 -14   4 -16   49.53    4.51
 -14   4 -17    0.54    0.95
 -14   4 -18    6.95    2.00
 -14   4 -19   -0.48    0.96
 -14   5   0    1.76    0.91
 -14   5   0    0.66    0.65
 -14  -5   0    1.35    1.16
 -14  -5   1   12.49    2.26
 -14   5  -1   14.26    1.98
 -14   5  -1   17.54    2.44
 -14   5   1   13.48    2.23
 -14  -5  -1   13.17    2.24
 -14   5  -2    1.31    0.80
 -14  -5   2   -0.90    1.15
 -14   5   2   -0.47    1.07
 -14   5  -2   -0.78    0.91
 -14  -5  -2   -0.12    0.80
 -14  -5   3   18.47    2.63
 -14   5   3   23.00    3.11
 -14   5  -3   20.87    2.45
 -14  -5  -3   20.79    2.75
 -14   5  -3   21.35    2.41
 -14  -5   4    1.16    0.81
 -14   5   4    4.74    1.76
 -14  -5   4    3.20    1.32
 -14   5  -4    3.13    1.24
 -14   5  -4    2.49    0.93
 -14  -5  -4    3.87    1.37
 -14  -5   5    9.92    2.07
 -14   5  -5   13.63    2.00
 -14  -5   5    9.48    1.95
 -14   5   5    8.49    1.94
 -14   5  -5    8.48    1.52
 -14  -5  -5    8.70    1.92
 -14   5   6    8.45    2.31
 -14  -5   6    6.77    1.65
 -14  -5  -6    5.31    1.56
 -14   5  -6    5.55    1.23
 -14  -5   7   66.34    5.12
 -14   5   7   68.70    6.04
 -14  -5  -7   64.43    4.96
 -14   5  -7   68.65    4.27
 -14   5   8    6.22    1.87
 -14  -5   8    4.70    1.52
 -14  -5  -8    5.65    1.69
 -14   5  -8    5.30    1.23
 -14   5   9    6.48    2.40
 -14  -5   9    4.72    1.70
 -14   5  -9    3.78    1.15
 -14  -5  -9    4.47    1.59
 -14   5  10    0.86    1.50
 -14  -5  10    2.61    1.48
 -14   5 -10   -0.22    0.68
 -14  -5 -10    1.40    1.14
 -14   5  11   -1.47    1.57
 -14  -5  11   -0.24    1.10
 -14   5 -11    0.63    0.97
 -14  -5 -11    0.37    0.89
 -14   5  12   -0.10    1.23
 -14  -5  12    0.93    1.66
 -14   5 -12   -1.36    0.79
 -14  -5 -12    0.08    1.04
 -14   5  13   -2.50    1.98
 -14  -5  13   -0.08    1.55
 -14  -5 -13   -0.66    1.10
 -14   5 -13   -0.55    0.87
 -14  -5  14    0.24    1.39
 -14   5  14   -0.79    2.25
 -14   5 -14    1.05    0.88
 -14  -5 -14    0.99    1.26
 -14  -5  15    6.84    2.42
 -14   5 -15    5.58    1.60
 -14   5 -16    1.79    1.25
 -14   5 -17   -0.35    0.78
 -14   6   0   58.28    4.46
 -14   6   0   58.91    3.99
 -14  -6   0   65.11    4.77
 -14   6   1   55.46    4.55
 -14   6   1   51.41    3.86
 -14   6  -1   57.05    4.36
 -14   6  -1   51.30    3.72
 -14  -6  -1   53.18    4.34
 -14  -6   1   64.91    4.80
 -14  -6   2    2.20    1.02
 -14   6   2    3.02    1.36
 -14   6  -2    3.35    1.14
 -14   6  -2    2.56    1.20
 -14  -6  -2    1.34    0.85
 -14   6  -3  302.65    9.79
 -14   6   3  293.00   11.33
 -14  -6   3  309.93   11.02
 -14   6  -3  282.36    8.82
 -14  -6  -3  293.48   10.52
 -14   6   4    0.08    1.48
 -14  -6   4    3.06    1.33
 -14   6  -4    0.81    0.75
 -14   6  -4    0.77    0.60
 -14  -6  -4    4.25    1.32
 -14   6   5    9.54    2.20
 -14  -6   5   12.95    2.44
 -14  -6   5   12.29    2.20
 -14   6  -5   14.05    2.03
 -14  -6  -5   14.91    2.44
 -14   6  -5   14.36    1.91
 -14   6   6   12.49    2.76
 -14  -6   6   11.14    2.06
 -14   6  -6   14.94    2.05
 -14  -6   6   10.57    2.04
 -14  -6  -6   11.33    2.12
 -14   6  -6   11.26    1.73
 -14   6  -7   57.18    3.91
 -14  -6   7   57.63    4.86
 -14   6   7   54.84    5.63
 -14  -6  -7   57.79    4.77
 -14   6  -7   60.83    3.92
 -14   6   8   -0.27    1.07
 -14  -6   8   -0.68    0.99
 -14  -6  -8   -0.76    1.02
 -14   6  -8   -0.08    0.57
 -14   6   9  118.96    8.82
 -14  -6   9  116.88    7.35
 -14   6  -9  110.32    5.45
 -14  -6  -9  122.65    7.14
 -14  -6  10   24.97    3.56
 -14   6  10   26.94    4.44
 -14   6 -10   25.78    2.67
 -14  -6 -10   23.28    3.19
 -14   6  11    9.36    2.92
 -14  -6  11    6.54    1.94
 -14   6 -11    7.62    1.53
 -14  -6 -11   11.28    2.32
 -14   6  12    8.97    3.16
 -14  -6  12    7.84    2.32
 -14  -6 -12    9.89    2.30
 -14   6 -12    9.34    1.89
 -14  -6  13  142.68    9.28
 -14   6  13  150.10   11.16
 -14   6 -13  140.85    6.74
 -14  -6 -13  146.74    8.41
 -14   6  14    2.05    1.74
 -14  -6  14    4.42    1.88
 -14   6 -14    1.71    0.84
 -14  -6  15    5.97    2.64
 -14   7   0   -0.38    0.78
 -14   7   0    0.77    0.92
 -14  -7   0    0.06    0.94
 -14   7  -1    8.84    1.55
 -14   7   1    7.87    1.53
 -14   7   1    9.54    2.06
 -14   7  -1    8.05    1.78
 -14  -7   1    9.33    1.94
 -14  -7  -1   11.97    2.22
 -14   7   2    2.54    1.55
 -14   7  -2    0.25    0.87
 -14  -7   2    0.81    0.98
 -14  -7  -2    0.89    0.88
 -14   7  -2    3.12    1.10
 -14   7   3   10.65    2.28
 -14  -7   3   12.15    2.34
 -14   7  -3   13.14    2.07
 -14  -7  -3   11.03    2.06
 -14   7  -3   12.79    1.77
 -14   7   4   -0.66    1.43
 -14  -7   4    0.11    0.95
 -14   7  -4    0.75    1.03
 -14   7  -4   -0.40    0.66
 -14  -7  -4    2.86    1.44
 -14   7   5   26.98    3.89
 -14  -7   5   26.25    3.26
 -14   7  -5   28.69    2.89
 -14  -7   5   25.45    3.17
 -14  -7  -5   25.25    3.10
 -14   7  -5   24.79    2.42
 -14   7   6    2.64    1.57
 -14   7  -6    3.33    0.97
 -14  -7   6    3.73    1.38
 -14  -7   6    2.54    1.51
 -14   7  -6    1.11    0.48
 -14  -7  -6    3.72    1.39
 -14   7   7    3.10    1.76
 -14  -7   7    1.22    1.11
 -14  -7   7    1.91    1.29
 -14   7  -7    1.48    0.66
 -14  -7  -7    1.25    0.78
 -14   7  -7    0.42    0.56
 -14   7   8    0.75    1.25
 -14  -7   8    0.65    1.06
 -14   7  -8    0.59    0.88
 -14   7  -8    1.57    0.83
 -14  -7  -8    2.46    1.11
 -14   7   9   -1.03    1.44
 -14  -7   9    1.36    1.17
 -14   7  -9    0.34    0.76
 -14   7  -9   -0.56    0.56
 -14  -7  -9    0.42    0.82
 -14   7  10   11.63    3.21
 -14  -7  10    8.32    2.27
 -14   7 -10    8.77    1.61
 -14  -7 -10    6.38    1.77
 -14   7  11   -1.37    1.78
 -14  -7  11   -0.02    1.07
 -14  -7 -11   -0.78    1.01
 -14   7  12    7.05    2.81
 -14  -7  12    5.54    2.08
 -14   7  13    2.40    1.71
 -14  -7  13    2.91    1.60
 -14  -7  14    5.02    1.72
 -14  -7  15    3.56    2.14
 -14   8   0  118.14    7.11
 -14  -8   0  118.57    6.72
 -14   8   0  118.62    5.55
 -14   8   1    0.85    1.01
 -14   8   1    4.44    1.16
 -14   8  -1    2.22    1.04
 -14   8  -1    6.25    1.42
 -14  -8   1    7.64    1.89
 -14  -8  -1    5.08    1.64
 -14   8   2    5.10    1.66
 -14   8  -2    6.81    1.72
 -14  -8  -2    4.08    1.27
 -14   8  -2    4.59    1.23
 -14  -8   2    6.25    1.71
 -14   8   3    2.83    1.29
 -14   8  -3    1.34    0.84
 -14  -8   3    1.44    1.05
 -14  -8  -3    0.87    1.21
 -14   8  -3    2.31    0.75
 -14   8  -4  127.29    6.55
 -14   8   4  125.08    8.28
 -14  -8   4  126.74    7.18
 -14  -8  -4  116.77    6.82
 -14   8  -4  122.63    5.33
 -14   8   5   -0.21    1.21
 -14   8  -5    1.87    0.80
 -14  -8   5    0.87    1.09
 -14  -8   5    3.23    1.45
 -14   8  -5    2.00    0.85
 -14  -8  -5    1.22    0.96
 -14   8   6   52.15    5.68
 -14  -8   6   56.25    4.80
 -14  -8  -6   52.51    4.61
 -14  -8   6   55.52    4.82
 -14   8   7    1.14    1.51
 -14  -8   7    6.60    1.91
 -14  -8   7    6.02    1.66
 -14  -8  -7    3.58    1.42
 -14   8   8   -0.50    1.76
 -14  -8   8   -0.48    0.85
 -14  -8   8    0.57    0.95
 -14  -8  -8   -0.14    0.74
 -14   8   9   -0.38    1.38
 -14  -8   9    0.48    1.28
 -14  -8   9    2.04    1.32
 -14  -8  -9    3.32    1.43
 -14  -8  10   62.38    5.69
 -14  -8 -10   61.43    5.38
 -14   8  10   58.81    6.79
 -14   8  11   -0.52    1.79
 -14  -8  11   -1.98    1.56
 -14   8  12   20.61    4.23
 -14  -8  12   27.73    4.13
 -14   8  13    2.10    1.80
 -14  -8  13    4.98    1.89
 -14  -8  14    3.65    1.83
 -14   9   0    6.96    1.95
 -14  -9   0    6.22    1.54
 -14   9  -1    3.92    1.59
 -14   9   1    0.54    0.87
 -14   9   1    2.02    0.92
 -14  -9   1    3.37    1.41
 -14  -9  -1    2.78    1.32
 -14   9   2   12.95    2.80
 -14   9   2   12.37    1.82
 -14  -9  -2   14.73    2.51
 -14  -9   2   12.39    2.31
 -14   9   3   10.02    2.72
 -14  -9  -3    8.94    2.06
 -14  -9   3    9.05    2.07
 -14   9   4    0.53    1.36
 -14  -9   4   -0.47    0.90
 -14  -9  -4    0.22    0.86
 -14   9   5   -2.25    1.50
 -14  -9   5    1.17    1.01
 -14  -9   5    0.84    0.84
 -14  -9  -5   -0.93    1.06
 -14   9   6    0.58    1.62
 -14  -9   6    0.69    1.07
 -14  -9   6    1.70    1.17
 -14  -9  -6   -0.97    1.26
 -14   9   7    6.24    2.51
 -14  -9   7    6.11    1.80
 -14  -9   7    0.64    1.17
 -14  -9  -7    2.87    1.26
 -14   9   8    1.45    1.71
 -14  -9   8    2.22    1.21
 -14  -9   8    2.80    1.28
 -14  -9  -8    3.86    1.53
 -14   9   9   16.85    4.09
 -14  -9   9   15.90    2.69
 -14  -9   9   17.09    3.03
 -14   9  10   -2.95    2.56
 -14  -9  10    1.81    1.32
 -14  -9  10   -0.71    1.04
 -14   9  11   -2.10    1.57
 -14  -9  11    3.41    1.52
 -14  -9  11    0.66    1.82
 -14   9  12    2.72    2.18
 -14  -9  12    0.49    1.18
 -14  -9  13    1.88    1.48
 -14 -10   0   23.94    3.14
 -14 -10  -1   27.74    3.43
 -14 -10   1   22.77    3.11
 -14 -10   2   -0.84    0.91
 -14 -10  -2    1.08    0.88
 -14 -10   3   67.08    5.14
 -14 -10  -3   67.31    5.32
 -14 -10   4    9.71    2.17
 -14 -10  -4    6.76    1.76
 -14 -10   4    5.49    1.79
 -14 -10   5    4.07    1.72
 -14 -10  -5    0.58    0.83
 -14 -10   5    2.66    1.25
 -14  10   6    4.31    1.93
 -14 -10   6    5.59    1.59
 -14 -10  -6    4.61    1.62
 -14 -10   6    6.64    1.71
 -14  10   7   22.02    4.07
 -14 -10   7   27.09    3.53
 -14 -10   7   25.86    3.46
 -14  10   8    3.94    2.20
 -14 -10   8    1.76    1.26
 -14 -10   8    2.37    1.51
 -14  10   9   51.68    6.55
 -14 -10   9   51.66    5.19
 -14 -10   9   48.79    4.78
 -14  10  10    6.65    2.51
 -14 -10  10    3.09    1.60
 -14 -10  10    1.74    1.43
 -14  10  11    5.39    3.05
 -14 -10  11    5.06    1.61
 -14 -10  11    5.69    2.40
 -14 -11   0   10.98    2.19
 -14 -11   1   -0.05    1.10
 -14 -11  -1   -0.72    0.95
 -14 -11   2    1.22    0.98
 -14 -11  -2    0.50    0.85
 -14 -11  -3    0.47    0.76
 -14 -11   3    0.93    0.97
 -14 -11   4    5.26    1.64
 -14 -11   4    5.57    1.63
 -14 -11  -4    4.09    1.47
 -14 -11   5    2.56    1.38
 -14 -11   5    1.71    1.35
 -14 -11   6    4.51    1.47
 -14 -11   6    1.73    1.07
 -14 -11   7    0.90    1.11
 -14 -11   7   -0.42    0.86
 -14 -11   8    5.63    2.14
 -14 -11   8    4.79    1.76
 -14 -11   9    4.90    1.63
 -14 -12   0   44.40    4.34
 -14 -12   1    1.05    0.84
 -14 -12  -1   -0.04    0.89
 -14 -12   2    7.83    1.90
 -14 -12   3    4.98    1.56
 -14 -12   4    4.23    1.49
 -15   0   0    0.53    1.07
 -15   0  -1    0.04    0.81
 -15   0   1   -0.31    0.86
 -15   0   1    0.13    0.87
 -15   0   2  126.69    6.80
 -15   0   2  117.19    6.64
 -15   0  -2  126.46    6.67
 -15   0   3    0.96    0.97
 -15   0  -3    1.94    1.37
 -15   0   4  111.94    6.62
 -15   0  -4  109.24    6.13
 -15   0   5    2.74    1.55
 -15   0  -5   -0.36    0.84
 -15   0   6    9.05    2.20
 -15   0  -6    4.75    1.35
 -15   0   7   -1.90    1.48
 -15   0  -7    0.30    0.78
 -15   0   8  164.62    8.81
 -15   0  -8  169.29    7.90
 -15   0   9    0.82    1.42
 -15   0  -9   -1.09    1.02
 -15   0  10   11.80    2.65
 -15   0 -10   11.95    2.21
 -15   0  11   -0.16    1.32
 -15   0 -11    1.04    1.13
 -15   0  12   66.36    6.49
 -15   0 -12   72.01    5.45
 -15   0  13   -1.01    1.28
 -15   0 -13   -1.04    1.13
 -15   0  14  171.26   11.06
 -15   0 -14  158.40    8.44
 -15   0 -15   -0.07    0.87
 -15   0 -16   19.23    3.06
 -15  -1   0   -0.08    0.81
 -15   1   0   -0.97    0.97
 -15   1   0   -0.45    0.84
 -15   1   1   33.42    3.52
 -15   1   1   31.57    3.32
 -15  -1   1   30.53    3.33
 -15  -1  -1   28.44    3.22
 -15   1  -1   30.98    3.29
 -15  -1   2    4.54    1.58
 -15  -1   2    5.61    1.69
 -15   1   2    7.17    1.78
 -15   1  -2    5.06    1.45
 -15  -1  -2    8.37    1.91
 -15   1   3    7.94    1.90
 -15  -1   3    9.16    2.00
 -15   1  -3   10.92    2.00
 -15  -1  -3   11.01    2.06
 -15   1   4    0.83    0.98
 -15  -1   4    0.32    0.97
 -15  -1  -4   -0.48    1.09
 -15   1  -4    0.25    0.84
 -15  -1   5   56.60    4.72
 -15   1   5   49.08    4.49
 -15  -1  -5   45.88    4.02
 -15   1  -5   50.55    4.10
 -15  -1   6    1.37    1.09
 -15   1   6    1.56    1.09
 -15  -1  -6    2.53    1.06
 -15   1  -6   -0.58    1.07
 -15   1   7    7.33    2.09
 -15  -1   7    5.16    1.72
 -15  -1  -7    8.62    1.80
 -15   1  -7    7.63    1.77
 -15   1   8   -0.42    1.24
 -15  -1   8    0.44    1.00
 -15  -1  -8   -0.30    0.96
 -15   1  -8    0.73    0.87
 -15  -1   9    3.04    1.45
 -15   1   9    5.96    2.13
 -15  -1  -9    4.59    1.43
 -15   1  -9    3.14    1.17
 -15  -1  10    0.38    0.98
 -15   1  10    0.77    1.07
 -15  -1 -10   -0.97    1.21
 -15   1 -10    0.30    0.75
 -15   1  11    9.42    2.65
 -15  -1  11   13.31    2.95
 -15   1 -11   14.31    2.41
 -15  -1 -11   12.30    2.25
 -15   1  12   24.87    4.15
 -15  -1  12   20.20    3.56
 -15   1 -12   19.03    2.88
 -15  -1 -12   22.76    3.13
 -15  -1  13   -0.83    1.12
 -15   1  13   -2.65    2.28
 -15   1 -13    0.97    0.90
 -15  -1 -13   -0.87    1.11
 -15  -1  14    0.17    1.29
 -15   1  14    1.40    1.69
 -15   1 -14    0.85    1.23
 -15  -1 -14   -1.89    1.39
 -15  -1 -15    7.03    1.99
 -15   1 -15   10.73    2.55
 -15   1 -16    4.78    1.73
 -15   1 -17    4.37    1.59
 -15  -2   0    1.73    1.17
 -15   2   0    4.06    1.76
 -15   2   0   -0.19    0.76
 -15   2  -1   62.42    4.63
 -15   2   1   55.39    4.50
 -15   2   1   65.78    4.77
 -15   2  -1   58.63    4.44
 -15  -2  -1   55.92    4.51
 -15  -2   1   56.93    4.46
 -15   2   2   -0.06    0.98
 -15   2  -2    0.36    0.93
 -15  -2   2    2.89    1.39
 -15  -2  -2    0.16    0.84
 -15   2   3   -0.25    0.82
 -15  -2   3   -0.03    0.79
 -15  -2   3    0.62    1.07
 -15  -2  -3    0.07    0.70
 -15   2  -3   -1.25    1.00
 -15   2   4   31.75    3.59
 -15  -2   4   28.75    3.32
 -15   2  -4   23.68    2.82
 -15  -2  -4   25.49    3.05
 -15  -2   5   74.70    5.43
 -15   2   5   74.84    5.68
 -15   2  -5   72.79    4.84
 -15  -2  -5   74.73    5.15
 -15   2   6   -1.27    1.09
 -15  -2   6    1.86    1.30
 -15  -2  -6   -0.02    0.94
 -15   2  -6    1.94    0.96
 -15   2   7   52.71    5.09
 -15  -2   7   60.50    5.14
 -15  -2  -7   56.66    4.63
 -15   2  -7   48.30    4.05
 -15   2   8    2.55    1.53
 -15  -2   8   -0.68    1.04
 -15  -2  -8   -0.55    0.83
 -15   2  -8    0.16    0.75
 -15  -2   9   19.28    3.09
 -15   2   9   25.99    3.86
 -15  -2  -9   22.28    3.06
 -15   2  -9   24.92    3.01
 -15   2  10   14.54    3.03
 -15  -2  10   16.94    3.04
 -15   2 -10    9.41    1.87
 -15  -2 -10   12.87    2.37
 -15  -2  11  110.31    7.92
 -15   2  11  105.97    8.28
 -15   2 -11  106.49    6.27
 -15  -2 -11  104.72    6.65
 -15   2  12   14.67    3.41
 -15  -2  12   15.18    3.23
 -15   2 -12   10.11    2.14
 -15  -2 -12   12.61    2.43
 -15   2  13    2.54    1.53
 -15  -2  13    4.18    1.90
 -15   2 -13    2.23    1.16
 -15  -2 -13    1.76    0.95
 -15  -2  14   -1.42    1.58
 -15   2  14   -0.66    1.29
 -15   2 -14    1.23    0.87
 -15  -2 -14   -1.60    1.36
 -15   2 -15   40.15    4.12
 -15  -2 -15   35.05    4.27
 -15   2 -16    6.11    1.69
 -15   2 -17   75.52    5.91
 -15  -3   0    0.26    0.81
 -15   3   0    1.26    1.05
 -15   3   0    2.12    1.10
 -15   3   1   15.16    2.36
 -15   3  -1   15.36    2.31
 -15  -3   1   13.85    2.39
 -15   3   1   17.05    2.52
 -15   3  -1   13.41    2.18
 -15  -3  -1   11.84    2.07
 -15   3  -2    0.97    0.70
 -15  -3   2    0.98    1.07
 -15   3   2    1.11    1.02
 -15   3  -2   -0.02    0.71
 -15  -3  -2   -0.67    0.75
 -15  -3   3    0.05    1.08
 -15   3   3   -1.36    1.13
 -15  -3   3   -0.97    0.93
 -15   3  -3    0.03    0.72
 -15  -3  -3   -1.47    1.09
 -15  -3   4   27.41    3.31
 -15   3   4   24.03    3.16
 -15  -3  -4   19.80    2.72
 -15   3  -4   24.17    2.74
 -15   3   5   19.67    3.08
 -15  -3   5   19.22    2.95
 -15   3  -5   15.76    2.23
 -15  -3  -5   20.25    2.86
 -15  -3   6    5.09    1.71
 -15   3   6    4.31    1.53
 -15  -3  -6    7.83    1.88
 -15   3  -6    6.10    1.43
 -15  -3   7    2.13    1.41
 -15   3   7    2.32    1.66
 -15  -3  -7    0.90    1.06
 -15   3  -7    1.16    0.83
 -15   3   8   26.11    3.93
 -15  -3   8   30.41    3.90
 -15   3  -8   26.35    3.00
 -15  -3  -8   24.83    3.20
 -15   3   9    5.33    2.07
 -15  -3   9    3.94    1.60
 -15  -3  -9    5.84    1.79
 -15   3  -9    5.50    1.37
 -15   3  10    4.88    1.76
 -15  -3  10    3.34    1.53
 -15   3 -10    5.09    1.34
 -15  -3 -10    8.75    1.98
 -15   3  11   22.37    3.85
 -15  -3  11   18.37    3.39
 -15   3 -11   19.42    2.63
 -15  -3 -11   19.98    2.96
 -15   3  12   20.55    4.07
 -15  -3  12   18.90    3.49
 -15   3 -12   19.41    2.81
 -15  -3 -12   20.62    3.05
 -15   3  13    0.35    1.35
 -15  -3  13    0.47    1.19
 -15   3 -13   -0.60    1.11
 -15  -3 -13    1.33    0.99
 -15  -3  14   15.32    3.41
 -15   3  14   21.43    4.33
 -15   3 -14   16.59    2.64
 -15  -3 -14   22.52    3.41
 -15   3 -15   -0.33    1.05
 -15   3 -16    2.00    1.38
 -15   3 -17   -0.19    0.92
 -15   3 -18    4.38    1.39
 -15   4   0   -0.93    0.77
 -15   4   0   -0.32    0.72
 -15  -4   0   -0.45    0.74
 -15  -4   1   -0.99    1.00
 -15   4  -1    0.62    0.66
 -15   4   1    0.00    0.68
 -15   4   1   -1.51    1.17
 -15   4  -1    0.34    0.84
 -15  -4  -1   -0.51    1.16
 -15   4  -2  138.80    6.91
 -15   4   2  132.81    7.25
 -15   4  -2  135.74    6.56
 -15  -4  -2  139.63    7.20
 -15  -4   2  132.30    7.24
 -15  -4   3   33.85    3.54
 -15   4  -3   34.72    3.44
 -15   4   3   34.68    3.84
 -15  -4  -3   34.21    3.58
 -15   4  -3   37.64    3.47
 -15  -4   4   42.36    4.09
 -15   4   4   29.91    3.64
 -15  -4   4   39.27    4.02
 -15   4  -4   35.33    3.31
 -15  -4  -4   31.41    3.38
 -15  -4   5    8.43    2.01
 -15   4   5    6.20    1.74
 -15   4  -5    8.44    1.69
 -15  -4  -5    9.25    2.09
 -15  -4   6   43.09    4.18
 -15   4   6   38.63    4.49
 -15  -4  -6   49.47    4.34
 -15   4  -6   36.08    3.29
 -15  -4   7   -2.50    1.09
 -15   4   7    0.02    1.06
 -15  -4  -7    0.37    1.22
 -15   4  -7    0.45    0.80
 -15   4   8   80.78    6.81
 -15  -4   8   89.25    6.38
 -15  -4  -8   88.31    5.99
 -15   4  -8   87.97    5.22
 -15   4   9    2.07    1.76
 -15  -4   9    0.71    0.90
 -15  -4  -9    1.49    1.00
 -15   4  -9    1.87    1.06
 -15   4  10    1.44    1.45
 -15  -4  10    1.38    1.01
 -15   4 -10   -0.32    0.81
 -15  -4 -10    0.06    1.17
 -15   4  11   33.41    4.92
 -15  -4  11   31.19    4.19
 -15   4 -11   27.62    3.02
 -15  -4 -11   26.62    3.49
 -15  -4  12   81.75    6.99
 -15   4  12   82.86    7.78
 -15  -4 -12   92.51    6.53
 -15   4 -12   79.21    5.32
 -15   4  13   -1.05    2.33
 -15  -4  13   -0.30    1.26
 -15   4 -13    1.20    1.05
 -15  -4 -13   -1.51    1.46
 -15  -4  14    4.04    1.94
 -15   4 -14    2.71    1.18
 -15   4 -15    2.80    1.31
 -15   4 -16    3.05    1.50
 -15   4 -17    0.14    1.09
 -15   4 -18   35.03    4.24
 -15   5   0    0.62    0.66
 -15   5   0   -0.55    0.73
 -15  -5   0    0.31    0.98
 -15  -5   1    8.11    1.86
 -15   5  -1    6.80    1.50
 -15   5   1    8.26    1.73
 -15   5  -1    6.92    1.79
 -15   5   1    7.00    1.73
 -15  -5  -1    6.43    1.78
 -15  -5   2   10.48    2.14
 -15   5  -2   10.30    1.94
 -15   5   2    6.56    1.70
 -15   5  -2   10.42    1.85
 -15  -5  -2   10.67    2.15
 -15  -5   3    3.73    1.47
 -15   5   3    0.76    0.87
 -15   5  -3    2.50    1.14
 -15  -5  -3    4.06    1.37
 -15   5  -3    2.71    0.99
 -15  -5   4    0.23    0.80
 -15   5   4    1.81    1.35
 -15  -5   4    0.33    0.86
 -15   5  -4    0.72    0.79
 -15   5  -4    0.54    0.62
 -15  -5  -4    1.91    0.88
 -15  -5   5    1.86    1.12
 -15   5  -5    3.35    1.23
 -15   5   5    4.03    1.79
 -15  -5   5    3.42    1.33
 -15  -5  -5    1.78    1.28
 -15   5  -5    2.50    0.92
 -15   5   6    1.73    1.37
 -15  -5   6    1.04    0.96
 -15  -5  -6   -1.29    1.08
 -15   5  -6    0.13    0.61
 -15   5   7    2.05    1.33
 -15  -5   7    1.66    1.13
 -15   5  -7    1.65    0.97
 -15  -5  -7    2.68    1.07
 -15   5   8    1.07    1.43
 -15  -5   8    2.66    1.64
 -15  -5  -8   -0.68    1.10
 -15   5  -8    0.64    0.78
 -15   5   9   25.53    4.37
 -15  -5   9   28.81    3.85
 -15   5  -9   25.00    2.83
 -15  -5  -9   24.24    3.26
 -15   5  10   -1.02    1.55
 -15  -5  10   -1.09    1.42
 -15   5 -10    1.34    0.86
 -15  -5 -10   -0.45    0.96
 -15   5  11   16.53    3.77
 -15  -5  11   15.22    3.03
 -15   5 -11   15.50    2.29
 -15  -5 -11   14.64    2.58
 -15   5  12    1.00    1.28
 -15  -5  12    2.21    1.57
 -15   5 -12    0.69    0.90
 -15  -5 -12   -0.18    1.22
 -15   5  13   -2.00    2.00
 -15  -5  13    0.52    1.00
 -15   5 -13   -0.57    0.94
 -15   5 -14    1.09    1.17
 -15   5 -15    2.82    1.10
 -15   6   0   -0.97    1.01
 -15   6   0    0.40    0.61
 -15  -6   0    0.67    0.97
 -15   6  -1   22.94    2.58
 -15   6   1   22.08    2.65
 -15   6   1   22.26    3.01
 -15   6  -1   21.74    2.82
 -15  -6  -1   28.48    3.30
 -15  -6   1   29.40    3.44
 -15  -6   2   29.34    3.40
 -15   6   2   31.94    3.72
 -15   6  -2   24.56    3.01
 -15  -6  -2   28.44    3.34
 -15   6  -2   29.40    2.88
 -15  -6   3    1.14    1.13
 -15   6  -3    3.05    1.14
 -15   6   3    1.24    1.27
 -15   6  -3    0.19    0.53
 -15  -6  -3    0.90    1.03
 -15  -6   4   93.41    6.07
 -15   6  -4   95.14    5.55
 -15   6   4   97.14    6.92
 -15   6  -4   85.94    4.94
 -15  -6   4  102.54    6.50
 -15  -6  -4   86.13    5.91
 -15   6   5   35.04    4.38
 -15  -6   5   34.46    3.80
 -15   6  -5   34.85    3.30
 -15  -6   5   41.81    4.20
 -15  -6  -5   40.11    4.15
 -15   6  -5   33.37    3.07
 -15   6   6   -0.65    1.30
 -15  -6   6   -0.18    0.97
 -15   6  -6   -0.15    0.70
 -15  -6   6    2.47    1.19
 -15  -6  -6    2.24    1.37
 -15   6  -6    0.11    0.60
 -15   6   7   13.20    2.93
 -15  -6   7   13.98    2.54
 -15  -6   7   15.02    2.67
 -15   6  -7   12.85    2.09
 -15  -6  -7   14.56    2.68
 -15   6  -7   11.74    1.82
 -15   6   8    8.14    2.64
 -15  -6   8    5.58    2.01
 -15  -6  -8    5.45    1.58
 -15   6  -8    3.67    1.26
 -15   6   9   15.31    3.57
 -15  -6   9   16.51    2.83
 -15   6  -9   15.91    2.20
 -15  -6  -9   16.62    2.78
 -15   6  10    3.82    1.66
 -15  -6  10    2.00    1.18
 -15   6 -10    1.39    0.94
 -15  -6 -10    2.16    1.29
 -15  -6  11   62.43    6.01
 -15   6  11   60.78    7.04
 -15   6 -11   61.84    4.41
 -15   6  12    2.35    2.12
 -15  -6  12    4.94    2.41
 -15   6 -12    4.49    1.28
 -15  -6  13   -0.92    1.45
 -15   7   0    0.03    0.67
 -15   7   0    1.25    1.34
 -15  -7   0   -0.02    0.97
 -15   7  -1    0.97    0.74
 -15   7   1    0.49    0.63
 -15   7   1    2.56    1.44
 -15   7  -1   -0.98    1.26
 -15  -7  -1    2.11    1.15
 -15  -7   1    0.11    0.78
 -15   7   2    2.12    1.37
 -15   7  -2    3.21    1.14
 -15   7  -2    3.54    1.16
 -15  -7   2    1.23    0.93
 -15  -7  -2    6.73    1.98
 -15   7   3    6.88    1.95
 -15   7  -3    8.27    1.83
 -15  -7   3    8.58    1.94
 -15  -7  -3   11.11    2.42
 -15   7  -3    7.62    1.57
 -15   7   4    3.96    1.72
 -15  -7   4    5.82    1.72
 -15  -7   4    5.35    1.52
 -15   7  -4    3.76    1.27
 -15  -7  -4    5.95    1.79
 -15   7  -4    6.22    1.29
 -15   7   5    1.14    1.56
 -15  -7   5    0.48    0.86
 -15   7  -5    0.60    0.66
 -15  -7   5    2.52    1.35
 -15  -7  -5    3.53    1.55
 -15   7  -5    2.16    1.08
 -15   7   6    0.38    1.64
 -15   7  -6   -0.42    0.82
 -15  -7   6   -0.70    1.18
 -15  -7   6   -0.24    1.11
 -15   7  -6    0.89    0.63
 -15  -7  -6   -0.98    1.08
 -15   7   7    1.74    1.26
 -15  -7   7    3.04    1.51
 -15  -7   7    4.18    1.98
 -15   7  -7    2.62    1.16
 -15  -7  -7    1.61    0.88
 -15   7  -7    3.42    1.09
 -15   7   8    6.24    2.02
 -15  -7   8   11.79    2.45
 -15  -7   8    9.54    2.37
 -15   7  -8    9.48    1.68
 -15  -7  -8   10.50    2.28
 -15   7   9   -2.26    1.86
 -15  -7   9    0.32    1.16
 -15  -7  -9   -0.47    1.02
 -15   7  10   -0.62    2.01
 -15  -7  10   -1.29    1.09
 -15   7  11   -2.40    2.65
 -15  -7  11   -2.94    1.96
 -15   7  12    9.53    3.19
 -15  -7  12    8.07    2.52
 -15   8   0    0.06    0.90
 -15   8   0   -0.24    0.67
 -15  -8   0    0.81    1.12
 -15   8   1   21.64    3.39
 -15   8  -1   22.70    3.24
 -15   8   1   24.67    2.67
 -15  -8   1   23.53    3.20
 -15  -8  -1   21.65    2.97
 -15   8  -1   25.29    2.65
 -15   8  -2   46.24    4.42
 -15   8   2   42.89    4.73
 -15   8   2   47.94    3.82
 -15   8  -2   47.46    3.51
 -15  -8   2   49.47    4.71
 -15  -8  -2   47.97    4.44
 -15   8   3    1.47    1.59
 -15   8  -3   -0.24    0.84
 -15   8  -3    0.33    0.58
 -15  -8  -3   -0.71    1.02
 -15  -8   3    0.19    0.92
 -15   8   4   36.39    4.63
 -15  -8   4   41.20    4.11
 -15  -8   4   40.57    4.30
 -15  -8  -4   41.88    4.19
 -15   8   5    8.41    2.31
 -15  -8   5    9.23    2.01
 -15  -8   5   11.30    2.35
 -15  -8  -5    8.46    2.15
 -15   8   6   28.10    4.50
 -15  -8   6   29.28    3.56
 -15  -8   6   38.37    4.20
 -15  -8  -6   31.91    3.76
 -15   8   7    2.70    1.65
 -15  -8   7    1.31    1.07
 -15  -8   7    0.01    1.03
 -15  -8  -7   -1.73    1.42
 -15   8   8   24.24    4.20
 -15  -8   8   28.60    3.63
 -15  -8   8   28.71    3.92
 -15   8   9    1.87    1.48
 -15  -8   9    3.36    1.71
 -15  -8   9    2.85    1.62
 -15   8  10    3.92    2.37
 -15  -8  10    1.39    1.33
 -15  -8  10   -0.44    1.18
 -15   8  11    9.57    3.40
 -15  -8  11    6.65    2.16
 -15  -9   0   -0.58    0.81
 -15  -9   1   -0.44    1.25
 -15  -9  -1    2.76    1.50
 -15   9   2    0.80    1.16
 -15  -9  -2    0.78    0.73
 -15  -9   2    1.33    1.07
 -15   9   3   -0.30    1.09
 -15  -9  -3    1.75    1.75
 -15  -9   3   -0.75    0.82
 -15   9   4    3.55    2.41
 -15  -9   4   -0.24    0.80
 -15  -9   4   -1.84    1.27
 -15  -9  -4    0.39    0.76
 -15   9   5    1.36    1.53
 -15  -9   5    1.25    0.98
 -15  -9   5    1.69    1.00
 -15  -9  -5    1.49    0.97
 -15   9   6   -0.87    1.56
 -15  -9   6    1.93    1.11
 -15  -9   6    1.59    1.20
 -15   9   7    1.73    1.36
 -15  -9   7    1.18    0.84
 -15  -9   7    0.00    0.75
 -15   9   8    0.49    2.18
 -15  -9   8    0.40    0.90
 -15  -9   8    2.35    1.42
 -15   9   9    0.32    1.42
 -15  -9   9    0.44    1.15
 -15  -9   9   -0.80    1.46
 -15   9  10    1.70    2.04
 -15   9  11    1.34    1.47
 -15 -10   0    1.32    1.07
 -15 -10  -1   32.90    3.92
 -15 -10   1   34.50    3.98
 -15 -10   2    3.20    1.20
 -15 -10  -2    4.10    1.41
 -15 -10   3    0.02    0.93
 -15 -10   4    4.05    1.56
 -15 -10   4    3.21    1.45
 -15 -10   5   45.02    4.70
 -15 -10   5   51.49    4.80
 -15 -10   6   -0.91    1.02
 -15 -10   6   -1.14    1.52
 -15 -10   7    3.30    1.54
 -15 -10   7    5.86    1.78
 -16   0   0  133.07    7.27
 -16   0  -1    0.37    0.80
 -16   0   1   -0.32    0.99
 -16   0   1    1.04    1.20
 -16   0   2   10.56    2.05
 -16   0   2   10.42    2.25
 -16   0  -2   11.30    2.04
 -16   0   3   -0.58    0.94
 -16   0  -3   -0.90    0.81
 -16   0   4  347.43   12.41
 -16   0  -4  327.22   11.39
 -16   0   5    0.30    1.06
 -16   0  -5   -0.89    0.83
 -16   0   6  166.95    8.83
 -16   0  -6  165.33    7.98
 -16   0   7    0.14    1.14
 -16   0  -7    1.55    1.05
 -16   0   8    0.90    1.13
 -16   0  -8   -0.87    1.07
 -16   0   9    0.07    1.19
 -16   0  -9    1.63    1.21
 -16   0  10   56.80    5.77
 -16   0 -10   54.48    4.71
 -16   0  11    0.52    1.44
 -16   0 -11    0.71    0.82
 -16   0  12   34.32    4.75
 -16   0 -12   31.19    3.86
 -16   0 -13    0.35    0.89
 -16   0 -14   35.96    4.15
 -16  -1   0   16.69    2.58
 -16   1   0   17.29    2.58
 -16   1   0   11.81    2.32
 -16  -1  -1   13.72    2.41
 -16   1  -1   14.16    2.36
 -16  -1   1   11.23    2.17
 -16   1   1   17.81    2.69
 -16   1   1   14.89    2.51
 -16   1   2   43.96    4.20
 -16  -1   2   44.61    4.27
 -16   1   2   45.62    4.38
 -16   1  -2   35.82    3.64
 -16  -1   2   42.37    4.13
 -16  -1  -2   42.71    4.07
 -16  -1   3   47.80    4.47
 -16  -1   3   43.82    4.29
 -16   1   3   51.79    4.62
 -16  -1  -3   47.89    4.25
 -16   1  -3   50.20    4.26
 -16   1   4   -0.23    0.99
 -16  -1   4   -1.44    1.41
 -16  -1  -4    1.79    1.27
 -16   1  -4   -0.10    0.81
 -16  -1   5    1.67    1.29
 -16   1   5    1.14    1.12
 -16  -1  -5   -0.58    0.94
 -16   1  -5    0.87    0.96
 -16  -1   6    5.11    1.69
 -16   1   6    3.61    1.47
 -16  -1  -6    8.44    2.06
 -16   1  -6    6.36    1.73
 -16   1   7    7.90    2.23
 -16  -1   7   11.07    2.53
 -16  -1  -7    8.65    2.11
 -16   1  -7    8.85    1.90
 -16   1   8    2.39    1.37
 -16  -1   8   -1.20    1.14
 -16  -1  -8    1.74    1.02
 -16   1  -8   -0.53    0.78
 -16  -1   9    5.99    1.77
 -16   1   9    8.46    2.48
 -16  -1  -9    4.29    1.51
 -16   1  -9    6.23    1.63
 -16  -1  10    6.89    2.31
 -16   1  10    5.77    2.14
 -16  -1 -10    3.56    1.52
 -16   1 -10    7.02    1.88
 -16   1  11    2.02    1.45
 -16  -1  11    3.82    1.79
 -16   1 -11    4.22    1.59
 -16  -1 -11    3.33    1.49
 -16   1  12   19.79    3.61
 -16  -1  12   26.04    4.18
 -16   1 -12   25.33    3.35
 -16  -1 -12   28.28    3.66
 -16   1 -13   20.11    2.99
 -16  -1 -13   21.94    3.23
 -16   1 -14    8.85    2.13
 -16   1 -15    7.31    2.15
 -16  -2   0   17.55    2.69
 -16   2   0   23.10    2.94
 -16   2   0   26.35    3.22
 -16  -2  -1   16.94    2.67
 -16   2  -1   12.75    2.17
 -16  -2   1   12.86    2.39
 -16   2   1   16.35    2.62
 -16   2  -1   21.01    3.03
 -16   2   1   16.10    2.67
 -16   2   2    7.80    1.94
 -16  -2   2    5.21    1.49
 -16   2   2    4.76    1.63
 -16  -2   2    6.41    1.87
 -16   2  -2    6.02    1.61
 -16  -2  -2    6.21    1.68
 -16  -2   3  193.28    8.99
 -16   2   3  184.62    9.03
 -16  -2   3  184.10    8.73
 -16  -2  -3  176.15    8.30
 -16   2  -3  171.64    7.95
 -16   2   4    0.64    1.05
 -16  -2   4    1.79    1.38
 -16  -2  -4    2.29    1.17
 -16   2  -4    2.29    1.09
 -16  -2   5   -0.16    0.86
 -16   2   5   -0.03    1.08
 -16   2  -5    1.02    0.98
 -16  -2  -5    0.74    0.98
 -16   2   6    2.40    1.32
 -16  -2   6    2.65    1.62
 -16  -2  -6    5.31    1.63
 -16   2  -6    3.13    1.25
 -16   2   7  101.78    7.27
 -16  -2   7  111.50    7.26
 -16  -2  -7  102.52    6.50
 -16   2  -7  107.17    6.25
 -16   2   8    6.05    2.08
 -16  -2   8    4.45    1.69
 -16  -2  -8    4.80    1.61
 -16   2  -8    4.95    1.53
 -16   2   9   86.38    7.27
 -16  -2   9   83.38    6.61
 -16  -2  -9   93.89    6.30
 -16   2  -9   77.69    5.44
 -16   2  10   17.66    3.54
 -16  -2  10   14.77    3.09
 -16   2 -10   20.02    2.96
 -16  -2 -10   21.02    2.96
 -16   2  11    4.96    1.92
 -16  -2  11    4.32    1.88
 -16   2 -11    8.11    1.95
 -16  -2 -11    4.66    1.47
 -16   2  12    7.51    2.48
 -16  -2  12    7.62    2.63
 -16   2 -12    9.39    2.07
 -16  -2 -12    7.85    1.81
 -16   2 -13   93.56    6.27
 -16   2 -14    7.73    2.01
 -16   2 -15    6.92    1.91
 -16  -3   0   12.66    2.40
 -16   3   0   13.78    2.27
 -16   3   0   14.88    2.49
 -16   3  -1    3.12    1.28
 -16  -3   1    6.11    1.93
 -16   3   1    2.15    0.91
 -16   3   1    5.63    1.53
 -16   3  -1    2.40    1.20
 -16  -3  -1    1.90    0.98
 -16  -3   2    3.08    1.38
 -16   3   2   -0.69    1.08
 -16   3   2    1.42    1.15
 -16   3  -2    4.25    1.55
 -16   3  -2    0.70    0.83
 -16  -3  -2    2.24    0.94
 -16  -3   3    1.42    1.11
 -16   3  -3    0.36    0.84
 -16   3   3    1.57    1.24
 -16  -3   3    0.09    0.81
 -16  -3  -3    0.09    1.07
 -16   3  -3   -0.59    0.83
 -16  -3   4   37.88    4.04
 -16   3   4   32.52    3.87
 -16  -3   4   36.08    3.97
 -16  -3  -4   36.32    3.77
 -16   3  -4   32.72    3.39
 -16   3   5    9.07    2.26
 -16  -3   5   13.44    2.54
 -16   3  -5    9.21    1.92
 -16  -3  -5   11.87    2.24
 -16  -3   6    4.50    1.46
 -16   3   6    4.14    1.55
 -16  -3  -6    5.94    1.72
 -16   3  -6    3.67    1.37
 -16  -3   7   -0.46    2.32
 -16   3   7    2.76    1.42
 -16  -3  -7    3.00    1.31
 -16   3  -7    3.56    1.33
 -16   3   8    9.31    2.41
 -16  -3   8    9.82    2.36
 -16   3  -8   10.97    2.12
 -16  -3  -8   11.79    2.34
 -16   3   9    2.92    1.58
 -16  -3   9    4.46    1.89
 -16  -3  -9    5.74    1.94
 -16   3  -9    3.62    1.33
 -16   3  10   16.90    3.27
 -16  -3  10   13.87    2.95
 -16   3 -10   17.67    2.63
 -16  -3 -10   17.10    2.85
 -16   3  11   -1.97    1.74
 -16  -3  11   -1.28    1.27
 -16   3 -11    1.67    1.15
 -16  -3 -11   -1.03    1.30
 -16   3  12    8.41    2.51
 -16  -3  12   13.73    3.14
 -16   3 -12   11.77    2.23
 -16   3 -13    2.10    1.11
 -16   3 -14   21.67    3.09
 -16   3 -15    0.85    1.06
 -16   3 -16    1.40    1.19
 -16   4   0  178.67    8.55
 -16   4   0  186.36    8.17
 -16  -4   0  186.65    8.74
 -16   4  -1   11.96    2.25
 -16  -4   1   11.43    2.37
 -16   4  -1   10.94    1.99
 -16   4   1   12.95    2.17
 -16   4   1   11.16    2.24
 -16  -4  -1    8.73    2.05
 -16   4   2   88.96    5.81
 -16   4  -2   86.59    5.70
 -16   4   2   83.74    6.01
 -16  -4  -2   86.56    5.88
 -16   4  -2   78.89    5.24
 -16  -4   2   91.28    6.16
 -16   4   3    0.14    1.20
 -16  -4   3   -0.69    1.19
 -16  -4   3    1.14    1.33
 -16   4  -3   -0.69    1.07
 -16  -4  -3   -0.96    1.26
 -16   4  -3   -2.10    1.19
 -16   4   4  101.51    7.03
 -16   4  -4  120.30    6.71
 -16  -4   4  114.00    7.04
 -16  -4   4  119.08    7.12
 -16   4  -4  107.66    6.01
 -16  -4  -4  115.59    6.83
 -16  -4   5   -0.47    0.90
 -16  -4   5    2.05    1.35
 -16   4   5    0.50    1.38
 -16   4  -5    0.34    0.68
 -16  -4  -5    0.35    0.96
 -16  -4   6  153.24    8.24
 -16   4   6  125.57    8.29
 -16  -4  -6  140.16    7.66
 -16   4  -6  134.67    6.73
 -16  -4   7    1.42    1.54
 -16   4   7    2.06    1.48
 -16  -4  -7   -1.08    0.86
 -16   4  -7    0.89    0.73
 -16   4   8   -1.16    1.68
 -16  -4   8   -0.33    1.22
 -16   4  -8    0.31    0.82
 -16   4   9    6.81    2.25
 -16  -4   9    5.65    1.99
 -16  -4  -9    8.93    2.17
 -16   4  -9    9.35    1.89
 -16   4  10    7.86    2.29
 -16  -4  10   13.29    2.81
 -16   4 -10   11.04    2.03
 -16  -4 -10   19.62    3.05
 -16   4  11    3.96    2.25
 -16  -4  11    1.38    1.37
 -16   4 -11   -0.68    0.70
 -16   4 -12   52.09    4.40
 -16   4 -13    0.17    1.04
 -16   4 -14    4.18    1.91
 -16   4 -15    2.25    1.22
 -16   4 -16   41.00    4.49
 -16   5   0   13.32    2.21
 -16   5   0    9.97    2.07
 -16  -5   0   13.95    2.46
 -16   5  -1    3.55    1.27
 -16   5   1    1.25    0.88
 -16   5  -1    2.23    1.27
 -16   5   1    2.58    1.38
 -16  -5   1    4.50    1.68
 -16  -5  -1    3.84    1.30
 -16  -5   2    9.00    1.99
 -16   5  -2   11.39    2.22
 -16   5   2   11.95    2.51
 -16   5   2   11.76    2.19
 -16  -5  -2   13.67    2.45
 -16   5  -2   11.04    1.86
 -16  -5   3   -0.91    1.13
 -16   5   3   -0.67    1.08
 -16   5  -3   -0.98    1.03
 -16  -5  -3    0.75    0.90
 -16   5  -3   -0.32    0.77
 -16  -5   4   10.88    2.37
 -16   5   4   11.13    2.58
 -16  -5   4    7.96    1.98
 -16   5  -4   10.14    1.97
 -16   5  -4    6.63    1.51
 -16  -5  -4    7.83    1.91
 -16  -5   5   -0.36    1.13
 -16   5   5   -0.12    1.02
 -16   5  -5    1.59    1.11
 -16  -5   5    0.43    0.99
 -16  -5  -5   -0.12    0.89
 -16   5  -5    1.02    0.94
 -16   5   6    1.76    1.63
 -16  -5   6   -1.21    1.31
 -16   5  -6    0.31    0.87
 -16  -5   6   -1.26    1.28
 -16  -5  -6    1.11    0.94
 -16   5  -6    0.03    0.69
 -16   5   7   -1.11    1.70
 -16  -5   7    1.51    1.49
 -16   5  -7    1.27    0.92
 -16  -5  -7   -0.90    0.88
 -16   5   8    1.72    1.82
 -16  -5   8   -0.82    0.96
 -16  -5  -8    1.77    1.17
 -16   5  -8   -0.32    0.72
 -16   5   9    8.32    2.59
 -16  -5   9    5.13    1.68
 -16   5  -9    8.85    1.82
 -16  -5  -9    6.77    1.87
 -16   5  10    4.13    1.88
 -16  -5  10    1.05    1.13
 -16   5 -10    2.89    1.18
 -16   5  11   -0.76    1.46
 -16   5 -11    0.04    0.87
 -16   5 -12    1.92    0.79
 -16   5 -13   22.97    3.04
 -16   5 -14    1.71    1.16
 -16   6   0   46.87    4.44
 -16   6   0   48.98    4.04
 -16  -6   0   45.30    4.35
 -16   6  -1   22.95    2.68
 -16   6   1   21.32    2.77
 -16   6   1   20.38    3.05
 -16   6  -1   20.15    2.94
 -16  -6   1   25.08    3.33
 -16  -6  -1   23.68    3.20
 -16   6   2   13.20    2.76
 -16   6   2   15.83    2.53
 -16   6  -2   10.27    2.23
 -16  -6   2   18.76    2.96
 -16  -6  -2   16.69    2.80
 -16   6  -2   12.10    1.88
 -16   6  -3  143.65    7.43
 -16   6   3  125.99    7.92
 -16   6  -3  140.69    6.61
 -16  -6   3  168.37    8.61
 -16  -6  -3  157.25    8.15
 -16   6   4   13.57    2.90
 -16  -6   4   15.01    2.64
 -16   6  -4   17.25    2.64
 -16  -6   4   12.94    2.51
 -16   6  -4   15.08    2.17
 -16  -6  -4   12.45    2.36
 -16   6   5    3.92    1.41
 -16  -6   5    6.05    1.72
 -16  -6   5    5.00    1.51
 -16   6  -5    5.80    1.63
 -16  -6  -5    8.03    2.03
 -16   6  -5    3.38    1.09
 -16   6   6    0.00    1.48
 -16  -6   6    0.14    0.88
 -16   6  -6   -0.35    0.81
 -16  -6   6   -1.24    1.09
 -16  -6  -6   -1.49    1.35
 -16   6  -6   -1.30    0.97
 -16   6   7   91.58    7.76
 -16   6  -7   97.50    5.90
 -16  -6   7  101.21    7.01
 -16  -6   7  109.60    7.31
 -16  -6  -7   96.08    6.56
 -16   6  -7   87.57    5.19
 -16   6   8    1.59    1.85
 -16  -6   8    0.85    0.95
 -16   6  -8    0.45    0.76
 -16   6  -8    0.06    0.73
 -16   6   9   58.81    6.58
 -16  -6   9   50.45    5.32
 -16   6  -9   52.85    4.10
 -16   6  10   -2.48    2.24
 -16  -6  10   -1.04    1.29
 -16   6 -10    0.08    0.85
 -16   6  11    0.36    1.88
 -16   6 -11    2.13    1.23
 -16   7   0   30.50    3.74
 -16  -7   0   26.40    3.48
 -16   7   0   29.66    3.06
 -16   7   1    5.94    1.41
 -16   7   1    5.23    1.87
 -16   7  -1    9.49    2.27
 -16   7  -1    6.50    1.50
 -16  -7  -1   10.04    2.25
 -16  -7   1    7.85    1.98
 -16   7   2    8.22    2.14
 -16   7   2    5.60    1.62
 -16   7  -2    8.66    1.99
 -16  -7   2    8.43    2.07
 -16   7  -2    5.35    1.40
 -16  -7  -2    6.58    1.86
 -16   7   3    4.45    1.82
 -16   7  -3    8.07    2.02
 -16  -7   3    4.30    2.02
 -16   7  -3    4.90    1.27
 -16  -7  -3    8.34    2.05
 -16   7   4   11.00    2.60
 -16  -7   4   10.36    2.87
 -16  -7   4   11.07    2.36
 -16   7  -4   14.88    2.63
 -16  -7  -4   10.81    2.32
 -16   7  -4   11.14    1.83
 -16   7   5    3.33    1.53
 -16  -7   5    2.41    1.23
 -16   7  -5    1.71    0.88
 -16  -7   5    5.68    1.78
 -16  -7  -5    3.17    1.32
 -16   7  -5    4.19    1.33
 -16   7   6   11.68    3.21
 -16  -7   6    7.56    2.00
 -16   7  -6    7.83    1.88
 -16  -7   6    7.67    1.95
 -16   7  -6    6.70    1.43
 -16   7   7    2.41    1.64
 -16  -7   7    2.75    1.58
 -16  -7   7    0.99    1.21
 -16   7   8    2.13    1.77
 -16  -7   8    3.83    1.62
 -16  -7   8    1.54    1.09
 -16   7   9    1.41    1.13
 -16   7  10    2.82    1.95
 -16   8   0   26.12    3.74
 -16  -8   0   31.13    3.79
 -16   8   0   29.74    3.05
 -16   8   1    4.63    1.64
 -16   8   1    7.17    1.60
 -16   8  -1    6.55    1.80
 -16  -8   1    6.31    1.75
 -16   8  -1    7.56    1.59
 -16  -8  -1    6.78    1.97
 -16   8   2    8.64    2.36
 -16   8   2    8.81    1.81
 -16  -8   2    8.22    1.99
 -16  -8  -2    7.08    1.92
 -16   8   3    1.12    1.43
 -16   8   3   -1.92    1.17
 -16  -8   3    0.07    1.07
 -16  -8  -3    0.51    0.98
 -16   8   4   12.41    2.98
 -16  -8   4   16.94    2.89
 -16  -8   4   21.01    3.25
 -16   8   5   -2.09    1.63
 -16  -8   5    0.36    1.15
 -16  -8   5   -0.25    0.92
 -16   8   6   46.09    5.73
 -16  -8   6   55.53    5.20
 -16  -8   6   63.66    5.53
 -16   8   7    5.11    2.28
 -16   8   8    2.16    1.47
 -16   8   9    2.59    1.82
 -16   9   4    6.10    2.29
 -16   9   5    2.38    1.38
 -16   9   6    5.06    2.78
 -16   9   7    0.19    1.56
 -16   9   8    6.74    2.70
 -16   9   9    7.33    2.89
 -17   0   0   -1.04    1.08
 -17   0   0    0.18    1.08
 -17   0   1   -0.40    1.08
 -17   0   1   -0.38    0.92
 -17   0  -1    2.03    1.33
 -17   0   2  157.81    8.49
 -17   0   2  154.27    8.16
 -17   0  -2  151.59    7.99
 -17   0   3    1.04    1.19
 -17   0   3    0.69    1.13
 -17   0  -3   -1.83    1.48
 -17   0   4   22.77    3.50
 -17   0  -4   23.92    3.12
 -17   0   5    2.46    1.44
 -17   0  -5   -0.09    1.01
 -17   0   6   23.20    3.54
 -17   0  -6   19.67    2.92
 -17   0   7    1.13    1.36
 -17   0  -7   -0.58    0.83
 -17   0   8   82.90    6.77
 -17   0  -8   92.52    6.32
 -17   0   9   -0.70    1.26
 -17   0  -9   -0.96    1.03
 -17   0  10   15.09    3.14
 -17   0 -10   11.44    2.49
 -17   0 -11   -1.08    0.94
 -17   0 -12   16.48    2.87
 -17  -1   0   -1.12    1.09
 -17   1   0   -1.30    0.83
 -17   1   0    1.67    1.39
 -17   1  -1    1.86    1.45
 -17  -1   1   -0.48    0.98
 -17   1   1    2.10    1.13
 -17   1  -1    3.77    1.55
 -17  -1   1   -0.24    1.24
 -17   1   1    1.72    1.39
 -17  -1  -1   -0.03    0.94
 -17  -1   2   18.64    2.98
 -17   1   2   19.81    2.88
 -17  -1   2   17.32    2.99
 -17   1   2   20.18    3.11
 -17  -1  -2   16.68    2.53
 -17   1  -2   18.67    2.90
 -17   1   3    3.01    1.89
 -17  -1   3    0.44    0.82
 -17   1   3    1.02    1.18
 -17  -1   3    0.50    1.09
 -17   1  -3    0.73    1.26
 -17  -1  -3    0.36    0.83
 -17  -1   4   -0.01    0.95
 -17  -1   4   -0.50    1.33
 -17   1   4    2.02    1.51
 -17  -1  -4    0.98    1.13
 -17   1  -4   -1.98    1.21
 -17  -1   5   31.98    3.95
 -17   1   5   31.72    4.08
 -17   1  -5   28.70    3.42
 -17  -1  -5   33.19    3.73
 -17  -1   6    2.87    1.09
 -17   1   6    6.08    1.83
 -17  -1  -6    4.33    1.46
 -17   1  -6    4.56    1.57
 -17   1   7   -1.29    1.29
 -17  -1   7    2.57    1.44
 -17  -1  -7    3.39    1.39
 -17   1  -7    1.89    1.08
 -17  -1   8    2.96    1.56
 -17   1   8    3.15    1.72
 -17  -1  -8    3.17    1.34
 -17   1  -8    0.54    1.01
 -17  -1   9   -0.71    1.50
 -17   1   9    3.69    1.88
 -17  -1  -9   -1.01    1.10
 -17   1  -9    0.31    0.73
 -17   1  10   -0.74    1.60
 -17  -1 -10    0.56    0.81
 -17   1 -10    1.19    0.83
 -17   1 -11    2.49    1.44
 -17  -1 -11    2.29    1.43
 -17   1 -12    0.99    0.99
 -17   1 -13   -0.92    1.20
 -17  -2   0   -1.50    1.25
 -17   2   0    1.88    1.34
 -17   2   0   -0.68    0.88
 -17   2  -1   56.01    5.04
 -17   2   1   48.07    4.63
 -17   2   1   50.30    4.56
 -17   2  -1   48.50    4.37
 -17  -2   1   48.92    4.56
 -17  -2  -1   48.86    4.54
 -17  -2   2    0.11    0.86
 -17   2   2    2.01    1.39
 -17   2   2    1.19    1.02
 -17   2  -2    0.14    1.13
 -17  -2   2    0.84    1.21
 -17   2  -2   -1.07    0.81
 -17  -2  -2   -0.63    0.91
 -17  -2   3    8.62    2.14
 -17   2   3    7.92    2.00
 -17   2   3    6.10    2.10
 -17  -2   3    6.34    1.85
 -17   2  -3    6.55    1.77
 -17  -2  -3    5.56    1.71
 -17  -2   4    0.47    1.10
 -17   2   4    1.09    1.32
 -17  -2   4   -0.78    1.30
 -17  -2  -4    1.27    1.16
 -17   2  -4    1.83    1.29
 -17  -2   5   88.87    6.47
 -17   2   5   83.52    6.61
 -17   2  -5   88.38    5.87
 -17  -2  -5   91.86    6.22
 -17   2   6   -1.39    1.61
 -17  -2   6    0.62    1.22
 -17  -2  -6    0.69    0.91
 -17   2  -6    0.34    0.80
 -17   2   7   59.78    5.78
 -17  -2   7   58.78    5.53
 -17  -2  -7   61.75    5.19
 -17   2  -7   65.24    5.08
 -17   2   8    4.49    1.87
 -17  -2   8   -1.00    1.71
 -17  -2  -8    2.24    1.14
 -17   2  -8    0.08    1.02
 -17  -2   9   24.49    3.85
 -17   2   9   25.60    4.01
 -17  -2  -9   24.48    3.35
 -17   2  -9   22.54    3.06
 -17   2  10    4.10    1.87
 -17   2 -10    1.36    1.16
 -17  -2 -10   -0.36    1.23
 -17   2 -11   83.18    5.93
 -17   2 -12    1.99    1.31
 -17   2 -13    2.21    1.00
 -17   3   0   -0.18    0.89
 -17   3   0    0.25    1.77
 -17  -3   0    1.22    0.96
 -17   3  -1    8.76    2.00
 -17  -3   1   12.69    2.49
 -17   3   1    6.73    1.84
 -17   3   1    9.33    2.11
 -17   3  -1    7.97    1.86
 -17  -3  -1    7.79    2.02
 -17  -3   2    4.57    1.83
 -17   3   2    4.97    1.74
 -17   3   2    2.68    1.45
 -17  -3   2    3.84    1.64
 -17   3  -2    2.44    1.29
 -17  -3  -2    5.36    1.78
 -17   3  -2    2.54    1.10
 -17  -3   3    5.93    1.79
 -17   3  -3    6.72    1.96
 -17  -3   3    5.46    1.65
 -17   3   3    3.65    1.73
 -17   3  -3    3.52    1.30
 -17  -3  -3    7.17    1.87
 -17  -3   4   21.57    3.33
 -17  -3   4   17.35    2.96
 -17   3   4   20.61    3.37
 -17  -3  -4   21.57    3.08
 -17   3  -4   18.22    2.75
 -17  -3   5    1.54    1.44
 -17   3   5   -0.95    1.38
 -17  -3   5    0.48    0.97
 -17  -3  -5    1.94    1.19
 -17   3  -5    0.28    0.75
 -17  -3   6   31.16    3.90
 -17   3   6   31.69    4.22
 -17  -3  -6   29.47    3.62
 -17   3  -6   28.45    3.38
 -17  -3   7    6.91    2.08
 -17   3   7    4.64    1.99
 -17  -3  -7    5.77    1.67
 -17   3  -7    7.27    1.87
 -17  -3   8   11.21    2.57
 -17   3   8   11.06    2.64
 -17   3  -8   12.20    2.29
 -17  -3  -8   15.78    2.70
 -17   3   9   -0.04    1.41
 -17   3  -9    0.21    0.76
 -17   3 -10    0.94    1.19
 -17   3 -11    7.49    1.97
 -17   3 -12   -0.47    0.77
 -17   3 -13   16.81    2.84
 -17   3 -14   -0.83    1.08
 -17   4   0   -1.40    1.33
 -17   4   0    0.40    1.01
 -17  -4   0   -0.31    0.97
 -17   4  -1    4.69    1.59
 -17   4  -1    4.98    1.88
 -17   4   1    3.34    1.06
 -17   4   1    2.00    1.35
 -17  -4   1    1.35    1.15
 -17  -4  -1   -0.58    1.21
 -17  -4   2   30.56    3.84
 -17   4   2   26.70    3.29
 -17   4   2   24.84    3.55
 -17   4  -2   23.50    3.09
 -17   4  -2   22.86    2.92
 -17  -4  -2   26.96    3.43
 -17   4   3   -0.73    0.97
 -17  -4   3   -0.84    1.48
 -17  -4   3   -0.38    0.98
 -17   4  -3    1.42    1.04
 -17  -4  -3   -1.29    1.23
 -17   4  -3   -1.06    1.04
 -17   4   4   78.94    6.38
 -17   4  -4   86.21    6.07
 -17  -4   4   77.50    6.05
 -17   4  -4   76.33    5.23
 -17  -4   4   85.83    6.31
 -17  -4  -4   81.47    5.94
 -17   4   5    0.99    0.99
 -17  -4   5    1.49    1.13
 -17   4  -5    0.78    1.19
 -17  -4   5    1.57    0.90
 -17  -4  -5    1.29    1.20
 -17   4  -5    2.63    1.03
 -17   4   6    2.28    1.50
 -17  -4   6    1.68    1.38
 -17  -4   6    0.00    0.95
 -17  -4  -6    0.82    1.20
 -17   4  -6    0.23    0.85
 -17  -4   7    0.24    0.93
 -17   4   7    2.16    1.50
 -17  -4  -7    1.48    1.19
 -17   4  -7    2.23    1.10
 -17   4   8   43.05    5.53
 -17  -4   8   47.49    5.17
 -17   4  -8   41.83    4.00
 -17   4   9    1.01    1.14
 -17   4  -9    3.32    1.21
 -17   4 -10   23.66    3.05
 -17   4 -11    1.36    1.15
 -17   4 -12    6.24    1.64
 -17   4 -13    0.14    0.82
 -17   4 -14   28.97    3.83
 -17   5   0   -0.20    0.87
 -17   5   0   -1.62    1.27
 -17  -5   0   -0.14    0.94
 -17   5   1   11.16    2.13
 -17   5  -1   10.32    2.24
 -17   5   1   10.71    2.38
 -17   5  -1   13.65    2.40
 -17  -5   1   13.55    2.56
 -17  -5  -1    9.72    2.05
 -17   5   2    0.73    0.81
 -17   5  -2    0.86    1.38
 -17   5   2    0.91    1.25
 -17  -5   2    0.18    1.17
 -17  -5  -2   -0.89    1.05
 -17   5  -2    0.29    0.94
 -17  -5   3   -1.82    1.34
 -17   5  -3    2.26    1.44
 -17  -5   3   -0.48    1.15
 -17   5   3    0.67    1.18
 -17  -5  -3    0.18    1.08
 -17   5  -3   -0.43    0.90
 -17  -5   4   26.60    3.59
 -17   5   4   22.94    3.66
 -17  -5   4   23.79    3.44
 -17   5  -4   20.17    2.87
 -17   5  -4   22.48    2.84
 -17  -5  -4   21.28    3.08
 -17  -5   5   26.47    3.55
 -17   5  -5   22.71    3.04
 -17   5   5   26.75    4.05
 -17  -5   5   30.19    3.87
 -17  -5  -5   32.32    3.90
 -17   5  -5   28.09    3.08
 -17   5   6   -0.44    1.41
 -17  -5   6    0.45    1.09
 -17  -5   6   -0.51    1.16
 -17   5  -6   -0.22    0.92
 -17   5  -6   -0.98    0.91
 -17   5   7    3.66    1.42
 -17   5  -7    5.96    1.70
 -17   5  -7    3.39    1.37
 -17   5   8   -0.47    1.29
 -17   5  -8    0.50    0.88
 -17   5   9   -2.26    1.50
 -17   5  -9    0.26    0.79
 -17   5 -10    7.19    1.90
 -17   5 -11    0.15    0.96
 -17   5 -12    0.15    1.02
 -17   6   0    0.27    0.99
 -17   6   0   -0.80    1.44
 -17  -6   0    0.37    0.91
 -17   6   1   41.38    4.55
 -17   6  -1   39.81    4.27
 -17   6  -1   47.09    4.14
 -17  -6  -1   42.98    4.47
 -17   6   1   43.31    4.04
 -17  -6   1   49.68    4.80
 -17   6   2    0.80    0.70
 -17   6   2    2.06    1.47
 -17   6  -2   -1.65    1.23
 -17  -6  -2   -1.65    1.42
 -17  -6   2    0.22    0.93
 -17   6  -2   -0.47    0.82
 -17   6   3    3.32    1.40
 -17   6  -3    3.27    1.35
 -17   6   3    5.61    2.08
 -17  -6   3    1.96    1.08
 -17  -6   3    6.04    1.79
 -17   6  -3    1.44    0.75
 -17   6   4    2.70    1.66
 -17  -6   4    1.05    1.05
 -17   6  -4    1.19    0.90
 -17  -6   4    1.79    1.34
 -17   6  -4    0.64    0.83
 -17   6   5   85.05    7.20
 -17   6  -5   94.34    6.11
 -17   6  -5   84.95    5.39
 -17   6   6   -1.50    1.62
 -17   6  -6   -0.83    1.23
 -17   6  -6    0.98    1.07
 -17   6   7   -1.53    1.33
 -17   6  -7    0.51    0.93
 -17   6  -7    0.15    0.91
 -17   6   8    3.16    1.93
 -17   6  -8   -0.13    0.90
 -17   6  -8    0.25    0.91
 -17   6  -9    7.75    1.68
 -17   7   0   -0.18    0.73
 -17   7   0    0.93    1.24
 -17   7   1    0.58    0.75
 -17   7   1    2.62    1.46
 -17   7  -1    1.32    1.05
 -17   7  -1    1.41    1.08
 -17   7   2    1.41    1.41
 -17   7   2   -0.33    0.79
 -17   7  -2   -0.86    1.48
 -17   7  -2   -1.16    0.73
 -17   7   3    0.48    1.01
 -17   7  -3    0.62    1.19
 -17   7   3    1.21    0.84
 -17   7  -3    1.17    0.97
 -17   7   4    3.32    2.00
 -17   7  -4    1.24    1.25
 -17   7  -4    2.12    1.11
 -17   7   5    3.03    1.76
 -17   7   6    7.35    2.44
 -17   7   7   -1.69    1.67
 -17   7   8    6.61    2.59
 -17   8   1    2.34    1.64
 -17   8   2   15.80    3.59
 -17   8   3    3.35    1.98
 -17   8   3    1.11    0.93
 -17   8   4   20.54    3.85
 -17   8   5    2.94    1.84
 -17   8   6    5.30    2.42
 -17   8   7   -0.21    2.12
 -18   0   0   12.62    2.44
 -18   0   0   14.91    3.23
 -18   0   1    0.22    1.17
 -18   0  -1    1.59    1.31
 -18   0   1    1.52    1.71
 -18   0  -1   -0.71    0.89
 -18   0   2    1.36    1.42
 -18   0   2    3.03    1.61
 -18   0  -2    1.36    1.06
 -18   0   3    0.36    1.34
 -18   0   3   -1.21    1.25
 -18   0  -3   -1.24    0.92
 -18   0   4   18.61    3.16
 -18   0   4   18.61    3.24
 -18   0  -4   17.96    2.86
 -18   0   5    1.63    1.17
 -18   0  -5    2.13    1.39
 -18   0   6    8.95    2.33
 -18   0  -6   12.02    2.48
 -18   0  -7    0.06    0.91
 -18   0  -8   -1.68    1.45
 -18   1   0    8.51    2.16
 -18  -1   0   10.87    2.44
 -18   1   0   13.16    2.74
 -18  -1   0   13.30    2.60
 -18  -1   1    3.80    1.59
 -18   1   1    4.71    1.70
 -18   1  -1    5.78    2.16
 -18  -1   1    5.68    1.98
 -18   1   1    3.78    1.74
 -18   1  -1    4.14    1.72
 -18  -1  -1    6.56    1.79
 -18   1   2    0.94    1.30
 -18  -1   2    0.98    0.94
 -18   1   2    1.95    1.55
 -18   1  -2    4.21    1.98
 -18  -1   2    1.23    1.22
 -18   1  -2    2.16    1.36
 -18  -1  -2    0.80    1.04
 -18  -1   3    3.70    1.44
 -18   1   3    3.98    1.46
 -18   1   3    8.38    2.31
 -18  -1   3    3.32    1.56
 -18  -1  -3    6.21    1.75
 -18   1  -3    5.51    1.72
 -18  -1   4    2.10    1.33
 -18  -1   4    5.44    1.75
 -18   1   4    4.66    1.77
 -18   1   4    0.54    1.25
 -18  -1  -4   -0.80    1.02
 -18   1  -4    2.31    1.28
 -18  -1   5   -0.77    1.02
 -18  -1   5    1.57    0.96
 -18   1   5   -2.08    1.45
 -18  -1  -5    0.06    0.99
 -18   1  -5   -0.90    1.19
 -18   1   6   -0.26    1.47
 -18  -1  -6    0.35    1.08
 -18   1  -6    1.07    1.01
 -18  -1  -7    2.66    1.15
 -18   1  -7    4.55    1.67
 -18   1  -8    1.51    0.84
 -18   1  -9    2.27    0.90
 -18   2   0   25.23    3.38
 -18   2   0   20.11    3.41
 -18  -2   0   22.48    3.28
 -18  -2   1   14.14    2.72
 -18   2   1   13.79    2.77
 -18   2   1   11.51    2.50
 -18  -2   1   15.74    2.94
 -18   2  -1   11.88    2.70
 -18   2  -1   12.04    2.33
 -18  -2  -1    9.67    2.29
 -18  -2   2    0.07    1.21
 -18   2   2    4.41    1.75
 -18   2   2    2.64    1.54
 -18   2  -2    0.84    1.01
 -18  -2   2    4.06    1.68
 -18  -2  -2    0.63    0.87
 -18   2  -2    2.20    1.19
 -18   2  -3   76.97    6.54
 -18  -2   3   63.26    5.70
 -18   2   3   63.58    5.84
 -18   2   3   69.89    5.71
 -18  -2  -3   67.99    5.51
 -18   2  -3   64.93    5.22
 -18  -2   3   76.97    6.08
 -18  -2   4    5.13    1.66
 -18   2   4   10.29    2.51
 -18  -2   4    8.94    2.38
 -18  -2  -4    5.07    1.62
 -18   2  -4    5.29    1.67
 -18   2   5    0.01    1.09
 -18  -2   5    0.48    1.00
 -18  -2  -5   -1.12    1.15
 -18   2  -5    0.62    0.88
 -18   2   6    3.89    1.40
 -18   2  -6    4.86    1.61
 -18   2  -7   32.07    3.79
 -18   2  -8    6.63    1.75
 -18   2  -9   26.59    3.41
 -18   2 -10    8.35    2.04
 -18   3   0    6.24    1.81
 -18   3   0    8.30    2.29
 -18  -3   0    6.04    1.98
 -18   3   1    4.26    1.51
 -18   3   1    2.88    1.21
 -18   3  -1    0.10    1.14
 -18   3  -1    2.37    1.28
 -18  -3   1    2.54    1.48
 -18  -3  -1    3.66    1.37
 -18  -3   2    4.41    1.81
 -18   3   2    1.12    1.00
 -18   3   2    0.04    1.05
 -18  -3   2    3.50    1.85
 -18   3  -2    0.53    1.32
 -18   3  -2    1.41    1.03
 -18  -3  -2    1.95    1.05
 -18  -3   3   15.28    3.02
 -18   3   3   17.90    2.95
 -18   3  -3   19.49    3.27
 -18  -3   3   20.46    3.36
 -18   3   3   14.48    2.82
 -18  -3  -3   17.63    2.91
 -18   3  -3   18.80    2.77
 -18   3   4   -0.09    1.33
 -18   3  -4    0.69    1.03
 -18   3  -4    2.29    1.00
 -18   3   5   -0.52    1.17
 -18   3  -5    0.46    0.93
 -18   3   6    7.18    2.22
 -18   3  -6    6.84    1.85
 -18   3  -7    0.97    0.94
 -18   3  -8    0.53    1.24
 -18   3  -9    6.98    1.82
 -18   3 -10    5.83    1.43
 -18   3 -11    1.73    1.43
 -18   4   0   32.64    4.15
 -18   4   0   38.01    4.06
 -18   4   1    1.31    0.93
 -18   4  -1    4.17    1.70
 -18   4   1    5.37    1.71
 -18   4  -1    4.43    1.43
 -18   4  -2   16.89    3.04
 -18   4   2   22.91    3.22
 -18   4   2   18.74    3.23
 -18   4  -2   17.26    2.65
 -18   4   3    4.31    1.66
 -18   4   3    3.54    1.61
 -18   4  -3    5.65    1.65
 -18   4  -3    3.33    1.22
 -18   4   4   12.36    2.65
 -18   4  -4   19.47    3.13
 -18   4  -4   12.86    2.30
 -18   4   5    7.31    2.33
 -18   4  -5   10.84    2.55
 -18   4  -5    8.16    2.12
 -18   4   6   23.24    3.81
 -18   4  -6   30.16    3.91
 -18   4  -6   20.63    2.91
 -18   4  -7    1.46    0.74
 -18   4  -8    1.31    1.14
 -18   4  -9   11.13    2.28
 -18   4 -10   36.20    3.86
 -18   4 -11    3.78    1.47
 -18   4 -12   27.58    3.58
 -18   5   0    0.50    0.94
 -18   5   0    2.04    1.25
 -18   5   1   -2.02    1.61
 -18   5   1    0.29    0.76
 -18   5  -1    1.06    0.94
 -18   5  -1    1.81    1.21
 -18   5   2    3.40    1.51
 -18   5  -2    4.40    1.83
 -18   5   2    1.94    1.42
 -18   5  -2    3.07    1.05
 -18   5  -3   21.04    3.19
 -18   5   3   22.09    3.27
 -18   5   3   20.69    3.55
 -18   5  -3   18.36    2.74
 -18   5  -4    4.54    1.67
 -18   5   4    5.42    2.07
 -18   5  -4    1.96    1.17
 -18   5   5    4.17    1.81
 -18   5  -5    5.55    1.81
 -18   5  -5    4.73    1.56
 -18   5   6    2.11    1.66
 -18   5  -6    0.50    1.02
 -18   5  -6    3.72    1.36
 -18   5  -7    5.28    1.82
 -18   5  -7    5.05    1.49
 -18   5  -8    2.42    1.76
 -18   5  -8    0.43    0.85
 -18   5  -9    3.71    1.37
 -18   5 -10    1.93    1.30
 -18   6   0    1.09    1.03
 -18   6   0    1.38    1.23
 -18   6  -1   12.85    2.76
 -18   6   1   13.72    2.45
 -18   6   1   13.57    2.85
 -18   6  -1   12.63    2.43
 -18   6   2    0.03    1.09
 -18   6   2   -0.33    0.97
 -18   6  -2   -1.72    1.15
 -18   6  -2   -0.65    0.80
 -18   6  -3   36.60    4.16
 -18   6   3   31.71    4.55
 -18   6   3   33.16    3.70
 -18   6  -3   32.67    3.50
 -18   6   4    3.31    1.88
 -18   6   4   -0.87    0.92
 -18   6  -4    0.41    0.94
 -18   6  -4   -0.89    0.94
 -18   6   5   -0.56    1.12
 -18   6  -5    0.17    1.18
 -18   6  -5   -1.78    1.13
 -18   6  -6    4.65    1.86
 -18   6  -6    1.37    1.17
 -18   7   0    1.84    1.17
 -18   7   0    2.47    1.18
 -18   7   1    1.94    1.23
 -18   7   1    2.32    1.60
 -18   7  -1    1.80    1.49
 -18   7  -1    0.95    1.05
 -18   7   2   -1.65    1.67
 -18   7   2   -0.10    0.95
 -18   7   3   11.70    2.79
 -18   7   3    7.61    1.73
 -18   7   4   -0.09    1.22
 -18   7   4    3.52    1.77
 -18   7   5    2.98    1.99
 -19   1   0   -1.38    1.13
 -19   1   1   -0.83    1.28
 -19   1  -1    3.93    2.01
 -19   1  -1    3.32    1.82
 -19   1  -2    5.66    2.16
 -19   1  -2    5.06    1.87
 -19   1  -3    2.10    1.10
 -19   2   0   -0.54    1.05
 -19   2   0    0.13    1.02
 -19   2  -1   64.51    6.12
 -19   2   1   55.94    5.67
 -19   2   1   55.48    5.23
 -19   2  -1   59.50    5.36
 -19   2   2   -0.80    1.24
 -19   2  -2   -0.48    1.22
 -19   2  -2    0.71    0.91
 -19   2  -3   12.84    3.14
 -19   2  -3   11.68    2.23
 -19   2  -4   12.24    3.14
 -19   2  -4    9.60    2.22
 -19   2  -5   83.14    6.09
 -19   3   0    3.39    1.83
 -19   3   0    2.42    1.45
 -19   3  -1    4.81    2.22
 -19   3   1    3.99    1.36
 -19   3   1    3.44    1.60
 -19   3  -1    1.74    1.41
 -19   3   2    3.10    1.59
 -19   3  -2    2.20    1.44
 -19   3  -2    0.08    0.79
 -19   3  -3    0.88    1.01
 -19   3  -3    0.43    1.09
 -19   3  -4    1.56    1.72
 -19   3  -4    1.07    0.77
 -19   3  -5    1.36    1.57
 -19   3  -5   -0.02    0.88
 -19   3  -6    0.86    1.28
 -19   3  -7    0.21    0.87
 -19   4   0   -1.58    1.25
 -19   4   0   -0.62    0.87
 -19   4   1   -1.11    1.32
 -19   4  -1    0.09    1.08
 -19   4   1    0.37    0.96
 -19   4  -1    2.26    1.42
 -19   4  -2   40.43    4.76
 -19   4  -2   39.36    4.08
 -19   4   2   42.81    4.51
 -19   4   3    2.44    1.41
 -19   4  -3    3.96    1.65
 -19   4  -3    1.85    0.87
 -19   4  -4    5.59    2.07
 -19   4  -4    2.32    1.03
 -19   4  -5    0.57    1.22
 -19   4  -5   -0.28    1.01
 -19   4  -6   16.51    3.33
 -19   4  -6   11.38    2.20
 -19   4  -7    1.91    1.29
 -19   4  -7   -0.86    1.10
 -19   4  -8   20.47    3.14
 -19   5   0    1.32    1.09
 -19   5   0    1.03    1.14
 -19   5   1    4.02    1.63
 -19   5   1    5.76    2.12
 -19   5  -1    4.60    1.94
 -19   5  -1    2.27    1.55
 -19   5   2    0.97    1.48
 -19   5  -2    4.16    1.63
 -19   5  -2    0.68    0.80
 -19   5   3    1.29    1.51
 -19   5  -3   -0.41    1.31
 -19   5  -3   -0.84    0.98
 -19   5  -4    0.32    1.00
 -19   5  -4    1.96    1.29
 -19   5  -5   11.38    2.56
 -19   5  -5   11.45    2.33
 -19   5  -6   -0.27    1.34
 -19   5  -6    1.37    0.95
 -19   5  -7    1.75    1.61
 -19   5  -7    0.78    0.86
 -19   6   0   -0.52    1.12
 -19   6   0    0.26    0.92
 -19   6   1    6.60    2.19
 -19   6   1    7.28    1.92
 -19   6  -1    4.36    1.95
 -19   6  -1   11.12    2.22
 -19   6   2    4.91    1.87
 -19   6  -2   -1.04    1.44
 -19   6  -2    3.66    1.28
 -19   6   3   -1.39    1.29
 -19   6  -3    2.40    1.22
 -19   6  -3    0.31    1.02
 -19   6  -4    2.06    1.13
   0   0   0    0.00    0.00


TITL VVM-83_autored in Pbca
REM Pbca (#61, found as Pcab in ba-c setting)
CELL 0.71073  15.141927  12.220564  20.443937  90.0000  90.0000  90.0000
ZERR   43.00   0.000683   0.000598   0.001002   0.0000   0.0000   0.0000
LATT  1
SYMM -x+1/2,-y, z+1/2
SYMM -x, y+1/2,-z+1/2
SYMM  x+1/2,-y+1/2,-z
SFAC C H N O S Zn
UNIT 43.00 43.00 43.00 43.00 43.00 43.00
REM  CrysAlisPro recorded range (K): Min=292.0; max=292.4; aver:292.2
TEMP 19
TREF
HKLF 4
END
_computing_structure_solution     'SHELXT 2014/5 (Sheldrick, 2014)'
;
_shelx_hkl_checksum   83082

