 
data_vvm_a
 
_audit_creation_method            'SHELXL-2018/3'
_shelx_SHELXL_version_number      '2018/3'
_chemical_name_systematic         ?
_chemical_name_common             ?
_chemical_melting_point           ?
_chemical_formula_moiety          ?
_chemical_formula_sum
 'C8 H5 N4 O3 S0.50 Zn0.50' 
_chemical_formula_weight          253.87

loop_
 _atom_type_symbol
 _atom_type_description
 _atom_type_scat_dispersion_real
 _atom_type_scat_dispersion_imag
 _atom_type_scat_source
 'C'  'C'   0.0033   0.0016
 'International Tables Vol C Tables 4.2.6.8 and 6.1.1.4'
 'N'  'N'   0.0061   0.0033
 'International Tables Vol C Tables 4.2.6.8 and 6.1.1.4'
 'O'  'O'   0.0106   0.0060
 'International Tables Vol C Tables 4.2.6.8 and 6.1.1.4'
 'Zn'  'Zn'   0.2839   1.4301
 'International Tables Vol C Tables 4.2.6.8 and 6.1.1.4'
 'S'  'S'   0.1246   0.1234
 'International Tables Vol C Tables 4.2.6.8 and 6.1.1.4'
 'H'  'H'   0.0000   0.0000
 'International Tables Vol C Tables 4.2.6.8 and 6.1.1.4'
 
_space_group_crystal_system       triclinic
_space_group_IT_number            2
_space_group_name_H-M_alt         'P -1'
_space_group_name_Hall            '-P 1'
 
_shelx_space_group_comment
;
The symmetry employed for this shelxl refinement is uniquely defined
by the following loop, which should always be used as a source of
symmetry information in preference to the above space-group names.
They are only intended as comments.
;
 
loop_
 _space_group_symop_operation_xyz
 'x, y, z'
 '-x, -y, -z'
 
_cell_length_a                    6.0826(2)
_cell_length_b                    9.8409(4)
_cell_length_c                    15.4326(7)
_cell_angle_alpha                 79.619(4)
_cell_angle_beta                  86.210(3)
_cell_angle_gamma                 78.351(4)
_cell_volume                      889.51(6)
_cell_formula_units_Z             4
_cell_measurement_temperature     150(2)
_cell_measurement_reflns_used     ?
_cell_measurement_theta_min       ?
_cell_measurement_theta_max       ?
 
_exptl_crystal_description        ?
_exptl_crystal_colour             ?
_exptl_crystal_density_meas       ?
_exptl_crystal_density_method     ?
_exptl_crystal_density_diffrn     1.896          
_exptl_crystal_F_000              512
_exptl_transmission_factor_min    ?
_exptl_transmission_factor_max    ?
_exptl_crystal_size_max           ?
_exptl_crystal_size_mid           ?
_exptl_crystal_size_min           ?
_exptl_absorpt_coefficient_mu     1.559
_shelx_estimated_absorpt_T_min    ?
_shelx_estimated_absorpt_T_max    ?
_exptl_absorpt_correction_type    ?
_exptl_absorpt_correction_T_min   ?
_exptl_absorpt_correction_T_max   ?
_exptl_absorpt_process_details    ?
_exptl_absorpt_special_details    ?
_diffrn_ambient_temperature       150(2)
_diffrn_radiation_wavelength      0.71073
_diffrn_radiation_type            MoK\a
_diffrn_source                    ?
_diffrn_measurement_device_type   ?
_diffrn_measurement_method        ?
_diffrn_detector_area_resol_mean  ?
_diffrn_reflns_number             7616
_diffrn_reflns_av_unetI/netI      0.0389
_diffrn_reflns_av_R_equivalents   0.0228
_diffrn_reflns_limit_h_min        -8
_diffrn_reflns_limit_h_max        8
_diffrn_reflns_limit_k_min        -13
_diffrn_reflns_limit_k_max        12
_diffrn_reflns_limit_l_min        -20
_diffrn_reflns_limit_l_max        19
_diffrn_reflns_theta_min          2.144
_diffrn_reflns_theta_max          29.011
_diffrn_reflns_theta_full         25.242
_diffrn_measured_fraction_theta_max   0.829
_diffrn_measured_fraction_theta_full  0.999
_diffrn_reflns_Laue_measured_fraction_max    0.829
_diffrn_reflns_Laue_measured_fraction_full   0.999
_diffrn_reflns_point_group_measured_fraction_max   0.829
_diffrn_reflns_point_group_measured_fraction_full  0.999
_reflns_number_total              3927
_reflns_number_gt                 3407
_reflns_threshold_expression      'I > 2\s(I)'
_reflns_Friedel_coverage          0.000
_reflns_Friedel_fraction_max      .
_reflns_Friedel_fraction_full     .
 
_reflns_special_details
;
 Reflections were merged by SHELXL according to the crystal
 class for the calculation of statistics and refinement.
 
 _reflns_Friedel_fraction is defined as the number of unique
 Friedel pairs measured divided by the number that would be
 possible theoretically, ignoring centric projections and
 systematic absences.
;
 
_computing_data_collection        ?
_computing_cell_refinement        ?
_computing_data_reduction         ?
_computing_structure_solution     'SHELXT 2018/2 (Sheldrick, 2018)'
_computing_structure_refinement 'SHELXL-2018/3 (Sheldrick, 2018)'
_computing_molecular_graphics     ?
_computing_publication_material   ?
_refine_special_details           ?
_refine_ls_structure_factor_coef  Fsqd
_refine_ls_matrix_type            full
_refine_ls_weighting_scheme       calc
_refine_ls_weighting_details
'w=1/[\s^2^(Fo^2^)+(0.0257P)^2^+0.3620P] where P=(Fo^2^+2Fc^2^)/3'
_atom_sites_solution_primary      ?
_atom_sites_solution_secondary    ?
_atom_sites_solution_hydrogens    mixed
_refine_ls_hydrogen_treatment     mixed
_refine_ls_extinction_method      none
_refine_ls_extinction_coef        .
_refine_ls_number_reflns          3927
_refine_ls_number_parameters      294
_refine_ls_number_restraints      0
_refine_ls_R_factor_all           0.0376
_refine_ls_R_factor_gt            0.0295
_refine_ls_wR_factor_ref          0.0678
_refine_ls_wR_factor_gt           0.0643
_refine_ls_goodness_of_fit_ref    1.046
_refine_ls_restrained_S_all       1.046
_refine_ls_shift/su_max           0.001
_refine_ls_shift/su_mean          0.000
 
loop_
 _atom_site_label
 _atom_site_type_symbol
 _atom_site_fract_x
 _atom_site_fract_y
 _atom_site_fract_z
 _atom_site_U_iso_or_equiv
 _atom_site_adp_type
 _atom_site_occupancy
 _atom_site_site_symmetry_order  
 _atom_site_calc_flag
 _atom_site_refinement_flags_posn
 _atom_site_refinement_flags_adp
 _atom_site_refinement_flags_occupancy
 _atom_site_disorder_assembly
 _atom_site_disorder_group
Zn1 Zn 0.20083(4) 0.96117(2) 0.36730(2) 0.01766(8) Uani 1 1 d . . . . .
S2 S 0.11427(9) 0.49187(5) 0.36185(3) 0.01655(12) Uani 1 1 d . . . . .
O2 O 0.5599(3) 0.38921(15) 0.21205(10) 0.0228(3) Uani 1 1 d . . . . .
O3 O 0.3548(3) 0.89795(18) 0.48081(11) 0.0266(4) Uani 1 1 d . . . . .
H3A H 0.278(3) 0.913(3) 0.5155(15) 0.040 Uiso 1 1 calc R U . . .
H1 H 0.485(5) 0.875(3) 0.4791(18) 0.040 Uiso 1 1 d . U . . .
O4 O 0.1067(2) 0.78559(15) 0.35729(10) 0.0218(3) Uani 1 1 d . . . . .
O5 O -0.0485(3) 0.12329(14) 0.37575(9) 0.0209(3) Uani 1 1 d . . . . .
O6 O 0.2707(3) 0.19707(16) 0.34427(12) 0.0339(4) Uani 1 1 d . . . . .
O7 O -0.2111(2) 0.83663(15) 0.43581(10) 0.0216(3) Uani 1 1 d . . . . .
N1 N 0.6933(3) 0.80441(17) 0.19642(11) 0.0161(4) Uani 1 1 d . . . . .
N2 N 1.3980(3) 0.31501(19) 0.02999(12) 0.0231(4) Uani 1 1 d . . . . .
N3 N 0.7747(3) 0.92509(17) 0.19440(11) 0.0201(4) Uani 1 1 d . . . . .
N4 N 0.4483(3) 0.93147(17) 0.27276(11) 0.0172(4) Uani 1 1 d . . . . .
N5 N 0.5473(3) 0.52878(18) 0.21488(11) 0.0197(4) Uani 1 1 d . . . . .
N6 N 0.7577(3) 0.33051(18) 0.17308(11) 0.0208(4) Uani 1 1 d . . . . .
N7 N 1.3246(3) 0.0944(2) 0.06330(13) 0.0295(5) Uani 1 1 d . . . . .
N9 N 1.2061(3) 0.31325(18) 0.08141(11) 0.0193(4) Uani 1 1 d . . . . .
C1 C 1.0809(3) 0.4378(2) 0.10683(13) 0.0175(4) Uani 1 1 d . . . . .
C2 C 1.4600(4) 0.1820(2) 0.02193(14) 0.0254(5) Uani 1 1 d . . . . .
H2 H 1.591601 0.148981 -0.010824 0.030 Uiso 1 1 calc R U . . .
C3 C 1.1481(4) 0.5632(2) 0.08985(13) 0.0189(4) Uani 1 1 d . . . . .
H3 H 1.285254 0.569481 0.057606 0.023 Uiso 1 1 calc R U . . .
C4 C 1.0197(3) 0.6869(2) 0.11878(13) 0.0184(4) Uani 1 1 d . . . . .
H4 H 1.076941 0.771567 0.106829 0.022 Uiso 1 1 calc R U . . .
C5 C 0.8193(3) 0.6868(2) 0.16260(12) 0.0159(4) Uani 1 1 d . . . . .
C6 C 0.7379(3) 0.5579(2) 0.17787(12) 0.0157(4) Uani 1 1 d . . . . .
C7 C 0.8683(3) 0.4343(2) 0.15156(13) 0.0161(4) Uani 1 1 d . . . . .
C8 C 0.6224(4) 0.9975(2) 0.24114(14) 0.0206(5) Uani 1 1 d . . . . .
H8 H 0.631853 1.088077 0.252146 0.025 Uiso 1 1 calc R U . . .
C9 C 0.4986(3) 0.8111(2) 0.24335(13) 0.0176(4) Uani 1 1 d . . . . .
H9 H 0.410673 0.739853 0.253727 0.021 Uiso 1 1 calc R U . . .
C10 C -0.0740(3) 0.7558(2) 0.39711(13) 0.0149(4) Uani 1 1 d . . . . .
C11 C 1.1684(4) 0.1807(2) 0.09987(15) 0.0270(5) Uani 1 1 d . . . . .
H11 H 1.045009 0.153329 0.134799 0.032 Uiso 1 1 calc R U . . .
C12 C -0.1079(3) 0.6119(2) 0.39405(12) 0.0144(4) Uani 1 1 d . . . . .
C13 C -0.0438(4) 0.3636(2) 0.37763(13) 0.0166(4) Uani 1 1 d . . . . .
C14 C -0.2596(4) 0.4122(2) 0.40490(13) 0.0175(4) Uani 1 1 d . . . . .
H14 H -0.371910 0.356240 0.416015 0.021 Uiso 1 1 calc R U . . .
C15 C -0.2960(3) 0.5546(2) 0.41457(13) 0.0174(4) Uani 1 1 d . . . . .
H15 H -0.435640 0.605403 0.433270 0.021 Uiso 1 1 calc R U . . .
C16 C 0.0681(4) 0.2205(2) 0.36460(13) 0.0208(5) Uani 1 1 d . . . . .
 
loop_
 _atom_site_aniso_label
 _atom_site_aniso_U_11
 _atom_site_aniso_U_22
 _atom_site_aniso_U_33
 _atom_site_aniso_U_23
 _atom_site_aniso_U_13
 _atom_site_aniso_U_12
Zn1 0.01770(14) 0.01233(13) 0.02344(14) -0.00667(10) 0.00646(10) -0.00310(10)
S2 0.0146(2) 0.0127(2) 0.0224(3) -0.0050(2) 0.0035(2) -0.0024(2)
O2 0.0201(8) 0.0195(8) 0.0306(8) -0.0090(6) 0.0066(7) -0.0061(6)
O3 0.0184(8) 0.0355(10) 0.0258(8) -0.0075(7) 0.0058(7) -0.0048(8)
O4 0.0187(8) 0.0176(8) 0.0317(8) -0.0102(6) 0.0091(6) -0.0075(6)
O5 0.0242(8) 0.0114(7) 0.0275(8) -0.0059(6) 0.0014(6) -0.0032(6)
O6 0.0288(9) 0.0182(8) 0.0528(11) -0.0114(8) 0.0211(8) -0.0026(7)
O7 0.0194(8) 0.0153(7) 0.0307(8) -0.0094(6) 0.0068(6) -0.0026(6)
N1 0.0171(9) 0.0137(8) 0.0173(8) -0.0034(7) 0.0026(7) -0.0029(7)
N2 0.0188(9) 0.0266(10) 0.0237(9) -0.0096(8) 0.0054(8) -0.0010(8)
N3 0.0212(10) 0.0158(9) 0.0242(9) -0.0048(7) 0.0056(8) -0.0066(7)
N4 0.0189(9) 0.0135(8) 0.0184(8) -0.0023(7) 0.0029(7) -0.0029(7)
N5 0.0181(9) 0.0173(9) 0.0244(9) -0.0056(7) 0.0028(7) -0.0046(7)
N6 0.0195(9) 0.0202(9) 0.0234(9) -0.0078(8) 0.0037(8) -0.0032(8)
N7 0.0319(11) 0.0231(10) 0.0297(11) -0.0061(8) 0.0072(9) 0.0025(9)
N9 0.0180(9) 0.0202(9) 0.0183(9) -0.0059(7) 0.0038(7) 0.0002(7)
C1 0.0172(10) 0.0200(11) 0.0148(10) -0.0064(8) -0.0001(8) 0.0007(8)
C2 0.0236(12) 0.0266(12) 0.0237(11) -0.0079(10) 0.0030(9) 0.0027(10)
C3 0.0154(10) 0.0227(11) 0.0189(10) -0.0057(9) 0.0027(8) -0.0037(9)
C4 0.0176(10) 0.0195(11) 0.0185(10) -0.0029(8) 0.0015(8) -0.0055(9)
C5 0.0162(10) 0.0167(10) 0.0146(9) -0.0038(8) -0.0002(8) -0.0018(8)
C6 0.0162(10) 0.0177(10) 0.0129(9) -0.0039(8) 0.0010(8) -0.0017(8)
C7 0.0181(10) 0.0154(10) 0.0150(9) -0.0043(8) -0.0006(8) -0.0022(8)
C8 0.0213(11) 0.0159(10) 0.0245(11) -0.0030(9) 0.0033(9) -0.0054(9)
C9 0.0173(10) 0.0163(10) 0.0196(10) -0.0043(8) 0.0033(8) -0.0041(8)
C10 0.0152(10) 0.0122(9) 0.0173(10) -0.0035(8) -0.0016(8) -0.0015(8)
C11 0.0289(13) 0.0201(11) 0.0289(12) -0.0044(10) 0.0088(10) -0.0005(10)
C12 0.0160(10) 0.0129(9) 0.0139(9) -0.0031(8) 0.0016(8) -0.0017(8)
C13 0.0204(11) 0.0122(10) 0.0174(10) -0.0030(8) 0.0019(8) -0.0042(8)
C14 0.0181(10) 0.0149(10) 0.0195(10) -0.0019(8) 0.0012(8) -0.0046(8)
C15 0.0166(10) 0.0147(10) 0.0195(10) -0.0027(8) 0.0020(8) -0.0007(8)
C16 0.0266(12) 0.0163(10) 0.0183(10) -0.0033(8) 0.0049(9) -0.0027(9)
 
_geom_special_details
;
 All esds (except the esd in the dihedral angle between two l.s. planes)
 are estimated using the full covariance matrix.  The cell esds are taken
 into account individually in the estimation of esds in distances, angles
 and torsion angles; correlations between esds in cell parameters are only
 used when they are defined by crystal symmetry.  An approximate (isotropic)
 treatment of cell esds is used for estimating esds involving l.s. planes.
;
 
loop_
 _geom_bond_atom_site_label_1
 _geom_bond_atom_site_label_2
 _geom_bond_distance
 _geom_bond_site_symmetry_2
 _geom_bond_publ_flag
Zn1 O4 1.9606(14) . ?
Zn1 O3 1.9801(17) . ?
Zn1 O5 1.9837(14) 1_565 ?
Zn1 N4 2.0408(17) . ?
Zn1 O6 2.4035(16) 1_565 ?
Zn1 C16 2.510(2) 1_565 ?
S2 C13 1.710(2) . ?
S2 C12 1.716(2) . ?
O2 N5 1.369(2) . ?
O2 N6 1.375(2) . ?
O4 C10 1.284(2) . ?
O5 C16 1.283(3) . ?
O6 C16 1.237(3) . ?
O7 C10 1.234(2) . ?
N1 C9 1.343(3) . ?
N1 N3 1.371(2) . ?
N1 C5 1.416(3) . ?
N2 C2 1.313(3) . ?
N2 N9 1.369(2) . ?
N3 C8 1.310(3) . ?
N4 C9 1.316(3) . ?
N4 C8 1.370(3) . ?
N5 C6 1.319(3) . ?
N6 C7 1.316(3) . ?
N7 C11 1.311(3) . ?
N7 C2 1.360(3) . ?
N9 C11 1.346(3) . ?
N9 C1 1.411(3) . ?
C1 C3 1.353(3) . ?
C1 C7 1.429(3) . ?
C3 C4 1.435(3) . ?
C4 C5 1.354(3) . ?
C5 C6 1.429(3) . ?
C6 C7 1.421(3) . ?
C10 C12 1.481(3) . ?
C12 C15 1.370(3) . ?
C13 C14 1.369(3) . ?
C13 C16 1.477(3) . ?
C14 C15 1.407(3) . ?
 
loop_
 _geom_angle_atom_site_label_1
 _geom_angle_atom_site_label_2
 _geom_angle_atom_site_label_3
 _geom_angle
 _geom_angle_site_symmetry_1
 _geom_angle_site_symmetry_3
 _geom_angle_publ_flag
O4 Zn1 O3 98.74(7) . . ?
O4 Zn1 O5 114.91(6) . 1_565 ?
O3 Zn1 O5 110.42(7) . 1_565 ?
O4 Zn1 N4 91.72(6) . . ?
O3 Zn1 N4 105.12(7) . . ?
O5 Zn1 N4 130.56(6) 1_565 . ?
O4 Zn1 O6 165.42(6) . 1_565 ?
O3 Zn1 O6 95.83(7) . 1_565 ?
O5 Zn1 O6 59.35(6) 1_565 1_565 ?
N4 Zn1 O6 84.24(6) . 1_565 ?
O4 Zn1 C16 144.42(7) . 1_565 ?
O3 Zn1 C16 103.01(7) . 1_565 ?
O5 Zn1 C16 30.40(7) 1_565 1_565 ?
N4 Zn1 C16 109.05(7) . 1_565 ?
O6 Zn1 C16 29.06(6) 1_565 1_565 ?
C13 S2 C12 91.38(10) . . ?
N5 O2 N6 112.37(14) . . ?
C10 O4 Zn1 120.13(13) . . ?
C16 O5 Zn1 98.12(13) . 1_545 ?
C16 O6 Zn1 80.26(12) . 1_545 ?
C9 N1 N3 109.94(16) . . ?
C9 N1 C5 127.35(17) . . ?
N3 N1 C5 122.22(16) . . ?
C2 N2 N9 101.76(17) . . ?
C8 N3 N1 102.56(16) . . ?
C9 N4 C8 103.74(17) . . ?
C9 N4 Zn1 120.21(14) . . ?
C8 N4 Zn1 134.36(14) . . ?
C6 N5 O2 104.88(16) . . ?
C7 N6 O2 104.70(16) . . ?
C11 N7 C2 102.12(19) . . ?
C11 N9 N2 109.09(17) . . ?
C11 N9 C1 129.87(18) . . ?
N2 N9 C1 121.04(17) . . ?
C3 C1 N9 123.83(19) . . ?
C3 C1 C7 117.06(19) . . ?
N9 C1 C7 119.10(18) . . ?
N2 C2 N7 116.0(2) . . ?
C1 C3 C4 122.40(19) . . ?
C5 C4 C3 122.02(19) . . ?
C4 C5 N1 123.73(19) . . ?
C4 C5 C6 117.09(18) . . ?
N1 C5 C6 119.13(17) . . ?
N5 C6 C7 108.92(18) . . ?
N5 C6 C5 130.27(19) . . ?
C7 C6 C5 120.81(18) . . ?
N6 C7 C6 109.13(18) . . ?
N6 C7 C1 130.33(19) . . ?
C6 C7 C1 120.51(18) . . ?
N3 C8 N4 114.22(19) . . ?
N4 C9 N1 109.54(18) . . ?
O7 C10 O4 124.71(18) . . ?
O7 C10 C12 121.05(18) . . ?
O4 C10 C12 114.24(17) . . ?
N7 C11 N9 111.1(2) . . ?
C15 C12 C10 129.60(18) . . ?
C15 C12 S2 111.72(15) . . ?
C10 C12 S2 118.68(15) . . ?
C14 C13 C16 130.00(19) . . ?
C14 C13 S2 112.05(15) . . ?
C16 C13 S2 117.89(16) . . ?
C13 C14 C15 112.31(19) . . ?
C12 C15 C14 112.53(18) . . ?
O6 C16 O5 121.81(19) . . ?
O6 C16 C13 119.56(19) . . ?
O5 C16 C13 118.62(19) . . ?
O6 C16 Zn1 70.68(12) . 1_545 ?
O5 C16 Zn1 51.47(10) . 1_545 ?
C13 C16 Zn1 167.97(15) . 1_545 ?
 
_refine_diff_density_max    0.379
_refine_diff_density_min   -0.311
_refine_diff_density_rms    0.068

_shelx_res_file
;
TITL vvm_a.res in P-1
    vvm_a.res
    created by SHELXL-2018/3 at 12:16:20 on 30-May-2022
REM Old TITL C H N O Zn S_auto in P-1
REM SHELXT solution in P-1: R1 0.236, Rweak 0.018, Alpha 0.043
REM <I/s>   0.000 for    0 systematic absences,  Orientation as input
REM Formula found by SHELXT:  C22 N5 O4 Br
CELL  0.71073   6.0826   9.8409  15.4326   79.619   86.210   78.351
ZERR    4.000   0.0002   0.0004   0.0007    0.004    0.003    0.004
LATT  1
SFAC C N O Zn S H
UNIT 32 16 12 2 2 20
ACTA
TEMP -123
L.S. 10
BOND
LIST 4
FMAP 2
PLAN 20
WGHT    0.025700    0.362000
FVAR       0.32179
ZN1   4    0.200835    0.961166    0.367304    11.00000    0.01770    0.01233 =
         0.02344   -0.00667    0.00646   -0.00310
S2    5    0.114271    0.491872    0.361849    11.00000    0.01465    0.01270 =
         0.02238   -0.00503    0.00349   -0.00236
O2    3    0.559920    0.389205    0.212053    11.00000    0.02008    0.01945 =
         0.03061   -0.00896    0.00656   -0.00610
O3    3    0.354758    0.897951    0.480807    11.00000    0.01835    0.03546 =
         0.02583   -0.00750    0.00579   -0.00481
AFIX 148
H3A   6    0.278277    0.912635    0.515491    11.00000   -1.50000
AFIX   0
H1    6    0.485050    0.875445    0.479150    11.00000   -1.50000
O4    3    0.106748    0.785593    0.357293    11.00000    0.01868    0.01759 =
         0.03167   -0.01019    0.00913   -0.00749
O5    3   -0.048548    0.123293    0.375754    11.00000    0.02422    0.01142 =
         0.02752   -0.00593    0.00144   -0.00317
O6    3    0.270666    0.197067    0.344274    11.00000    0.02881    0.01824 =
         0.05276   -0.01137    0.02110   -0.00261
O7    3   -0.211071    0.836633    0.435808    11.00000    0.01943    0.01528 =
         0.03066   -0.00941    0.00684   -0.00256
N1    2    0.693325    0.804415    0.196419    11.00000    0.01706    0.01367 =
         0.01730   -0.00337    0.00264   -0.00294
N2    2    1.398032    0.315006    0.029989    11.00000    0.01876    0.02659 =
         0.02371   -0.00960    0.00544   -0.00098
N3    2    0.774708    0.925092    0.194398    11.00000    0.02115    0.01584 =
         0.02419   -0.00476    0.00561   -0.00661
N4    2    0.448271    0.931473    0.272762    11.00000    0.01889    0.01346 =
         0.01839   -0.00228    0.00295   -0.00285
N5    2    0.547295    0.528784    0.214880    11.00000    0.01814    0.01730 =
         0.02440   -0.00558    0.00276   -0.00464
N6    2    0.757701    0.330507    0.173084    11.00000    0.01946    0.02022 =
         0.02339   -0.00776    0.00365   -0.00324
N7    2    1.324562    0.094424    0.063296    11.00000    0.03194    0.02313 =
         0.02965   -0.00606    0.00720    0.00248
N9    2    1.206050    0.313248    0.081412    11.00000    0.01800    0.02022 =
         0.01828   -0.00589    0.00383    0.00015
C1    1    1.080940    0.437753    0.106826    11.00000    0.01724    0.02001 =
         0.01482   -0.00643   -0.00012    0.00068
C2    1    1.460020    0.182018    0.021934    11.00000    0.02360    0.02656 =
         0.02370   -0.00790    0.00305    0.00269
AFIX  43
H2    6    1.591601    0.148981   -0.010824    11.00000   -1.20000
AFIX   0
C3    1    1.148088    0.563164    0.089851    11.00000    0.01540    0.02271 =
         0.01892   -0.00570    0.00266   -0.00369
AFIX  43
H3    6    1.285254    0.569481    0.057606    11.00000   -1.20000
AFIX   0
C4    1    1.019666    0.686926    0.118780    11.00000    0.01758    0.01947 =
         0.01850   -0.00288    0.00150   -0.00548
AFIX  43
H4    6    1.076941    0.771567    0.106829    11.00000   -1.20000
AFIX   0
C5    1    0.819282    0.686785    0.162605    11.00000    0.01624    0.01670 =
         0.01460   -0.00382   -0.00024   -0.00183
C6    1    0.737888    0.557867    0.177874    11.00000    0.01622    0.01774 =
         0.01286   -0.00392    0.00099   -0.00170
C7    1    0.868266    0.434316    0.151556    11.00000    0.01814    0.01537 =
         0.01499   -0.00433   -0.00060   -0.00215
C8    1    0.622389    0.997544    0.241136    11.00000    0.02130    0.01589 =
         0.02455   -0.00305    0.00325   -0.00538
AFIX  43
H8    6    0.631853    1.088077    0.252146    11.00000   -1.20000
AFIX   0
C9    1    0.498577    0.811085    0.243355    11.00000    0.01726    0.01632 =
         0.01955   -0.00431    0.00325   -0.00408
AFIX  43
H9    6    0.410673    0.739853    0.253727    11.00000   -1.20000
AFIX   0
C10   1   -0.073983    0.755770    0.397108    11.00000    0.01523    0.01220 =
         0.01732   -0.00352   -0.00159   -0.00149
C11   1    1.168432    0.180698    0.099872    11.00000    0.02890    0.02014 =
         0.02888   -0.00444    0.00879   -0.00050
AFIX  43
H11   6    1.045009    0.153329    0.134799    11.00000   -1.20000
AFIX   0
C12   1   -0.107867    0.611902    0.394046    11.00000    0.01597    0.01294 =
         0.01391   -0.00309    0.00164   -0.00166
C13   1   -0.043764    0.363593    0.377626    11.00000    0.02043    0.01218 =
         0.01736   -0.00302    0.00190   -0.00421
C14   1   -0.259574    0.412238    0.404895    11.00000    0.01807    0.01488 =
         0.01950   -0.00190    0.00116   -0.00457
AFIX  43
H14   6   -0.371910    0.356240    0.416015    11.00000   -1.20000
AFIX   0
C15   1   -0.296005    0.554630    0.414571    11.00000    0.01658    0.01469 =
         0.01950   -0.00272    0.00202   -0.00075
AFIX  43
H15   6   -0.435640    0.605403    0.433270    11.00000   -1.20000
AFIX   0
C16   1    0.068080    0.220511    0.364599    11.00000    0.02657    0.01634 =
         0.01831   -0.00332    0.00489   -0.00267
HKLF 4




REM  vvm_a.res in P-1
REM wR2 = 0.0678, GooF = S = 1.046, Restrained GooF = 1.046 for all data
REM R1 = 0.0295 for 3407 Fo > 4sig(Fo) and 0.0376 for all 3927 data
REM 294 parameters refined using 0 restraints

END

WGHT      0.0256      0.3659

REM Highest difference peak  0.379,  deepest hole -0.311,  1-sigma level  0.068
Q1    1   0.1873  0.8438  0.3886  11.00000  0.05    0.38
Q2    1   0.8090  0.5012  0.1638  11.00000  0.05    0.37
Q3    1   0.0373  0.4129  0.3692  11.00000  0.05    0.37
Q4    1  -0.0882  0.6800  0.3984  11.00000  0.05    0.36
Q5    1   0.7610  0.7400  0.1872  11.00000  0.05    0.36
Q6    1   0.9345  0.6818  0.1614  11.00000  0.05    0.34
Q7    1   0.7749  0.6237  0.1747  11.00000  0.05    0.32
Q8    1   0.2141  1.0679  0.3543  11.00000  0.05    0.32
Q9    1  -0.2027  0.5989  0.4053  11.00000  0.05    0.32
Q10   1   0.2160  0.2198  0.2972  11.00000  0.05    0.30
Q11   1   0.1202  1.0439  0.4029  11.00000  0.05    0.29
Q12   1  -0.1261  0.3886  0.4114  11.00000  0.05    0.29
Q13   1   1.2471  0.1302  0.0770  11.00000  0.05    0.28
Q14   1   0.0204  0.5788  0.3576  11.00000  0.05    0.28
Q15   1   0.5011  0.9790  0.2563  11.00000  0.05    0.28
Q16   1  -0.0144  0.3013  0.3719  11.00000  0.05    0.28
Q17   1   0.6221  0.5592  0.1742  11.00000  0.05    0.27
Q18   1  -0.3017  0.4921  0.3919  11.00000  0.05    0.27
Q19   1   0.9585  0.4398  0.1237  11.00000  0.05    0.27
Q20   1  -0.1330  0.7972  0.4279  11.00000  0.05    0.27
;
_shelx_res_checksum   95738

_shelx_hkl_file
;
   0   0  -2   84.68    1.91
   0   0   2   85.90    2.11
   0   0  -2   83.33    2.11
   0   0   2   85.30    1.89
   0   0  -3  192.53    4.35
   0   0  -3  193.33    4.00
   0   0   3  189.57    3.98
   0   0   3  192.65    4.35
   0   0  -4 1939.89   35.28
   0   0  -4 1920.78   35.80
   0   0   4 1968.05   35.24
   0   0   4 1936.34   35.83
   0   0  -5 1061.44   20.41
   0   0  -5 1039.81   19.77
   0   0   5 1042.12   19.75
   0   0   5 1105.03   20.48
   0   0  -6    1.54    0.56
   0   0   6    1.79    0.77
   0   0   6    1.72    0.49
   0   0  -6    2.12    0.49
   0   0   7 1067.83   18.24
   0   0   7 1074.74   19.44
   0   0  -7 1054.83   19.29
   0   0  -8  398.81    8.77
   0   0   8  410.03    8.73
   0   0   8  398.14    9.79
   0   0  -8  412.29    9.71
   0   0  -9   61.02    2.95
   0   0   9   58.77    3.04
   0   0   9   61.09    2.32
   0   0 -10   15.60    1.57
   0   0  10   18.06    1.27
   0   0  10   14.99    1.69
   0   0  11  350.74    9.86
   0   0 -11  362.77    9.60
   0   0  11  365.71    8.54
   0   0 -11  383.34   10.01
   0   0 -12   65.98    2.91
   0   0  12   72.12    3.83
   0   0 -12   72.54    3.60
   0   0  12   71.53    2.90
   0   0  13    2.59    1.17
   0   0 -13    1.58    0.66
   0   0  13    2.68    0.72
   0   0 -13    3.10    1.14
   0   0 -14   34.00    2.67
   0   0  14   33.81    2.05
   0   0 -14   30.61    2.13
   0   0  14   33.70    2.88
   0   0  15  127.36    4.45
   0   0 -15  131.52    5.61
   0   0 -15  115.14    4.55
   0   0  15  120.35    5.74
   0   0  16    6.71    1.02
   0   0  16    8.27    1.80
   0   0 -16    7.99    1.68
   0   0  17    1.23    0.64
   0   0  17   -0.16    1.03
   0   0 -17    1.61    1.13
   0   0  18   39.23    3.60
   0   0 -18   40.54    3.05
   0   0 -18   45.99    3.64
   0   0 -19   27.07    2.64
   0   0 -19   33.60    3.17
   0   1 -20    4.22    1.46
   0   1 -19    3.62    1.38
   0   1 -19    6.70    1.81
   0   1 -18    6.42    1.43
   0   1 -18   10.18    1.86
   0   1 -17    2.90    1.08
   0   1 -17    3.63    1.37
   0  -1  16   74.22    4.53
   0   1 -16   79.84    4.27
   0   1 -16   73.66    4.29
   0  -1  16   74.53    3.60
   0  -1  15    0.12    0.55
   0   1 -15    0.53    0.54
   0  -1  15   -0.47    0.97
   0   1 -15    1.04    0.87
   0  -1  14   30.95    2.75
   0  -1  14   30.56    2.16
   0   1 -14   29.80    2.49
   0   1 -14   29.81    1.95
   0  -1  13   -0.17    0.76
   0   1 -13    0.58    0.46
   0  -1  13    1.06    0.72
   0  -1  12   41.12    2.82
   0   1 -12   37.48    2.18
   0   1 -12   35.50    1.99
   0  -1  12   42.05    2.31
   0   1 -11   70.91    3.53
   0   1 -11   67.07    2.94
   0   1 -11   66.27    2.69
   0  -1  11   72.01    3.00
   0  -1  11   65.21    3.53
   0   1 -10   34.07    1.77
   0   1 -10   36.69    2.05
   0  -1  10   34.19    2.44
   0   1 -10   39.83    2.49
   0  -1  10   40.73    2.10
   0   1  -9   14.69    1.25
   0  -1   9   13.07    1.47
   0   1  -9   13.19    1.03
   0   1  -9   14.54    1.46
   0  -1   9   14.57    1.24
   0   1  -8  105.29    3.80
   0  -1   8  100.65    3.33
   0   1  -8   96.44    2.98
   0   1  -8   99.90    3.35
   0  -1   8   96.53    3.80
   0  -1   7   47.93    2.03
   0   1  -7   42.91    1.68
   0  -1   7   46.89    2.32
   0   1  -7   47.18    2.26
   0  -1   6   88.43    3.25
   0   1  -6   92.79    3.17
   0   1  -6   85.01    2.80
   0   1  -6   91.43    2.55
   0  -1   6   95.81    2.91
   0   1  -5   25.90    1.27
   0   1  -5   25.50    1.48
   0  -1   5   25.95    1.56
   0  -1   5   27.34    1.40
   0   1  -5   25.21    1.07
   0  -1   4  728.46   14.01
   0   1  -4  705.79   14.14
   0  -1   4  721.82   14.20
   0   1  -4  715.28   13.48
   0   1  -4  729.98   13.97
   0   1  -3  530.27   10.55
   0  -1   3  518.31    9.99
   0  -1   3  554.04   10.58
   0  -1   3  540.18   10.50
   0   1  -3  531.19   10.01
   0   1  -3  552.14   10.48
   0   1  -2   65.17    1.80
   0  -1   2   64.40    1.84
   0   1  -2   60.33    1.77
   0  -1   2   62.98    1.47
   0  -1   2   67.25    1.81
   0   1  -2   57.77    1.46
   0  -1   1  480.21    9.20
   0   1  -1  483.53    9.21
   0  -1   0    4.77    0.38
   0   1   0    5.82    0.41
   0  -1  -1  115.55    2.43
   0   1   2   64.58    1.82
   0  -1  -2   66.28    1.76
   0  -1  -2   66.00    1.84
   0   1   2   64.49    1.77
   0   1   3   74.53    2.19
   0  -1  -3   72.42    2.16
   0   1   3   73.17    2.15
   0  -1  -3   75.50    2.24
   0  -1  -4   89.32    2.68
   0   1   4   94.09    2.74
   0  -1  -4   85.72    2.73
   0  -1  -5    7.09    0.96
   0  -1  -5    8.04    0.94
   0   1   5    8.48    0.95
   0   1   5    6.49    0.57
   0  -1  -6   10.28    1.05
   0   1   6   10.63    0.72
   0   1   6    9.87    1.12
   0  -1  -6   10.23    1.00
   0   1   7  179.30    4.29
   0  -1  -7  181.95    5.11
   0   1   7  180.73    5.20
   0  -1  -7  183.98    5.23
   0  -1  -8  109.66    3.89
   0  -1  -8  109.84    3.96
   0   1   8  116.09    4.04
   0   1   8  109.02    3.06
   0   1   9   24.78    1.28
   0  -1  -9   24.97    1.85
   0   1   9   21.26    1.80
   0  -1  -9   23.09    1.75
   0  -1 -10   98.36    3.93
   0  -1 -10  107.97    4.21
   0   1  10   89.58    2.95
   0   1  10   93.69    4.05
   0   1  11   70.92    2.58
   0  -1 -11   68.96    3.41
   0   1  11   65.46    3.58
   0  -1 -11   71.66    3.54
   0   1  12   37.36    2.81
   0  -1 -12   39.58    2.65
   0   1  12   43.99    2.03
   0   1  13    1.66    0.60
   0   1  13    0.24    0.87
   0  -1 -13    1.42    0.98
   0  -1 -14    2.98    1.18
   0   1  14    2.63    1.08
   0   1  14    0.97    0.45
   0   1  15   16.65    2.15
   0   1  15   20.31    1.55
   0  -1 -15   20.65    2.26
   0   1  16   41.27    2.28
   0  -1 -16   46.73    3.36
   0   1  16   38.35    3.34
   0   1  17    0.32    1.02
   0  -1 -17    0.97    0.93
   0   1  18    6.14    1.60
   0  -1 -18    5.77    1.59
   0  -1 -19    3.90    1.53
   0   2 -19   49.60    3.91
   0   2 -19   51.43    3.97
   0   2 -18    0.60    0.98
   0   2 -18    1.21    0.93
   0   2 -17    2.04    1.07
   0   2 -17    3.10    1.11
   0   2 -16   17.56    2.11
   0   2 -16   15.47    2.02
   0   2 -15   43.93    3.21
   0   2 -14   35.11    1.98
   0  -2  14   36.98    2.47
   0   2 -14   34.18    2.40
   0   2 -13   28.33    2.13
   0   2 -13   22.82    1.55
   0  -2  13   25.86    2.03
   0  -2  12  111.63    4.28
   0   2 -12  107.12    3.57
   0  -2  12  107.24    4.76
   0   2 -12  112.59    4.40
   0   2 -11   29.78    2.00
   0   2 -11   27.46    2.21
   0  -2  11   26.32    2.20
   0  -2  11   28.33    1.96
   0   2 -11   26.76    1.54
   0   2 -10    0.73    0.60
   0  -2  10   -1.08    0.76
   0   2 -10    1.18    0.44
   0   2 -10    0.31    0.49
   0  -2  10    0.52    0.51
   0  -2   9   85.61    3.69
   0   2  -9   85.20    2.73
   0   2  -9   87.96    3.41
   0   2  -9   82.70    3.59
   0  -2   9   87.03    3.37
   0  -2   8  199.94    5.94
   0   2  -8  201.67    5.60
   0  -2   8  199.82    5.58
   0   2  -8  194.05    4.73
   0   2  -8  195.03    5.84
   0   2  -7  215.15    5.06
   0   2  -7  225.96    5.95
   0  -2   7  241.25    6.33
   0   2  -7  225.39    6.16
   0  -2   7  229.51    5.98
   0  -2   6   34.30    1.89
   0  -2   6   36.05    1.86
   0   2  -6   35.96    1.83
   0   2  -6   31.71    1.31
   0   2  -6   35.24    1.86
   0  -2   5   29.23    1.63
   0  -2   5   29.09    1.64
   0   2  -5   27.26    1.53
   0   2  -5   27.90    1.13
   0   2  -5   27.83    1.56
   0  -2   5   35.50    1.23
   0   2  -4    5.72    0.84
   0  -2   4    6.30    0.53
   0   2  -4    5.45    0.46
   0  -2   4    7.42    0.88
   0   2  -4    6.55    0.77
   0   2  -3   97.97    2.79
   0   2  -3   97.47    2.34
   0  -2   3   93.96    2.36
   0  -2   3  103.14    3.02
   0   2  -3  101.93    2.95
   0  -2   2    4.91    0.76
   0   2  -2    5.47    0.50
   0   2  -2    6.72    0.63
   0  -2   2    6.40    0.52
   0   2  -2    6.96    0.76
   0   2  -2    6.23    0.76
   0   2  -1  913.30   17.25
   0  -2   1  906.55   16.77
   0   2  -1  895.52   17.19
   0   2   0  232.22    4.92
   0  -2   0  212.17    4.84
   0   2   1    1.48    0.43
   0   2   1    1.62    0.36
   0  -2  -1    1.27    0.44
   0   2   2  268.66    5.45
   0  -2  -2  270.07    5.34
   0  -2  -2  252.40    5.47
   0  -2  -3    1.09    0.48
   0   2   3    1.20    0.59
   0   2   3    0.78    0.50
   0   2   4  516.90    9.83
   0  -2  -4  496.77    9.78
   0  -2  -4  523.37   10.05
   0  -2  -5   89.33    2.92
   0   2   5   88.34    2.97
   0  -2  -5   88.99    3.04
   0   2   5   92.46    2.95
   0  -2  -6   17.40    1.36
   0   2   6   19.16    1.40
   0  -2  -6   19.52    1.37
   0   2   7  131.63    4.22
   0  -2  -7  129.88    4.26
   0  -2  -7  136.80    4.26
   0  -2  -8   53.17    2.62
   0  -2  -8   57.02    2.66
   0   2   8   53.79    1.86
   0   2   8   51.46    2.59
   0   2   9    0.36    0.70
   0   2   9    0.53    0.34
   0  -2  -9    0.75    0.84
   0  -2  -9   -0.09    0.55
   0  -2 -10   82.82    3.65
   0   2  10   82.12    2.61
   0  -2 -10   75.73    3.52
   0   2  10   76.14    3.54
   0   2  11  146.01    3.94
   0  -2 -11  145.24    5.30
   0  -2 -11  144.76    5.25
   0   2  11  131.37    5.18
   0   2  12   15.52    1.11
   0  -2 -12   15.16    1.71
   0   2  12   14.55    1.77
   0   2  13   11.94    1.80
   0  -2 -13   11.70    1.61
   0   2  13    9.70    0.92
   0   2  14   71.08    4.24
   0  -2 -14   80.80    4.23
   0   2  14   77.86    2.86
   0   2  15   18.31    2.24
   0  -2 -15   19.34    2.15
   0   2  15   20.76    1.41
   0  -2 -16    1.88    0.99
   0   2  16    3.25    1.29
   0   2  16    3.08    0.66
   0   2  17   33.88    3.25
   0  -2 -17   35.89    3.14
   0  -2 -18   59.57    4.21
   0   2  18   64.84    4.58
   0  -2 -19   34.60    3.39
   0   3 -18    5.41    1.45
   0   3 -18   10.20    1.94
   0   3 -17   21.94    2.57
   0   3 -17   18.62    2.20
   0   3 -16   12.95    2.00
   0   3 -15    6.95    1.49
   0   3 -14   19.12    2.20
   0   3 -13   28.08    1.60
   0   3 -13   26.31    2.44
   0   3 -12   61.50    3.56
   0   3 -12   58.34    3.22
   0   3 -12   60.87    2.37
   0   3 -11    3.94    0.92
   0   3 -11    1.04    0.71
   0   3 -11    1.95    0.45
   0  -3  11    2.23    0.87
   0   3 -10   46.90    1.91
   0   3 -10   47.84    2.80
   0  -3  10   49.45    2.72
   0   3 -10   49.65    2.75
   0   3  -9  136.43    4.86
   0   3  -9  143.08    4.87
   0  -3   9  145.87    4.88
   0   3  -9  131.01    3.65
   0   3  -8   49.65    2.51
   0   3  -8   44.58    1.73
   0  -3   8   49.27    2.55
   0   3  -8   47.73    2.52
   0   3  -7    2.38    0.74
   0  -3   7    3.20    0.82
   0   3  -7    2.01    0.37
   0   3  -7    2.06    0.56
   0  -3   6   13.67    0.86
   0   3  -6   14.40    1.23
   0   3  -6   16.87    1.36
   0   3  -6   12.67    0.77
   0  -3   6   16.37    1.42
   0  -3   5    8.10    1.09
   0   3  -5    5.41    0.76
   0  -3   5    6.53    0.62
   0   3  -5    6.85    0.62
   0   3  -5    6.84    0.89
   0   3  -4   18.42    1.33
   0   3  -4   18.10    0.91
   0  -3   4   18.89    0.96
   0   3  -4   17.32    1.21
   0   3  -4   21.27    1.55
   0   3  -3    4.65    0.66
   0   3  -3    4.54    0.55
   0  -3   3    4.29    0.54
   0   3  -3    2.71    0.77
   0   3  -3    5.06    0.80
   0   3  -2   46.29    2.08
   0  -3   2   49.23    1.67
   0   3  -2   50.23    2.20
   0   3  -1    4.73    0.79
   0  -3   1    5.05    0.65
   0   3  -1    4.61    0.81
   0  -3   0   45.97    1.86
   0   3   0   48.71    1.93
   0  -3   0   49.32    1.81
   0   3   1  141.13    3.32
   0   3   1  152.20    3.75
   0  -3  -1  146.28    3.72
   0  -3  -2  159.45    3.78
   0   3   2  150.59    3.59
   0  -3  -3    0.75    0.46
   0   3   3    1.00    0.50
   0  -3  -3    0.92    0.43
   0   3   4    0.24    0.50
   0   3   4    0.96    0.58
   0  -3  -4    0.94    0.50
   0   3   5    0.42    0.52
   0  -3  -5    1.69    0.58
   0   3   5    0.55    0.61
   0   3   6    6.44    0.94
   0   3   6    7.94    0.95
   0  -3  -6    5.17    0.80
   0   3   7   31.99    2.00
   0  -3  -7   33.80    2.06
   0  -3  -7   32.26    1.89
   0   3   7   34.70    1.95
   0  -3  -8    0.43    0.75
   0   3   8    0.78    0.67
   0  -3  -8   -0.54    0.58
   0  -3  -9   41.90    2.41
   0   3   9   41.35    2.39
   0  -3  -9   42.47    2.52
   0  -3 -10   66.97    3.34
   0   3  10   72.34    3.37
   0   3  10   62.29    2.22
   0  -3 -10   72.57    3.39
   0  -3 -11   10.53    1.50
   0  -3 -11    7.50    1.21
   0   3  11    7.73    0.78
   0   3  11    7.44    1.23
   0  -3 -12   21.72    2.03
   0   3  12   20.79    2.02
   0   3  12   20.34    1.27
   0  -3 -13   15.33    1.90
   0   3  13   20.05    1.23
   0   3  13   20.45    2.14
   0  -3 -14    1.30    0.97
   0   3  14    1.28    0.50
   0   3  14    1.65    1.17
   0  -3 -15    0.68    1.15
   0   3  15    0.62    0.95
   0   3  15    0.50    0.48
   0  -3 -16    0.34    0.96
   0   3  16    0.95    0.46
   0   3  16    0.98    1.02
   0   3  17   15.15    2.30
   0  -3 -17   13.84    2.09
   0  -3 -18    0.94    1.17
   0   3  18    1.99    1.22
   0  -3 -19    1.68    1.33
   0   4 -18   -1.02    1.32
   0   4 -17    4.52    1.30
   0   4 -16   18.62    2.34
   0   4 -15   43.66    3.48
   0   4 -14    9.22    1.63
   0   4 -13   16.00    2.03
   0   4 -12   53.84    3.56
   0   4 -12   54.00    2.11
   0   4 -11    2.51    0.48
   0   4 -11    1.94    1.01
   0   4 -10    5.67    1.30
   0   4 -10    4.51    1.00
   0   4 -10    4.59    0.59
   0   4 -10    4.92    1.03
   0   4  -9  129.55    5.20
   0   4  -9  122.36    4.66
   0   4  -9  127.52    4.82
   0   4  -9  125.48    3.46
   0   4  -8  157.77    5.61
   0   4  -8  147.39    5.23
   0   4  -8  149.87    3.85
   0   4  -8  141.46    4.91
   0   4  -7   13.76    1.29
   0  -4   7   13.57    0.92
   0   4  -7   15.02    1.69
   0   4  -7   14.45    1.49
   0   4  -7   14.63    0.93
   0   4  -6    9.89    1.05
   0   4  -6   12.40    0.87
   0   4  -6   11.41    1.30
   0  -4   6   10.28    0.79
   0   4  -6   12.00    1.47
   0  -4   5  437.89    9.07
   0   4  -5  421.61    9.79
   0   4  -5  444.23   10.51
   0   4  -5  454.48   10.77
   0   4  -5  452.29    9.12
   0   4  -4  263.66    7.18
   0   4  -4  262.91    7.02
   0  -4   4  268.49    5.93
   0   4  -4  256.67    6.29
   0   4  -4  265.60    5.93
   0   4  -3  111.81    3.91
   0   4  -3   98.10    3.06
   0   4  -3  108.90    3.82
   0  -4   3  109.29    3.02
   0   4  -2    5.39    0.95
   0  -4   2    5.83    0.71
   0   4  -2    4.50    0.79
   0  -4   1  238.60    5.69
   0   4  -1  228.47    6.13
   0   4  -1  254.23    6.32
   0  -4   0   13.44    1.07
   0   4   0   12.91    1.18
   0   4   0   12.56    1.13
   0   4   1   10.06    0.99
   0  -4  -1   10.20    0.94
   0   4   2  484.36    9.73
   0  -4  -2  497.82   10.21
   0   4   2  482.02   10.16
   0  -4  -3  383.02    8.05
   0   4   3  367.22    7.85
   0  -4  -4   33.49    1.66
   0   4   4   35.32    1.63
   0   4   4   35.53    1.92
   0  -4  -4   34.77    1.48
   0  -4  -5  327.90    6.99
   0   4   5  341.69    8.04
   0   4   5  328.07    7.54
   0  -4  -5  318.05    7.55
   0  -4  -6   43.60    2.06
   0   4   6   43.72    2.31
   0   4   6   43.02    2.09
   0   4   7  350.14    8.71
   0  -4  -7  334.06    8.26
   0   4   7  344.57    8.31
   0  -4  -8   58.66    2.72
   0   4   8   57.43    2.76
   0   4   8   60.75    2.97
   0  -4  -9  350.49    9.16
   0   4   9  382.47    9.75
   0   4   9  372.52    9.36
   0  -4 -10  250.31    7.29
   0   4  10  251.13    7.35
   0  -4 -11  247.33    7.48
   0   4  11  245.04    7.49
   0   4  12    2.47    1.06
   0   4  12    1.27    0.43
   0   4  13   72.15    2.58
   0  -4 -13   82.60    4.24
   0   4  13   77.55    4.06
   0   4  14   64.76    2.41
   0   4  14   68.93    4.05
   0  -4 -14   67.56    3.99
   0   4  15   40.62    1.81
   0   4  15   30.22    2.89
   0  -4 -15   38.28    3.06
   0   4  16    4.54    1.43
   0   4  17   28.27    3.00
   0   4  18  108.48    6.10
   0   5 -16   -0.83    1.12
   0   5 -15   -1.29    1.28
   0   5 -14   30.63    3.10
   0   5 -13    9.86    1.82
   0   5 -12    9.36    1.59
   0   5 -11   39.35    1.67
   0   5 -11   35.38    2.96
   0   5 -10  118.13    3.33
   0   5 -10  122.18    5.44
   0   5 -10  106.27    4.61
   0   5  -9    1.14    0.79
   0   5  -9    1.17    0.43
   0   5  -9    0.81    0.62
   0   5  -8   26.06    2.34
   0  -5   8   21.02    1.23
   0   5  -8   22.72    1.27
   0   5  -8   23.56    1.83
   0   5  -7   14.99    1.59
   0   5  -7   15.84    1.82
   0   5  -7   14.09    1.00
   0  -5   7   14.30    0.99
   0   5  -7   13.30    1.34
   0   5  -6  385.57    9.98
   0   5  -6  404.64   10.39
   0   5  -6  366.66    9.07
   0  -5   6  388.16    8.33
   0  -5   5  221.17    5.34
   0   5  -5  236.50    6.81
   0   5  -5  205.55    5.78
   0   5  -5  215.47    6.80
   0   5  -4   28.25    1.99
   0   5  -4   26.05    1.54
   0  -5   4   28.17    1.47
   0   5  -4   30.02    2.16
   0   5  -3    1.51    0.71
   0   5  -3    2.09    0.76
   0  -5   3    2.00    0.54
   0   5  -3    1.00    0.45
   0  -5   2   27.49    1.54
   0   5  -2   27.32    1.90
   0   5  -2   24.75    1.86
   0   5  -1  609.75   13.22
   0  -5   1  596.75   12.57
   0   5  -1  593.71   13.26
   0   5   0   29.29    1.83
   0  -5   0   29.76    1.70
   0   5   0   27.92    1.80
   0   5   1  145.70    4.54
   0  -5  -1  148.37    4.39
   0   5   1  152.42    4.47
   0  -5  -1  145.90    4.42
   0   5   1  139.31    3.64
   0   5   2  303.49    7.26
   0  -5  -2  310.24    7.30
   0   5   2  301.86    6.63
   0  -5  -3  124.23    3.75
   0   5   3  128.58    3.46
   0  -5  -4   12.22    1.01
   0   5   4   10.40    0.93
   0  -5  -5    0.40    0.45
   0  -5  -5    0.36    0.37
   0   5   5    1.06    0.57
   0   5   5    0.87    0.59
   0   5   6  254.94    6.53
   0   5   6  264.27    7.11
   0  -5  -6  249.42    6.57
   0  -5  -6  256.92    5.95
   0  -5  -7   41.43    1.71
   0   5   7   42.96    2.22
   0   5   7   43.60    2.52
   0  -5  -7   36.70    2.13
   0   5   8   -0.21    0.66
   0   5   8    0.09    0.56
   0  -5  -8    1.00    0.58
   0   5   9  137.70    5.06
   0   5   9  130.93    4.69
   0  -5  -9  127.06    4.63
   0   5  10  113.47    4.46
   0  -5 -10  112.22    4.47
   0  -5 -11   28.82    2.19
   0   5  11   24.99    2.08
   0   5  12   40.73    2.78
   0   5  13   14.27    1.85
   0   5  13   16.05    1.18
   0   5  14   11.02    0.96
   0   5  14   11.04    1.74
   0   5  15    0.70    0.40
   0   5  15   -1.72    1.15
   0   5  16    2.66    1.26
   0   5  17   14.92    2.25
   0   5  18    8.26    1.94
   0   6 -14    6.23    1.73
   0   6 -13   34.82    3.35
   0   6 -12   25.04    2.84
   0   6 -11    9.63    1.80
   0   6 -10    4.66    1.26
   0   6  -9   17.61    1.71
   0   6  -9   19.93    2.29
   0  -6   9   16.30    1.09
   0   6  -8   22.35    2.34
   0  -6   8   22.80    1.34
   0   6  -8   19.61    1.76
   0   6  -7    6.83    1.32
   0  -6   7    6.28    0.77
   0   6  -7    6.02    1.03
   0   6  -6   53.79    3.31
   0   6  -6   46.55    2.40
   0  -6   6   50.16    2.11
   0   6  -5  130.86    5.17
   0   6  -5  110.67    3.84
   0  -6   5  116.56    3.63
   0  -6   4   65.59    2.56
   0   6  -4   69.65    3.46
   0   6  -4   67.78    3.50
   0   6  -4   61.67    2.57
   0   6  -3    6.04    0.79
   0  -6   3    6.49    0.82
   0   6  -3    9.23    1.32
   0   6  -3    8.43    1.31
   0   6  -2  139.43    5.01
   0   6  -2  148.10    5.16
   0  -6   2  137.28    4.29
   0  -6   1   67.55    2.80
   0   6  -1   67.27    3.30
   0   6  -1   68.43    3.21
   0   6   0   28.96    1.99
   0  -6   0   28.54    1.83
   0   6   0   31.36    2.11
   0   6   1  115.46    4.27
   0   6   1  121.43    4.19
   0   6   1  119.77    3.34
   0  -6  -1  123.68    4.22
   0   6   2  216.83    6.00
   0   6   2  220.81    6.31
   0   6   2  213.01    5.18
   0  -6  -2  225.31    6.32
   0   6   3  192.16    4.79
   0  -6  -3  192.84    5.40
   0   6   4   12.78    1.06
   0  -6  -4   12.68    1.15
   0   6   5   54.91    2.34
   0  -6  -5   54.11    2.33
   0   6   5   55.22    2.82
   0   6   6  313.83    7.72
   0  -6  -6  318.12    7.45
   0   6   6  312.78    8.53
   0   6   7  118.45    4.06
   0  -6  -7  118.60    3.56
   0   6   7  121.57    4.62
   0  -6  -7  107.61    4.11
   0   6   8    5.59    0.98
   0  -6  -8    6.06    0.71
   0  -6  -8    5.34    0.98
   0   6   8    3.99    0.90
   0  -6  -9  318.76    8.61
   0  -6  -9  324.41    7.28
   0   6   9  313.45    8.50
   0   6  10  389.51   10.27
   0  -6 -10  405.07    8.73
   0  -6 -10  405.67   10.50
   0  -6 -11   47.08    1.95
   0   6  11   42.19    2.77
   0   6  12   12.71    1.62
   0   6  13   85.52    4.38
   0   6  14   60.44    3.81
   0   6  15  125.72    5.88
   0   6  16    1.12    1.20
   0   6  17   42.46    3.65
   0   6  18   26.38    3.05
   0   7 -13  101.68    5.99
   0   7 -12   14.68    2.28
   0   7 -11   30.74    3.19
   0   7 -10   40.14    3.47
   0   7  -9    2.91    0.81
   0   7  -9    2.75    1.15
   0  -7   9    2.40    0.51
   0   7  -8    0.98    1.05
   0   7  -8    0.52    0.56
   0  -7   8    0.57    0.42
   0   7  -7  165.04    5.47
   0  -7   7  173.08    4.87
   0   7  -7  193.41    7.20
   0   7  -6  210.46    7.49
   0  -7   6  204.99    5.46
   0   7  -6  178.65    5.65
   0  -7   5    0.50    0.47
   0   7  -5    2.41    0.68
   0   7  -5    2.36    1.09
   0  -7   4   52.52    2.44
   0   7  -4   52.36    2.37
   0   7  -4   54.82    3.36
   0   7  -3   92.94    4.27
   0   7  -3   93.34    3.16
   0  -7   3   85.41    3.36
   0  -7   2  179.78    5.41
   0   7  -2  182.34    6.21
   0   7  -1   20.53    1.90
   0   7  -1   20.44    1.88
   0  -7   1   18.60    1.56
   0   7   0   58.09    3.19
   0  -7   0   57.00    2.84
   0   7   0   57.90    3.05
   0   7   1  349.43    9.09
   0   7   1  357.51    9.47
   0  -7  -1  348.50    9.03
   0   7   1  349.82    7.73
   0  -7  -2    6.49    1.12
   0   7   2    6.30    0.72
   0   7   2    7.01    1.13
   0  -7  -3   73.53    3.48
   0   7   3   75.26    3.41
   0   7   3   71.12    2.53
   0  -7  -4    3.74    0.76
   0   7   4    3.14    0.62
   0   7   5  112.60    3.69
   0  -7  -5  110.88    3.87
   0   7   6   16.28    1.67
   0   7   6   15.48    1.32
   0  -7  -6   15.33    1.29
   0   7   7   34.47    2.07
   0  -7  -7   36.39    1.93
   0   7   8   81.87    3.49
   0  -7  -8   88.94    3.13
   0   7   9   36.85    2.39
   0  -7  -9   37.43    2.49
   0  -7  -9   42.72    2.01
   0  -7 -10    0.87    0.48
   0   7  10    0.23    0.68
   0  -7 -10    1.12    0.71
   0  -7 -11   62.12    2.35
   0   7  11   58.90    3.31
   0  -7 -12   86.67    2.83
   0   7  12   78.91    4.08
   0   7  13   77.93    4.18
   0   7  14    1.85    1.00
   0   7  15    3.08    1.16
   0   7  16   41.55    3.44
   0   7  17   16.23    2.38
   0   7  18    1.47    1.10
   0   8 -11   -1.92    1.47
   0   8 -10   34.39    3.38
   0   8  -9   65.87    4.47
   0   8  -8   25.32    2.80
   0  -8   7    0.93    0.55
   0   8  -7    0.33    0.96
   0   8  -7    1.11    0.66
   0  -8   6   52.36    2.48
   0   8  -6   55.82    3.75
   0   8  -6   48.43    2.56
   0  -8   5  104.49    3.84
   0   8  -5  101.60    5.08
   0   8  -5  101.25    3.69
   0  -8   4   13.06    1.30
   0   8  -4   12.41    1.19
   0   8  -4   13.78    1.85
   0   8  -3   15.84    1.25
   0   8  -3   16.19    2.00
   0  -8   3   16.21    1.50
   0   8  -2  139.02    5.56
   0  -8   2  133.77    4.72
   0   8  -2  127.54    3.93
   0  -8   1  204.79    6.31
   0   8  -1  204.20    6.90
   0   8   0  100.61    4.44
   0  -8   0   96.66    4.09
   0   8   0  105.74    3.23
   0   8   1   12.52    1.57
   0   8   1   12.53    0.99
   0  -8  -1   12.17    1.49
   0   8   2  138.66    3.90
   0  -8  -2  134.84    5.17
   0  -8  -3  210.65    6.82
   0   8   3  202.01    6.72
   0   8   3  204.54    5.28
   0   8   4   39.46    2.60
   0  -8  -4   40.96    2.83
   0   8   4   39.87    1.96
   0   8   5   36.97    2.00
   0   8   5   41.93    2.63
   0  -8  -6   51.37    2.57
   0   8   6   50.95    2.49
   0  -8  -7   57.71    2.69
   0   8   7   58.76    2.79
   0  -8  -8    9.27    1.07
   0   8   8    7.35    1.11
   0   8   9   70.70    3.37
   0  -8  -9   68.65    2.80
   0   8  10   87.55    4.02
   0  -8 -10   90.46    3.21
   0   8  11   39.47    2.72
   0   8  12    1.26    0.92
   0   8  13   12.65    1.79
   0   8  14   86.75    4.67
   0   8  15    1.76    1.14
   0   8  16    9.61    1.82
   0   8  17   38.11    3.52
   0   9  -9    7.04    1.85
   0   9  -8   12.40    2.08
   0   9  -7   27.28    2.86
   0  -9   6   16.75    1.53
   0   9  -6   17.54    2.35
   0   9  -5    7.94    1.64
   0  -9   5    5.02    1.02
   0  -9   4   -0.10    0.53
   0   9  -4    0.42    1.00
   0   9  -3  169.22    6.74
   0  -9   3  162.63    5.56
   0  -9   2   36.75    2.47
   0   9  -2   37.35    1.87
   0   9  -2   38.31    2.95
   0  -9   1   15.88    1.65
   0   9  -1   16.32    1.19
   0   9  -1   15.15    1.98
   0   9   0    6.93    0.78
   0   9   0    4.27    1.26
   0  -9   0    5.75    1.15
   0   9   1   94.86    3.01
   0  -9  -1   81.99    4.07
   0  -9  -2   10.74    1.53
   0   9   2   12.47    0.99
   0  -9  -3   -0.25    0.78
   0   9   3   -0.16    0.45
   0  -9  -4   50.11    3.26
   0   9   4   49.65    2.24
   0  -9  -5   45.72    3.22
   0   9   5   50.63    2.37
   0  -9  -6   32.13    2.74
   0   9   6   36.39    2.08
   0   9   7    4.39    0.86
   0   9   8   32.80    2.16
   0   9   9    1.95    0.88
   0   9   9    1.36    0.71
   0   9  10    0.72    0.64
   0   9  11   18.07    1.87
   0   9  12   49.80    3.20
   0   9  13    0.11    0.84
   0   9  14    2.50    1.12
   0   9  15   19.15    2.37
   0   9  16    7.95    1.71
   0   9  17    4.57    1.52
   0  10  -7    0.39    1.15
   0  10  -6    6.96    1.72
   0  10  -5   14.52    2.29
   0  10  -4    1.16    1.09
   0 -10   4    0.41    0.65
   0  10  -3   18.62    2.36
   0 -10   3   21.63    1.94
   0 -10   2   16.85    1.79
   0  10  -2   17.10    2.17
   0  10  -1    1.06    1.12
   0 -10   1    2.01    0.96
   0 -10   0    2.10    0.86
   0 -10  -1   21.55    2.14
   0 -10  -2   41.82    3.03
   0  10   2   41.04    1.86
   0  10   3   17.33    1.23
   0 -10  -3   14.55    1.96
   0 -10  -4   71.78    4.22
   0  10   4   84.13    3.06
   0 -10  -5   78.39    4.51
   0  10   5   79.49    3.10
   0  10   6   34.25    2.04
   0 -10  -6   32.16    2.92
   0  10   7   30.52    1.98
   0 -10  -7   30.94    2.97
   0  10   8   34.10    2.27
   0 -10  -8   30.59    2.98
   0  10   9   81.31    3.71
   0  10  10   22.44    2.01
   0  10  11    7.07    1.26
   0  10  12   24.47    2.25
   0  10  13   26.54    2.46
   0  10  14    7.11    1.53
   0  10  15   15.32    2.16
   0  11  -5    1.33    1.48
   0  11  -4  111.05    6.08
   0  11  -3   51.59    4.12
   0  11  -2    2.79    1.30
   0 -11   2    4.82    1.28
   0 -11   1   36.14    2.81
   0 -11   0   45.81    3.23
   0 -11  -1   36.03    2.94
   0 -11  -2    2.49    1.18
   0 -11  -3   77.46    4.53
   0 -11  -4  126.17    5.99
   0 -11  -5   51.71    3.79
   0 -11  -6   20.94    2.49
   0 -11  -7   32.96    3.12
   0 -11  -8   72.86    4.76
   0 -11  -9   59.68    4.42
   0 -11 -10   19.84    2.69
   0 -12   0    6.11    1.32
   0 -12  -1   22.02    2.49
   0 -12  -2    1.15    1.06
   0 -12  -3   25.06    2.68
   0 -12  -4   28.35    2.92
   0 -12  -5    5.53    1.43
   0 -12  -6    3.16    1.33
   0 -12  -7   50.89    4.14
   0 -13  -2   -0.89    1.26
   0 -13  -3   49.09    3.94
   1 -12  -6   10.26    1.98
   1 -12  -5    9.45    1.93
   1 -12  -4   44.62    3.68
   1 -12  -3   45.34    3.60
   1 -12  -2    1.69    1.15
  -1  12  -1   46.69    3.77
  -1  12  -2   11.58    2.22
   1 -11  -7   56.78    4.15
   1 -11  -6  101.18    5.55
   1 -11  -5   -0.88    0.99
   1 -11  -4   14.58    2.10
   1 -11  -3   47.35    3.53
   1 -11  -2   78.86    4.46
   1 -11  -1    0.47    0.84
   1 -11   0   60.89    3.68
  -1  11   0   62.59    4.13
  -1  11  -1  103.50    5.50
   1 -11   1  103.53    4.79
  -1  11  -2   51.15    3.89
  -1  11  -3    0.06    1.10
  -1  11  -4   15.01    2.31
  -1  10  15   33.01    3.31
  -1  10  14   10.05    1.86
  -1  10  13   -0.53    1.00
  -1  10  12   27.28    2.60
  -1  10  11   50.72    3.39
  -1  10  10    1.53    0.83
  -1  10   9    1.33    0.95
  -1  10   8   25.99    2.26
  -1  10   7   73.93    3.69
  -1  10   6    7.72    1.29
  -1  10   5   15.99    1.61
  -1  10   4   41.66    2.54
   1 -10  -4   44.27    3.28
   1 -10  -3    0.72    0.99
  -1  10   3    0.70    0.62
   1 -10  -2   -0.05    0.86
  -1  10   2    1.29    0.71
   1 -10  -1   21.52    2.17
  -1  10   1   21.92    2.29
  -1  10   1   19.18    1.70
  -1  10   0   96.89    4.93
  -1  10   0  109.28    4.17
   1 -10   0  103.28    4.68
   1 -10   1    2.03    0.77
  -1  10  -1    0.13    0.84
   1 -10   2   -1.45    0.70
  -1  10  -2   -0.98    1.17
  -1  10  -3    6.00    1.64
  -1  10  -4    3.43    1.21
  -1  10  -5   23.97    2.74
  -1  10  -6    2.94    1.24
  -1   9  16    0.31    0.98
  -1   9  15   21.39    2.51
  -1   9  14   38.56    3.22
  -1   9  13   12.95    1.89
  -1   9  12    0.84    1.02
  -1   9  11   57.68    3.60
  -1   9  10   54.35    3.37
  -1   9   9   22.11    2.13
  -1   9   8   13.74    1.70
  -1   9   7   95.03    4.16
  -1   9   6  143.34    5.24
  -1   9   5   23.53    1.88
  -1   9   4   48.07    2.63
  -1   9   3   70.76    3.21
  -1   9   2    8.53    1.35
   1  -9  -2   12.07    1.65
  -1   9   2   10.37    1.25
  -1   9   1    4.40    1.10
   1  -9  -1    3.90    0.95
  -1   9   1    3.86    0.90
  -1   9   0   65.82    3.72
   1  -9   0   65.49    3.45
  -1   9  -1   73.59    4.06
   1  -9   1   80.12    3.73
   1  -9   2   13.42    1.48
  -1   9  -2   10.19    1.67
  -1   9  -3   11.02    1.80
   1  -9   3   12.69    1.38
   1  -9   4   32.02    2.00
  -1   9  -4   32.69    2.94
  -1   9  -5  112.49    5.76
  -1   9  -6   10.67    2.03
  -1   9  -7   58.04    4.30
  -1   9  -8    3.16    1.53
  -1   8  16   22.21    2.67
  -1   8  15   12.84    2.02
  -1   8  14   32.59    3.00
  -1   8  13   16.77    2.19
  -1   8  12   25.45    2.44
  -1   8  11    8.30    1.45
  -1   8  10    3.84    1.01
  -1   8   9    2.35    0.68
  -1   8   9    2.01    0.86
  -1   8   8    2.71    0.78
  -1   8   8    1.14    0.73
  -1   8   7  188.40    6.17
  -1   8   7  182.43    5.89
  -1   8   6    4.38    0.88
  -1   8   6    5.15    0.99
  -1   8   5   18.51    1.76
  -1   8   5   18.34    1.79
  -1   8   5   16.03    1.52
  -1   8   4    3.72    0.88
  -1   8   4    3.48    0.94
  -1   8   4    2.95    0.87
  -1   8   3    8.18    1.21
  -1   8   3    8.98    1.21
  -1   8   3    7.65    1.16
  -1   8   2    2.51    0.87
  -1   8   2    0.39    0.63
  -1   8   1    9.86    1.28
  -1   8   1    8.89    1.30
   1  -8  -1   10.26    1.38
   1  -8   0   32.65    2.24
  -1   8   0   39.10    2.64
   1  -8   1   32.01    2.12
  -1   8  -1   33.50    2.53
  -1   8  -2   18.52    2.03
   1  -8   2   18.34    1.56
   1  -8   3    4.68    0.80
  -1   8  -3    5.87    1.31
   1  -8   4  241.82    6.46
  -1   8  -4  242.49    8.34
  -1   8  -5   13.81    1.96
   1  -8   5   11.89    1.09
  -1   8  -5    9.68    1.35
  -1   8  -6   18.52    2.34
   1  -8   6   16.01    1.16
  -1   8  -6   17.39    1.79
  -1   8  -7    4.62    1.41
  -1   8  -8    5.40    1.53
  -1   8  -9    6.64    1.62
  -1   8 -10    6.78    1.73
  -1   7  17    0.30    0.92
  -1   7  16   19.67    2.44
  -1   7  15   12.48    1.96
  -1   7  14    7.93    1.67
  -1   7  13    1.48    1.11
  -1   7  12  108.37    5.02
  -1   7  11    6.20    1.24
  -1   7  11    5.31    0.72
  -1   7  10   50.10    3.13
  -1   7  10   51.58    2.33
  -1   7   9   39.32    2.67
  -1   7   9   35.79    2.00
  -1   7   8   89.97    3.96
  -1   7   8   85.30    3.34
  -1   7   7  229.23    6.94
  -1   7   7  245.51    7.39
  -1   7   7  227.09    6.46
  -1   7   6   82.24    3.50
  -1   7   6   71.85    3.56
  -1   7   6   83.26    3.42
  -1   7   5   52.71    2.71
  -1   7   5   49.87    2.59
  -1   7   5   48.82    2.76
  -1   7   4  231.12    6.49
  -1   7   4  232.78    6.79
  -1   7   4  233.19    6.80
  -1   7   3  212.70    6.05
  -1   7   3  212.51    6.47
  -1   7   3  219.66    6.11
  -1   7   3  202.03    6.19
  -1   7   2   63.34    2.84
  -1   7   2   63.53    2.96
  -1   7   2   64.14    3.20
  -1   7   1    5.67    0.99
  -1   7   1    7.18    1.33
  -1   7   0    4.05    1.02
  -1   7   0    5.68    1.05
   1  -7   0    4.05    0.90
   1  -7   1  297.82    7.75
  -1   7  -1  297.39    8.51
   1  -7   2   19.63    1.52
  -1   7  -2   19.94    1.97
  -1   7  -3  188.32    6.62
   1  -7   3  183.03    5.21
  -1   7  -4   78.84    4.12
   1  -7   4   81.21    2.94
  -1   7  -5   54.40    2.96
  -1   7  -5   59.73    3.66
   1  -7   5   66.79    2.45
   1  -7   6    1.71    0.42
  -1   7  -6    1.86    1.09
  -1   7  -6    2.28    0.72
  -1   7  -7   36.38    3.00
   1  -7   7   31.55    1.29
  -1   7  -7   31.29    2.36
  -1   7  -8   92.58    5.01
  -1   7  -9   26.12    2.75
  -1   7 -10   27.61    2.95
  -1   7 -11   90.01    5.34
  -1   7 -12   14.49    2.33
  -1   6  17    4.04    1.38
  -1   6  16    5.31    1.48
  -1   6  15  136.87    6.35
  -1   6  14    0.75    1.01
  -1   6  13   49.77    3.47
  -1   6  12   27.10    2.41
  -1   6  12   27.35    1.19
  -1   6  11    9.45    1.44
  -1   6  11    8.60    0.75
  -1   6  10   -0.07    0.84
  -1   6  10   -0.01    0.30
  -1   6   9   54.74    3.05
  -1   6   9   48.92    2.08
  -1   6   8  134.01    4.92
  -1   6   8  129.21    3.96
  -1   6   8  143.94    5.24
  -1   6   7    1.20    0.76
  -1   6   7    0.64    0.38
  -1   6   7    0.03    0.58
  -1   6   6  217.89    6.36
  -1   6   6  219.97    5.97
  -1   6   6  232.29    6.75
  -1   6   5  500.99   11.86
  -1   6   5  522.86   11.64
  -1   6   5  497.07   11.37
  -1   6   4   60.50    2.74
  -1   6   4   57.99    2.76
  -1   6   4   59.66    2.74
  -1   6   3    1.52    0.67
  -1   6   3    2.65    0.73
  -1   6   3    0.70    0.56
  -1   6   3    1.04    0.49
  -1   6   2  150.74    4.55
  -1   6   2  138.29    4.74
  -1   6   2  145.31    4.53
  -1   6   1  108.50    4.13
  -1   6   1  118.26    4.09
  -1   6   0   95.65    3.89
  -1   6   0   95.13    3.77
   1  -6   1   45.22    2.19
  -1   6  -1   45.01    2.62
  -1   6  -1   45.00    2.58
   1  -6   2  123.78    3.89
  -1   6  -2  125.47    4.71
  -1   6  -2  123.43    4.72
   1  -6   3  214.67    5.51
  -1   6  -3  215.80    6.82
  -1   6  -3  219.15    6.90
   1  -6   4   41.53    1.82
  -1   6  -4   42.32    2.78
   1  -6   5    2.41    0.47
  -1   6  -5    1.60    0.87
  -1   6  -6   96.38    4.13
  -1   6  -6  115.34    5.03
   1  -6   6  111.17    2.92
   1  -6   7   52.74    1.52
  -1   6  -7   52.14    3.41
  -1   6  -7   45.52    2.79
  -1   6  -8    3.84    1.25
  -1   6  -8    2.96    0.93
  -1   6  -9    2.34    1.26
  -1   6 -10   18.01    2.33
  -1   6 -11   34.52    3.18
  -1   6 -12    1.16    1.35
  -1   6 -13   -0.27    1.11
  -1   6 -14    0.25    1.28
  -1   5  17    9.61    1.99
  -1   5  16   38.83    3.38
  -1   5  15   14.81    2.11
  -1   5  14    1.87    1.12
  -1   5  13   15.80    1.97
  -1   5  12   49.34    1.25
  -1   5  12   48.91    1.30
  -1   5  12   63.12    3.57
  -1   5  11   59.45    3.40
  -1   5  11   59.93    1.77
  -1   5  10    1.09    0.77
  -1   5  10    1.10    0.34
   1  -5 -10    1.41    0.88
   1  -5  -9    1.62    0.82
  -1   5   9    3.06    0.47
  -1   5   9    1.34    0.70
  -1   5   8  202.47    6.21
  -1   5   8  188.74    4.76
   1  -5  -8  206.65    6.40
  -1   5   7   18.42    1.61
  -1   5   7   18.12    1.14
  -1   5   7   20.85    1.72
  -1   5   6   34.99    1.69
  -1   5   6   34.77    2.09
  -1   5   6   37.47    2.21
  -1   5   5  417.39    9.59
  -1   5   5  391.15    8.98
  -1   5   5  409.26    9.69
  -1   5   4  180.34    5.27
  -1   5   4  188.62    5.37
  -1   5   4  189.63    5.14
  -1   5   3   39.88    2.06
  -1   5   3   36.86    1.96
  -1   5   3   39.33    2.00
  -1   5   3   36.60    1.72
  -1   5   2   55.36    2.27
  -1   5   2   50.23    2.35
  -1   5   2   51.08    2.25
  -1   5   1   19.38    1.39
  -1   5   1   18.06    1.46
  -1   5   0  125.50    4.30
  -1   5   0  133.95    4.25
  -1   5  -1   19.47    1.58
  -1   5  -1   21.23    1.67
   1  -5   2  118.85    3.52
  -1   5  -2  124.22    4.36
  -1   5  -2  118.82    4.37
  -1   5  -3  143.02    4.98
  -1   5  -3  145.16    4.94
   1  -5   3  136.55    4.88
   1  -5   3  137.04    3.74
   1  -5   4   24.30    1.96
  -1   5  -4   24.44    1.92
   1  -5   4   23.68    1.18
   1  -5   5   88.51    2.46
  -1   5  -5   90.79    4.01
   1  -5   5   94.52    4.05
   1  -5   6   18.96    1.86
  -1   5  -6   16.67    1.86
  -1   5  -6   19.11    1.85
   1  -5   6   19.20    0.83
   1  -5   7   74.90    3.76
  -1   5  -7   71.70    3.43
   1  -5   8   25.93    2.28
  -1   5  -8   26.89    2.15
   1  -5   9   27.10    2.40
   1  -5  10  118.69    5.26
   1  -5  11   28.39    2.61
   1  -5  12    4.23    1.37
  -1   5 -12    4.40    1.37
  -1   5 -13    2.26    1.12
  -1   5 -14   73.30    4.79
  -1   5 -15   56.50    4.31
   1  -4 -18   23.20    2.89
  -1   4  18   20.55    2.70
   1  -4 -17   21.65    2.63
  -1   4  17   26.42    2.85
   1  -4 -16  184.51    7.63
  -1   4  16  182.67    7.63
  -1   4  15    6.11    1.45
   1  -4 -15    4.62    1.40
  -1   4  14   93.76    4.86
   1  -4 -14  100.33    2.61
   1  -4 -14   96.65    4.94
   1  -4 -13   76.48    4.23
   1  -4 -13   79.36    2.08
  -1   4  13   81.69    4.29
  -1   4  12  152.97    5.84
   1  -4 -12  144.09    5.75
   1  -4 -12  140.48    3.01
  -1   4  11   16.15    1.83
   1  -4 -11   15.36    1.85
   1  -4 -10   30.72    2.30
   1  -4 -10   28.73    2.27
  -1   4  10   25.22    0.84
  -1   4  10   29.04    2.21
  -1   4  10   24.83    0.88
   1  -4  -9  116.55    4.55
   1  -4  -9  124.73    4.63
  -1   4   9  107.10    2.62
  -1   4   9  114.84    4.50
   1  -4  -8  130.80    4.68
   1  -4  -8  129.25    4.64
  -1   4   8  118.50    2.97
  -1   4   8  126.36    4.58
  -1   4   7   44.30    2.44
  -1   4   7   41.74    1.53
   1  -4  -7   44.60    2.49
   1  -4  -7   46.77    2.50
  -1   4   6  227.39    5.21
   1  -4  -6  228.06    6.43
  -1   4   6  235.59    6.44
  -1   4   6  223.27    6.25
  -1   4   5  788.26   16.41
  -1   4   5  827.82   16.55
  -1   4   5  780.16   15.47
  -1   4   4   26.10    1.39
  -1   4   4   24.91    1.59
  -1   4   4   21.42    1.53
  -1   4   3  116.80    3.49
  -1   4   3  119.19    3.79
  -1   4   3  120.18    3.64
  -1   4   3  120.34    3.15
  -1   4   2   39.47    1.69
  -1   4   2   36.80    1.79
  -1   4   2   36.99    1.74
  -1   4   1 1129.64   22.16
  -1   4   1 1141.05   21.87
  -1   4   0   84.44    3.09
  -1   4   0   89.15    3.03
   1  -4   0   84.53    3.12
   1  -4   1   31.37    1.85
  -1   4  -1   29.41    1.78
   1  -4   2  292.67    7.42
  -1   4  -2  282.56    7.38
   1  -4   3  184.20    5.46
  -1   4  -3  177.66    5.42
   1  -4   3  173.83    4.13
   1  -4   4   76.69    2.09
   1  -4   4   75.51    3.33
  -1   4  -4   80.48    3.37
   1  -4   5  104.20    4.06
   1  -4   5  101.34    2.34
  -1   4  -5  101.69    3.97
  -1   4  -6  179.98    5.75
  -1   4  -6  159.80    5.28
   1  -4   6  173.80    5.71
   1  -4   7   35.82    2.43
  -1   4  -7   34.43    2.24
  -1   4  -7   38.52    2.50
  -1   4  -8    0.94    0.70
   1  -4   8    0.30    0.76
  -1   4  -8    0.38    0.58
  -1   4  -9   85.57    3.98
   1  -4   9   87.74    4.10
   1  -4  10   11.50    1.63
   1  -4  11   23.68    2.27
   1  -4  12    7.89    1.48
   1  -4  13   67.44    3.94
   1  -4  14    5.75    1.34
   1  -4  15   18.70    2.26
  -1   4 -15   28.44    2.53
  -1   4 -16    1.44    1.20
  -1   4 -16    3.38    1.20
  -1   4 -17    9.51    1.66
  -1   3  18    2.63    1.29
   1  -3 -18    8.00    1.85
   1  -3 -17   81.21    4.89
  -1   3  17   83.00    5.13
   1  -3 -16   20.97    2.46
  -1   3  16   18.03    2.35
   1  -3 -15   21.43    2.38
   1  -3 -15   22.71    1.44
  -1   3  15   23.42    2.53
   1  -3 -14    3.20    1.24
  -1   3  14    3.28    1.15
   1  -3 -14    2.00    0.49
  -1   3  13   96.59    4.72
   1  -3 -13   99.07    3.01
   1  -3 -13   98.20    4.74
   1  -3 -12   34.13    1.46
  -1   3  12   32.82    2.56
   1  -3 -12   37.56    2.75
   1  -3 -11   57.81    3.25
  -1   3  11   53.74    3.14
   1  -3 -11   54.48    1.78
   1  -3 -10   17.90    1.76
   1  -3 -10   19.37    0.86
  -1   3  10   20.88    1.90
   1  -3 -10   21.48    1.88
   1  -3  -9    8.53    1.32
   1  -3  -9    8.92    1.22
   1  -3  -9    7.67    0.45
  -1   3   9    8.07    1.29
   1  -3  -8  231.37    6.67
   1  -3  -8  235.95    6.78
  -1   3   8  228.98    6.68
   1  -3  -7   55.75    2.64
   1  -3  -7   57.25    2.70
  -1   3   7   48.24    1.33
  -1   3   7   53.03    2.60
   1  -3  -6   42.67    2.21
   1  -3  -6   45.48    2.34
  -1   3   6   43.88    1.35
  -1   3   6   44.02    2.30
   1  -3  -5   60.21    2.63
   1  -3  -5   57.83    2.51
  -1   3   5   55.81    2.43
  -1   3   5   58.09    1.74
  -1   3   4   93.17    2.54
  -1   3   4   90.83    3.18
  -1   3   4   99.44    3.19
   1  -3  -4   97.54    3.19
  -1   3   3  143.12    3.55
  -1   3   3  143.46    3.88
  -1   3   3  145.20    4.12
  -1   3   3  138.15    3.17
  -1   3   2   25.89    1.13
  -1   3   2   26.60    1.32
  -1   3   2   24.78    1.28
  -1   3   1   70.35    2.45
  -1   3   1   73.64    2.25
   1  -3  -1   80.77    2.58
  -1   3   0  253.36    6.17
   1  -3   0  267.72    6.24
   1  -3   1  314.95    7.21
  -1   3  -1  288.33    7.04
  -1   3  -2    5.83    0.84
   1  -3   2    4.94    0.86
   1  -3   3  194.14    4.13
   1  -3   3  197.23    5.50
  -1   3  -3  202.51    5.48
  -1   3  -4  190.75    5.59
   1  -3   4  206.56    4.02
   1  -3   4  202.25    5.73
   1  -3   5   19.91    1.63
  -1   3  -5   19.36    1.54
   1  -3   6  134.82    4.54
  -1   3  -6  113.37    4.24
  -1   3  -6  128.61    4.32
   1  -3   7   88.29    3.67
  -1   3  -7   92.04    3.76
  -1   3  -7   85.25    3.58
  -1   3  -8   49.44    2.78
   1  -3   8   52.58    2.85
  -1   3  -8   53.53    2.90
  -1   3  -9   27.58    2.15
   1  -3   9   29.97    2.25
  -1   3  -9   30.97    2.28
  -1   3 -10   43.84    2.73
  -1   3 -10   34.12    2.50
   1  -3  10   40.81    2.69
   1  -3  11   53.06    3.16
   1  -3  12    3.57    1.08
   1  -3  13   25.88    2.31
   1  -3  14   44.27    3.14
  -1   3 -14   48.81    3.09
  -1   3 -15   38.95    2.81
   1  -3  15   33.99    2.82
   1  -3  16   -2.48    1.22
  -1   3 -16    1.15    0.89
   1  -3  17    7.88    1.59
  -1   3 -17    9.34    1.40
  -1   3 -18   21.73    2.40
  -1   3 -19    3.43    1.19
   1  -2 -18   39.39    3.48
  -1   2  18   37.42    3.64
  -1   2  17   26.09    2.90
   1  -2 -17   25.40    2.70
   1  -2 -16   21.98    2.54
  -1   2  16   21.77    2.50
   1  -2 -16   22.55    1.75
   1  -2 -15    3.11    0.76
   1  -2 -15    4.34    1.35
  -1   2  15    2.71    1.23
   1  -2 -14   66.14    2.78
  -1   2  14   68.14    4.04
   1  -2 -14   76.16    4.19
   1  -2 -13  210.68    5.65
  -1   2  13  219.93    7.55
   1  -2 -13  222.74    7.54
  -1   2  12   67.90    3.69
   1  -2 -12   65.14    2.48
   1  -2 -12   67.43    3.64
   1  -2 -11    0.97    0.49
  -1   2  11    0.25    0.81
   1  -2 -11    0.33    0.84
   1  -2 -10  189.61    6.18
   1  -2 -10  185.46    4.59
   1  -2 -10  198.54    6.31
  -1   2  10  201.02    6.30
   1  -2  -9  213.87    6.43
  -1   2   9  214.82    6.44
   1  -2  -9  214.05    6.41
   1  -2  -9  206.10    4.72
   1  -2  -8  160.85    5.09
   1  -2  -8  159.64    5.12
   1  -2  -8  151.10    3.50
  -1   2   8  159.29    5.10
   1  -2  -7    0.59    0.24
   1  -2  -7    0.09    0.68
   1  -2  -7    0.65    0.56
  -1   2   7    0.54    0.73
   1  -2  -6  170.34    5.01
  -1   2   6  185.33    5.20
   1  -2  -6  180.62    5.17
   1  -2  -5  145.55    4.23
   1  -2  -5  151.27    4.35
  -1   2   5  138.64    4.23
   1  -2  -4    7.47    0.90
  -1   2   4    8.37    0.48
  -1   2   4    7.00    0.89
   1  -2  -4    7.58    0.93
   1  -2  -3  177.98    4.46
  -1   2   3  175.99    4.63
  -1   2   3  183.35    3.87
   1  -2  -2  233.02    5.16
   1  -2  -2  237.99    4.99
  -1   2   2  225.61    5.14
  -1   2   2  232.37    4.96
  -1   2   1  138.73    3.43
   1  -2  -1  146.57    3.51
  -1   2   1  138.24    3.26
  -1   2   0    0.06    0.33
   1  -2   0    0.16    0.51
  -1   2   0   -0.17    0.51
   1  -2   1  141.12    3.77
  -1   2  -1  138.43    3.72
   1  -2   2  268.70    6.23
  -1   2  -2  260.87    6.22
  -1   2  -3  197.31    5.05
   1  -2   3  180.12    4.95
   1  -2   4   20.35    1.45
  -1   2  -4   19.25    1.41
  -1   2  -5  357.32    8.41
   1  -2   5  338.94    8.18
   1  -2   6   49.41    2.40
  -1   2  -6   54.05    2.53
  -1   2  -6   49.74    2.46
  -1   2  -7    4.11    0.83
  -1   2  -7    4.06    0.79
   1  -2   7    4.25    0.82
  -1   2  -8   17.22    1.62
  -1   2  -8   18.17    1.55
   1  -2   8   17.60    1.52
   1  -2   9   19.92    1.71
  -1   2  -9   17.35    0.72
  -1   2  -9   19.29    1.77
  -1   2  -9   21.08    1.72
  -1   2 -10   81.65    3.86
  -1   2 -10   80.71    2.11
  -1   2 -10   78.67    3.61
   1  -2  10   79.16    3.55
  -1   2 -11    5.70    1.12
  -1   2 -11    4.30    0.49
   1  -2  11    3.36    0.86
  -1   2 -12   27.00    2.09
  -1   2 -12   25.96    1.18
  -1   2 -12   27.26    2.17
   1  -2  12   28.51    2.26
   1  -2  13   60.92    3.45
  -1   2 -13   62.20    3.29
  -1   2 -13   58.22    2.00
  -1   2 -14   34.51    2.54
   1  -2  14   39.84    2.84
   1  -2  15   -1.55    0.84
  -1   2 -15   -0.13    0.70
   1  -2  16   27.96    2.50
  -1   2 -16   26.44    2.48
   1  -2  17   39.55    3.07
  -1   2 -17   37.27    3.11
   1  -2  18   -0.26    1.01
  -1   2 -18    5.55    1.58
  -1   2 -19    2.02    1.07
  -1   2 -19   -1.45    1.31
  -1   1  18    1.91    1.12
   1  -1 -18    1.25    1.09
   1  -1 -17   12.66    1.51
  -1   1  17   11.29    2.13
   1  -1 -17   14.50    2.11
   1  -1 -16    8.61    1.23
  -1   1  16    7.41    1.54
   1  -1 -16   10.39    1.79
   1  -1 -15   13.63    1.42
   1  -1 -15   13.61    2.00
  -1   1  15   12.20    1.94
   1  -1 -14    3.14    0.79
   1  -1 -14    4.12    1.20
  -1   1  14    3.64    1.17
   1  -1 -13   15.48    1.64
   1  -1 -13   17.28    1.92
   1  -1 -13   18.08    1.49
  -1   1  13   17.67    2.02
   1  -1 -12    4.46    0.77
   1  -1 -12    4.31    1.14
  -1   1  12    4.38    1.14
   1  -1 -11    0.02    0.51
  -1   1  11    0.63    0.84
   1  -1 -11    0.44    0.71
   1  -1 -11    0.80    0.75
   1  -1 -10    1.34    0.54
   1  -1 -10    1.99    0.72
  -1   1  10    1.83    0.86
  -1   1   9  206.02    6.22
   1  -1  -9  197.05    4.99
   1  -1  -9  210.97    6.26
   1  -1  -8   51.29    1.88
   1  -1  -8   50.70    2.56
  -1   1   8   55.89    2.72
  -1   1   7   -0.09    0.65
   1  -1  -7    0.57    0.39
   1  -1  -7    0.70    1.03
   1  -1  -6  142.48    4.29
  -1   1   6  143.66    4.36
   1  -1  -6  137.22    3.25
   1  -1  -5    1.29    0.32
   1  -1  -5    0.58    0.64
  -1   1   5    1.17    0.61
  -1   1   4   11.57    1.12
   1  -1  -4   11.18    1.10
  -1   1   3  334.97    7.04
   1  -1  -3  294.91    6.97
  -1   1   2  135.87    2.92
   1  -1  -2  135.91    2.89
  -1   1   2  145.62    3.65
  -1   1   1  406.28    7.83
   1  -1  -1  394.18    7.77
   1  -1   0    5.44    0.58
  -1   1   0    4.28    0.54
   1  -1   1   59.12    1.59
   1  -1   1   61.65    1.99
  -1   1  -1   62.88    2.00
   1  -1   2  196.11    4.73
  -1   1  -2  200.13    4.74
   1  -1   3  393.68    8.52
  -1   1  -3  401.09    8.53
  -1   1  -4    8.63    0.95
   1  -1   4    5.69    0.83
   1  -1   5  589.21   12.87
  -1   1  -5  638.26   13.07
  -1   1  -5  650.37   13.19
  -1   1  -6  240.81    6.55
   1  -1   6  288.73    6.56
  -1   1  -6  235.00    6.38
  -1   1  -7   25.85    1.68
  -1   1  -7   20.40    1.62
   1  -1   7   21.60    1.53
  -1   1  -8  442.96   10.20
  -1   1  -8  448.16   10.65
  -1   1  -8  436.27    9.84
   1  -1   8  425.83   10.10
  -1   1  -9    0.51    0.28
  -1   1  -9    0.87    0.54
   1  -1   9    0.34    0.57
  -1   1  -9    2.21    0.74
  -1   1  -9   -0.02    0.54
  -1   1 -10   51.51    2.96
  -1   1 -10   52.69    2.59
  -1   1 -10   60.99    2.89
  -1   1 -10   49.13    1.86
   1  -1  10   51.63    2.66
   1  -1  11   29.71    2.03
  -1   1 -11   28.04    1.40
  -1   1 -11   24.51    1.81
  -1   1 -12    0.11    0.37
  -1   1 -12    0.07    0.62
   1  -1  12    0.92    0.58
  -1   1 -13   -0.04    0.70
  -1   1 -13    0.53    0.45
   1  -1  13    0.93    0.67
  -1   1 -14    2.00    0.95
   1  -1  14   -1.23    0.72
  -1   1 -14   -0.34    0.42
  -1   1 -15    0.91    0.96
   1  -1  15    0.73    0.67
   1  -1  16    3.10    0.96
  -1   1 -16    6.22    1.50
  -1   1 -17    3.97    1.26
   1  -1  17    5.39    1.25
   1  -1  18    0.36    0.79
  -1   1 -18    0.43    0.93
  -1   1 -19    7.23    1.45
  -1   1 -20   13.10    2.10
   1   0 -18   23.42    2.25
   1   0 -18   24.01    2.76
  -1   0  18   20.88    2.62
  -1   0  17   68.71    4.65
   1   0 -17   67.64    4.42
   1   0 -17   65.76    3.68
   1   0 -16    4.39    1.12
   1   0 -16    4.79    1.37
  -1   0  16    7.18    1.72
   1   0 -15    3.66    1.30
   1   0 -15    7.66    1.22
  -1   0  15    4.09    1.24
   1   0 -14   77.41    3.76
  -1   0  14   75.20    4.28
   1   0 -14   75.88    4.23
   1   0 -14   75.33    3.53
  -1   0  13   64.49    3.76
   1   0 -13   64.69    3.31
   1   0 -13   60.19    3.00
   1   0 -12    9.01    1.14
  -1   0  12    9.49    1.52
   1   0 -12    7.75    1.12
   1   0 -11  213.14    6.82
  -1   0  11  208.13    6.75
   1   0 -11  207.11    6.24
   1   0 -11  197.81    5.78
   1   0 -10  219.25    5.25
   1   0 -10  241.32    7.02
   1   0 -10  221.48    6.36
  -1   0  10  227.32    6.88
   1   0 -10  219.35    5.96
   1   0  -9  296.97    8.03
   1   0  -9  297.80    6.47
  -1   0   9  306.47    8.06
   1   0  -9  292.51    7.59
   1   0  -9  286.95    7.10
   1   0  -8   56.46    1.82
  -1   0   8   54.69    2.69
   1   0  -8   50.79    2.40
   1   0  -8   55.93    2.70
   1   0  -8   51.98    2.17
   1   0  -7  326.42    7.94
  -1   0   7  326.93    7.92
   1   0  -7  373.75    7.90
   1   0  -7  298.20    6.48
   1   0  -7  310.59    7.11
   1   0  -6  203.02    5.19
   1   0  -6  244.65    5.31
  -1   0   6  214.97    5.34
   1   0  -6  198.05    4.53
   1   0  -5  132.03    2.94
   1   0  -5  138.19    3.88
  -1   0   5  147.34    4.04
   1   0  -5  137.22    3.92
   1   0  -5  137.41    3.44
   1   0  -4   45.91    1.90
  -1   0   4   45.76    1.92
   1   0  -4   41.28    1.88
   1   0  -4   47.89    1.24
   1   0  -4   44.75    1.52
   1   0  -3 1461.92   27.03
   1   0  -3 1455.48   27.06
  -1   0   3 1502.13   27.00
  -1   0   3 1411.53   26.43
  -1   0   2  170.89    3.97
  -1   0   2  156.29    3.94
   1   0  -2  160.56    3.96
   1   0  -2  174.02    3.99
   1   0  -1  233.62    5.02
  -1   0   1  229.01    5.02
  -1   0   0  239.46    4.94
   1   0   0  233.21    4.93
  -1   0  -1  358.50    6.95
   1   0   1  356.68    6.96
  -1   0  -2  675.29   12.49
   1   0   2  671.36   12.48
   1   0   3   68.05    1.84
  -1   0  -3   68.42    1.83
   1   0   3   66.43    1.72
   1   0   3   71.60    2.27
  -1   0  -3   70.41    1.74
  -1   0  -4 9972.75  177.17
   1   0   4 9930.29  177.72
  -1   0  -4 9999.00  177.80
  -1   0  -4 9927.57  176.82
  -1   0  -5  143.61    3.69
  -1   0  -5  144.58    4.16
   1   0   5  143.89    4.02
  -1   0  -6   33.90    1.58
  -1   0  -6   32.18    1.88
   1   0   6   34.20    1.78
  -1   0  -7    1.32    0.78
   1   0   7    2.22    0.71
  -1   0  -7    2.18    0.69
   1   0   8 1152.77   22.86
  -1   0  -8 1175.85   23.55
  -1   0  -8 1162.33   22.84
   1   0   9  722.76   15.08
  -1   0  -9  702.98   15.16
  -1   0  -9  722.93   15.83
  -1   0 -10  107.43    4.31
  -1   0 -10   98.72    3.81
   1   0  10   99.15    3.63
   1   0  11   84.54    3.49
  -1   0 -11   87.61    4.01
  -1   0 -11   84.59    3.63
  -1   0 -12  164.98    5.66
   1   0  12  164.17    5.38
  -1   0 -13  152.18    5.64
   1   0  13  155.31    5.24
   1   0  14   18.71    1.71
  -1   0 -14   18.79    1.44
  -1   0 -14   20.08    2.03
   1   0  15  101.92    4.29
  -1   0 -15   97.14    4.67
  -1   0 -15   98.54    3.72
   1   0  16   80.83    3.89
  -1   0 -16   80.26    4.36
  -1   0 -17   28.30    2.66
   1   0  17   26.74    2.29
  -1   0 -18    7.32    1.51
   1   0  18    7.86    1.39
  -1   0 -19   16.99    2.24
  -1   0 -20    6.61    1.73
  -1  -1  18   16.63    2.48
   1   1 -18   14.76    2.03
   1   1 -18   17.93    2.46
   1   1 -17   10.23    1.83
   1   1 -17    7.32    1.33
  -1  -1  17    7.88    1.99
  -1  -1  16    9.96    1.87
   1   1 -16    9.98    1.47
   1   1 -16   11.18    1.81
   1   1 -15    0.99    0.82
   1   1 -15    3.53    0.90
  -1  -1  15    2.10    1.18
  -1  -1  14   29.03    2.74
   1   1 -14   31.53    2.26
   1   1 -14   30.32    2.38
   1   1 -13    0.30    0.57
  -1  -1  13    0.32    0.82
   1   1 -13    1.67    0.62
   1   1 -13    0.76    0.72
   1   1 -12   78.79    3.08
   1   1 -12   81.29    3.54
  -1  -1  12   79.99    4.09
   1   1 -12   81.28    3.62
   1   1 -11    3.35    0.87
  -1  -1  11    2.48    0.87
   1   1 -11    2.80    0.90
   1   1 -11    3.14    0.82
   1   1 -11    3.13    0.69
   1   1 -10  190.11    5.66
   1   1 -10  199.13    6.30
   1   1 -10  197.30    5.15
  -1  -1  10  192.29    6.21
   1   1 -10  184.41    5.67
   1   1  -9   54.80    2.82
  -1  -1   9   60.26    2.95
   1   1  -9   52.34    2.15
   1   1  -9   59.88    2.64
   1   1  -9   57.27    2.65
   1   1  -8   27.87    1.84
   1   1  -8   26.76    1.37
  -1  -1   8   27.73    1.89
   1   1  -8   26.27    1.69
   1   1  -8   26.21    1.66
   1   1  -7  113.65    3.91
   1   1  -7  114.67    3.22
   1   1  -7  115.24    3.68
  -1  -1   7  116.91    3.95
   1   1  -7  117.47    3.71
   1   1  -6  162.22    3.93
   1   1  -6  153.77    4.55
   1   1  -6  152.55    4.36
  -1  -1   6  160.24    4.59
   1   1  -6  156.73    4.37
   1   1  -5    2.39    0.66
  -1  -1   5    3.88    0.78
   1   1  -5    2.13    0.59
   1   1  -5    2.78    0.50
   1   1  -5    2.68    0.65
   1   1  -4   17.74    1.18
  -1  -1   4   20.75    1.22
   1   1  -4   22.11    1.25
  -1  -1   4   18.09    1.19
  -1  -1   4   19.60    1.17
   1   1  -4   19.27    1.13
  -1  -1   3   34.92    1.46
   1   1  -3   34.02    1.49
  -1  -1   3   30.87    1.49
   1   1  -3   32.38    1.41
   1   1  -3   29.44    1.25
  -1  -1   3   33.42    1.44
   1   1  -2  580.08   11.27
   1   1  -2  572.23   11.09
  -1  -1   2  558.06   11.20
  -1  -1   2  573.69   11.04
  -1  -1   2  582.95   11.32
  -1  -1   1   12.95    0.71
   1   1  -1   12.67    0.87
  -1  -1   1   12.63    0.87
  -1  -1   0  640.55   12.13
   1   1   0  622.74   12.12
  -1  -1  -1  913.80   17.04
   1   1   1  909.99   17.03
   1   1   2  146.00    3.36
  -1  -1  -2  135.49    3.31
  -1  -1  -3   22.16    1.13
  -1  -1  -3   17.37    0.99
  -1  -1  -4   57.57    1.89
  -1  -1  -4   60.88    2.18
   1   1   4   57.17    1.97
  -1  -1  -5  584.25   11.80
  -1  -1  -5  585.01   12.11
   1   1   5  574.64   11.77
  -1  -1  -6    0.29    0.57
   1   1   6    0.13    0.55
   1   1   6    1.11    0.69
   1   1   6    0.19    0.53
  -1  -1  -6   -0.32    0.63
  -1  -1  -7    0.72    0.62
   1   1   7    1.02    0.71
   1   1   7    0.78    0.51
  -1  -1  -7    1.63    0.66
  -1  -1  -8   16.82    1.40
   1   1   8   16.37    1.31
  -1  -1  -8   15.45    1.43
   1   1   8   16.12    1.56
  -1  -1  -9   79.58    3.21
  -1  -1  -9   82.89    3.49
   1   1   9   79.11    3.04
   1   1   9   79.23    3.50
   1   1  10  245.50    6.49
  -1  -1 -10  236.53    6.74
  -1  -1 -10  240.31    7.14
   1   1  10  235.17    7.16
  -1  -1 -11    1.88    0.81
   1   1  11    1.40    0.55
   1   1  11    1.28    0.85
  -1  -1 -11    1.78    0.82
  -1  -1 -12   14.62    1.62
   1   1  12   15.31    1.81
   1   1  12   13.83    1.35
   1   1  13   33.08    2.11
  -1  -1 -13   32.08    2.43
   1   1  13   28.57    2.48
   1   1  14    0.09    0.56
  -1  -1 -14    1.17    0.96
  -1  -1 -15    0.64    0.93
   1   1  15    0.95    0.55
   1   1  16   31.09    2.24
  -1  -1 -16   27.13    2.60
  -1  -1 -17    7.75    1.54
   1   1  17    9.62    1.29
  -1  -1 -18   17.97    2.36
   1   1  18   14.67    1.78
  -1  -1 -19    0.47    1.20
   1   2 -19    8.85    1.76
   1   2 -18   73.02    4.84
  -1  -2  18   69.12    4.81
   1   2 -18   75.49    4.49
  -1  -2  17   13.46    2.26
   1   2 -17   12.01    1.96
   1   2 -16    1.46    0.99
  -1  -2  16    1.00    0.91
  -1  -2  15   81.02    4.66
   1   2 -15   80.40    4.32
  -1  -2  14   21.12    2.40
   1   2 -14   21.07    1.81
   1   2 -14   19.86    1.80
   1   2 -14   21.62    2.17
   1   2 -13   24.01    1.85
  -1  -2  13   23.17    2.36
   1   2 -13   23.03    2.14
   1   2 -13   22.51    1.81
   1   2 -12    1.67    0.67
  -1  -2  12    1.55    0.81
   1   2 -12    1.56    0.75
   1   2 -12    0.66    0.53
  -1  -2  11  180.68    6.41
   1   2 -11  190.13    6.28
   1   2 -11  192.22    6.46
   1   2 -11  187.56    5.67
   1   2 -11  204.20    5.73
   1   2 -10  286.73    8.19
   1   2 -10  291.05    7.50
  -1  -2  10  293.80    8.37
   1   2 -10  296.06    7.39
   1   2 -10  292.15    8.07
   1   2  -9   12.18    1.37
  -1  -2   9   14.64    1.51
   1   2  -9   14.57    1.45
   1   2  -9   14.66    1.27
   1   2  -9   13.16    1.17
   1   2  -8  131.31    4.13
   1   2  -8  146.46    4.72
  -1  -2   8  131.05    4.55
   1   2  -8  139.19    4.64
   1   2  -8  142.73    4.18
   1   2  -7  165.62    4.60
  -1  -2   7  169.97    5.04
   1   2  -7  173.42    5.07
   1   2  -7  168.01    4.69
   1   2  -7  174.24    5.19
  -1  -2   6  274.04    6.53
  -1  -2   6  283.77    6.77
   1   2  -6  286.30    6.53
   1   2  -6  280.96    6.77
   1   2  -6  284.43    7.00
  -1  -2   5   34.87    1.71
  -1  -2   5   34.94    1.74
   1   2  -5   33.10    1.63
   1   2  -5   35.39    1.64
   1   2  -5   33.82    1.65
   1   2  -5   33.85    1.84
   1   2  -4   82.21    2.65
  -1  -2   4   81.27    2.68
  -1  -2   4   82.70    2.60
  -1  -2   4   77.26    2.76
   1   2  -4   79.89    2.57
   1   2  -4   80.90    2.82
   1   2  -3  447.20    9.01
  -1  -2   3  452.45    9.01
   1   2  -3  440.09    9.29
  -1  -2   3  451.12    9.30
  -1  -2   3  436.17    9.51
   1   2  -3  447.61    9.52
  -1  -2   2    9.09    0.65
   1   2  -2    8.93    0.64
  -1  -2   2    7.69    0.87
   1   2  -2    8.78    0.93
  -1  -2   2    8.83    0.87
   1   2  -2    7.12    0.85
  -1  -2   1   22.79    1.25
   1   2  -1   20.98    0.81
  -1  -2   1   21.76    1.24
  -1  -2   1   22.47    0.80
   1   2  -1   22.91    1.20
  -1  -2   0    6.36    0.76
   1   2   0    6.36    0.73
  -1  -2  -1  432.30    8.80
   1   2   1  419.90    8.75
  -1  -2  -2  476.00    9.60
   1   2   2  465.19    9.58
  -1  -2  -2  467.02    9.02
  -1  -2  -3  207.01    4.98
  -1  -2  -3  211.08    4.71
   1   2   4   13.47    1.03
  -1  -2  -4   15.34    1.09
  -1  -2  -4   15.09    0.99
   1   2   5   45.97    2.01
  -1  -2  -5   45.09    1.95
   1   2   5   49.98    2.08
   1   2   6    7.23    1.02
   1   2   6    8.54    0.97
  -1  -2  -6    9.49    0.99
   1   2   7    0.47    0.65
  -1  -2  -7    0.76    0.60
   1   2   7    1.50    0.61
   1   2   8  421.81    9.96
  -1  -2  -8  421.72    9.92
  -1  -2  -8  436.03   10.07
   1   2   8  420.39   10.09
  -1  -2  -9  251.91    6.91
   1   2   9  247.68    6.33
   1   2   9  245.51    7.03
  -1  -2  -9  251.15    7.01
  -1  -2 -10   35.33    2.35
  -1  -2 -10   41.30    2.44
   1   2  10   37.33    2.44
   1   2  10   35.81    1.99
  -1  -2 -11    5.46    1.06
   1   2  11    3.70    0.99
   1   2  11    3.91    0.71
  -1  -2 -11    4.68    1.07
   1   2  12   63.38    2.86
  -1  -2 -12   67.80    3.46
   1   2  12   63.94    3.55
  -1  -2 -13   78.00    3.91
   1   2  13   77.95    3.27
   1   2  13   78.84    4.16
   1   2  14    2.49    0.76
  -1  -2 -14    4.63    1.29
   1   2  14    2.05    1.08
   1   2  15   46.91    3.45
  -1  -2 -15   53.42    3.49
   1   2  15   45.77    2.62
   1   2  16   31.17    2.18
   1   2  16   25.07    2.68
  -1  -2 -16   31.55    2.78
   1   2  17    6.32    1.05
  -1  -2 -17    9.04    1.70
  -1  -2 -18    2.01    1.20
   1   3 -19    8.78    1.74
   1   3 -18   11.69    1.98
   1   3 -17    0.22    1.08
   1   3 -16    2.12    1.17
  -1  -3  16    4.56    1.53
   1   3 -15    2.36    1.04
  -1  -3  15    0.81    0.95
   1   3 -14    2.47    1.08
  -1  -3  14    1.90    1.02
   1   3 -14    2.82    0.82
   1   3 -14    1.54    0.78
   1   3 -13    0.32    0.74
   1   3 -13    1.80    0.78
  -1  -3  13    1.09    0.81
   1   3 -13    0.69    0.53
   1   3 -12    1.15    0.87
  -1  -3  12   -0.32    0.80
   1   3 -12    0.92    0.70
   1   3 -12   -0.48    0.49
   1   3 -11   30.18    1.91
  -1  -3  11   32.71    2.43
   1   3 -11   29.19    2.01
   1   3 -11   34.15    2.52
   1   3 -10    1.39    0.85
   1   3 -10    0.47    0.47
   1   3 -10    0.37    0.46
   1   3 -10    0.39    0.52
  -1  -3  10    0.32    0.65
   1   3  -9    0.65    0.77
  -1  -3   9    0.27    0.69
   1   3  -9    0.20    0.46
   1   3  -9   -0.07    0.43
   1   3  -9    0.65    0.50
   1   3  -8  199.85    5.88
   1   3  -8  198.78    5.41
   1   3  -8  188.44    5.60
  -1  -3   8  202.79    5.95
   1   3  -8  193.68    6.16
  -1  -3   7   53.25    2.53
   1   3  -7   50.04    2.42
  -1  -3   7   52.06    2.26
   1   3  -7   49.71    2.39
   1   3  -7   52.07    2.25
   1   3  -7   51.40    2.70
   1   3  -6    4.22    0.89
   1   3  -6    2.92    0.61
  -1  -3   6    2.71    0.70
   1   3  -6    4.48    0.74
  -1  -3   6    4.21    0.74
   1   3  -6    4.82    0.75
   1   3  -5   13.00    1.31
   1   3  -5   12.84    1.17
  -1  -3   5   11.36    1.07
   1   3  -5   12.13    0.99
  -1  -3   5   12.16    1.07
   1   3  -5   12.03    1.02
   1   3  -4   40.39    1.69
   1   3  -4   42.22    1.83
  -1  -3   4   36.75    1.66
   1   3  -4   39.49    1.94
  -1  -3   4   39.69    2.05
  -1  -3   4   40.80    1.83
   1   3  -4   40.56    2.15
   1   3  -3  126.38    3.58
  -1  -3   3  128.42    3.63
   1   3  -3  127.89    3.21
  -1  -3   3  125.92    3.96
  -1  -3   3  126.20    3.24
   1   3  -3  119.39    3.92
  -1  -3   2   56.24    2.16
  -1  -3   2   55.22    1.63
   1   3  -2   58.63    2.16
   1   3  -2   54.28    1.60
  -1  -3   2   55.22    2.37
   1   3  -2   57.69    2.38
  -1  -3   1    7.79    0.95
  -1  -3   1    9.46    0.95
   1   3  -1    9.64    0.94
  -1  -3   1    9.06    0.45
   1   3  -1    8.75    1.04
   1   3  -1    8.83    0.45
  -1  -3   0  198.00    4.95
  -1  -3   0  198.02    5.04
   1   3   0  198.79    4.95
   1   3   1   91.58    2.94
  -1  -3  -1   89.68    2.90
  -1  -3  -2  147.90    4.11
  -1  -3  -2  148.27    3.17
  -1  -3  -3   91.81    2.42
   1   3   3   93.42    2.46
  -1  -3  -3   90.35    3.06
   1   3   4    0.48    0.46
  -1  -3  -4    1.72    0.75
  -1  -3  -4    0.66    0.43
  -1  -3  -5    0.63    0.45
   1   3   5    0.82    0.53
  -1  -3  -6   20.96    1.35
   1   3   6   19.72    1.47
   1   3   6   17.77    1.35
  -1  -3  -7    6.52    0.88
   1   3   7    4.21    0.81
   1   3   7    4.62    0.87
   1   3   8   26.10    1.84
  -1  -3  -8   24.75    1.70
   1   3   8   23.25    1.74
  -1  -3  -9   55.25    2.76
   1   3   9   56.81    2.89
   1   3   9   55.13    2.79
  -1  -3 -10   10.43    1.29
   1   3  10    9.40    1.34
  -1  -3 -11   13.83    1.54
   1   3  11   12.96    1.22
   1   3  11   13.03    1.65
   1   3  12   32.22    2.53
   1   3  12   31.27    1.94
   1   3  13   98.09    3.70
   1   3  13   96.92    4.65
   1   3  14   -0.37    0.58
   1   3  14    1.08    0.89
   1   3  15    0.47    0.51
   1   3  15    1.55    1.15
   1   3  16    0.34    0.50
   1   3  16    0.60    0.88
   1   3  17   24.45    2.76
   1   3  17   25.40    1.91
   1   4 -18   16.07    2.28
   1   4 -17   31.03    3.09
   1   4 -16   19.11    2.43
   1   4 -15   19.73    2.36
   1   4 -14   57.35    3.91
   1   4 -13  105.64    5.16
   1   4 -13   91.30    3.84
   1   4 -12    1.91    0.83
  -1  -4  12    1.24    0.85
   1   4 -12    0.90    0.58
   1   4 -11  127.44    4.38
  -1  -4  11  128.05    5.14
   1   4 -11  143.97    5.17
   1   4 -11  133.15    5.56
   1   4 -10  123.45    4.22
   1   4 -10  129.15    4.91
  -1  -4  10  127.17    4.88
   1   4 -10  129.36    5.31
   1   4 -10  128.06    4.84
   1   4  -9   14.52    1.68
   1   4  -9   15.15    1.26
  -1  -4   9   13.30    1.47
   1   4  -9   15.07    1.46
   1   4  -9   13.57    1.42
   1   4  -8   77.46    3.39
   1   4  -8   73.13    2.87
   1   4  -8   70.78    3.15
  -1  -4   8   73.15    2.90
  -1  -4   8   75.40    3.25
   1   4  -8   78.26    3.78
   1   4  -7  174.37    5.46
  -1  -4   7  166.12    4.84
   1   4  -7  178.92    5.16
  -1  -4   7  163.06    5.04
   1   4  -7  169.40    4.81
   1   4  -7  175.16    5.88
  -1  -4   6  298.83    7.27
  -1  -4   6  301.98    7.39
   1   4  -6  319.99    8.08
   1   4  -6  297.60    7.32
   1   4  -6  320.58    8.41
   1   4  -6  294.25    7.23
   1   4  -5    2.73    0.56
   1   4  -5    2.87    0.90
  -1  -4   5    2.91    0.64
   1   4  -5    3.29    0.67
  -1  -4   5    3.63    0.70
   1   4  -5    3.15    0.73
   1   4  -4  140.26    3.80
   1   4  -4  149.40    4.23
  -1  -4   4  147.01    4.20
   1   4  -4  143.41    4.56
   1   4  -4  148.73    4.83
  -1  -4   3  280.58    6.71
   1   4  -3  278.40    6.68
   1   4  -3  275.88    5.98
  -1  -4   3  282.12    7.33
   1   4  -3  283.00    7.31
  -1  -4   2  676.99   13.67
   1   4  -2  681.94   13.72
   1   4  -2  651.08   12.53
  -1  -4   2  673.22   14.28
   1   4  -2  676.00   14.26
   1   4  -1  269.68    6.58
  -1  -4   1  279.55    6.61
  -1  -4   1  278.20    6.98
   1   4  -1  262.44    6.84
  -1  -4   0  654.51   13.49
   1   4   0  655.94   13.52
  -1  -4   0  646.90   13.66
  -1  -4  -1  832.99   16.77
  -1  -4  -1  829.72   16.77
  -1  -4  -2  572.18   12.30
   1   4   2  572.72   10.71
  -1  -4  -2  580.76   10.71
  -1  -4  -2  574.84   12.08
  -1  -4  -3   20.22    0.92
  -1  -4  -3   21.04    1.56
   1   4   3   22.44    1.00
  -1  -4  -4  265.08    6.81
  -1  -4  -4  258.35    5.81
   1   4   4  271.42    5.91
  -1  -4  -5  321.95    7.29
   1   4   5  334.81    7.38
   1   4   6    7.04    1.08
   1   4   6    5.56    0.83
  -1  -4  -6    5.43    0.86
   1   4   7  119.38    3.97
   1   4   7  121.14    4.30
  -1  -4  -7  120.64    3.88
   1   4   8  137.04    4.75
  -1  -4  -8  138.45    4.45
   1   4   8  128.73    4.44
  -1  -4  -9    9.83    1.16
   1   4   9    8.53    1.17
   1   4   9    7.51    1.17
   1   4  10    8.23    1.24
   1   4  10    9.10    1.25
  -1  -4 -10    7.36    1.12
   1   4  11  182.97    6.26
  -1  -4 -11  191.31    6.30
   1   4  12  212.45    7.08
   1   4  13    2.16    0.98
   1   4  13    1.20    0.51
   1   4  14    9.64    1.13
   1   4  14   10.38    1.66
   1   4  15  122.32    4.45
   1   4  15  125.91    5.81
   1   4  16   17.99    1.61
   1   4  16   14.73    2.14
   1   4  17    7.15    1.71
   1   4  18   11.19    2.09
   1   5 -16    2.08    1.08
   1   5 -15    5.31    1.35
   1   5 -14   16.46    2.22
   1   5 -13    3.05    1.07
   1   5 -12    0.54    1.03
   1   5 -11   20.13    2.25
   1   5 -11   15.57    1.38
   1   5 -10   -0.14    0.84
   1   5 -10    1.02    0.57
   1   5 -10   -0.80    0.69
   1   5  -9    4.81    1.19
   1   5  -9    6.48    0.95
  -1  -5   9    6.05    0.93
   1   5  -9    4.51    0.90
   1   5  -8   38.93    2.29
  -1  -5   8   42.95    2.21
   1   5  -8   41.96    2.17
   1   5  -8   41.64    2.85
   1   5  -8   44.74    2.71
   1   5  -7    0.78    0.54
   1   5  -7   -0.34    0.78
   1   5  -7   -0.46    0.70
   1   5  -7    0.01    0.47
  -1  -5   7    1.21    0.57
   1   5  -6   29.50    1.74
   1   5  -6   27.67    2.10
  -1  -5   6   28.99    1.75
   1   5  -6   29.57    2.30
   1   5  -6   27.98    1.66
  -1  -5   5   89.39    3.21
   1   5  -5   90.60    3.22
   1   5  -5   85.49    3.71
   1   5  -5   81.74    2.87
   1   5  -5   86.17    3.83
  -1  -5   4   80.76    3.07
   1   5  -4   87.13    3.14
   1   5  -4   82.11    2.61
   1   5  -4   84.44    3.57
   1   5  -4   82.17    3.63
   1   5  -3   22.58    1.85
   1   5  -3   20.84    1.44
  -1  -5   3   20.35    1.48
   1   5  -3   19.77    1.64
   1   5  -3   19.43    1.00
  -1  -5   3   20.23    1.69
   1   5  -2  228.23    6.02
  -1  -5   2  228.64    5.98
   1   5  -2  221.63    4.72
  -1  -5   2  237.94    6.61
   1   5  -2  232.00    6.58
   1   5  -1   58.00    2.79
  -1  -5   1   57.52    2.53
   1   5  -1   57.81    2.53
  -1  -5   1   59.89    2.81
  -1  -5   0   94.32    3.44
  -1  -5   0   97.15    3.62
  -1  -5  -1   99.62    3.58
  -1  -5  -1   98.88    3.58
  -1  -5  -2   14.44    1.27
   1   5   2   14.36    0.59
  -1  -5  -2   15.24    1.41
  -1  -5  -3  491.65   11.25
   1   5   3  488.27    9.55
  -1  -5  -3  493.14    9.58
  -1  -5  -3  494.33   10.90
  -1  -5  -4  148.08    4.80
   1   5   4  143.90    3.65
  -1  -5  -4  148.25    3.65
   1   5   5    0.37    0.42
  -1  -5  -5    0.88    0.76
  -1  -5  -5    0.52    0.39
  -1  -5  -6   14.82    1.12
   1   5   6   15.97    1.19
   1   5   7   82.19    3.58
  -1  -5  -7   81.70    3.07
   1   5   7   85.25    3.14
  -1  -5  -8   63.25    2.84
   1   5   8   67.55    3.29
   1   5   8   63.29    2.87
   1   5   9   40.22    2.59
   1   5   9   37.25    2.31
  -1  -5  -9   37.51    2.25
   1   5  10   91.23    4.01
  -1  -5 -10  105.37    4.14
   1   5  11   71.93    3.54
  -1  -5 -11   63.02    3.31
   1   5  12  119.75    5.00
   1   5  13    6.09    1.22
   1   5  14   24.54    1.80
   1   5  14   19.46    2.19
   1   5  15   31.20    2.10
   1   5  15   27.79    2.74
   1   5  16    0.13    0.89
   1   5  16    1.73    0.69
   1   5  17    2.96    1.34
   1   5  18   -1.38    1.14
   1   6 -15   41.83    3.74
   1   6 -14   34.07    3.33
   1   6 -13    0.33    1.02
   1   6 -12   17.84    2.33
   1   6 -11   94.47    5.07
   1   6 -10   21.71    2.46
   1   6 -10   20.39    1.87
  -1  -6  10   19.88    1.54
   1   6 -10   23.12    1.66
   1   6  -9   27.39    2.02
   1   6  -9   28.01    1.84
  -1  -6   9   24.83    1.78
   1   6  -9   31.31    2.74
   1   6  -8   79.23    3.41
   1   6  -8   79.38    3.25
  -1  -6   8   87.34    3.41
   1   6  -8   85.09    4.42
  -1  -6   7  108.70    3.84
   1   6  -7  102.84    3.78
   1   6  -7  100.84    3.72
   1   6  -7  104.04    4.83
   1   6  -6    0.91    0.50
   1   6  -6    2.37    1.00
   1   6  -6    1.45    0.62
  -1  -6   6    0.79    0.48
   1   6  -5    4.92    0.67
   1   6  -5    5.90    0.89
  -1  -6   5    5.30    0.88
   1   6  -5    6.90    1.26
   1   6  -5    7.03    1.17
   1   6  -4   85.56    2.72
   1   6  -4   88.48    3.41
  -1  -6   4   88.91    3.41
   1   6  -4   89.27    4.07
   1   6  -4   90.78    4.00
   1   6  -3   83.01    2.42
  -1  -6   3   81.73    3.33
   1   6  -3   89.70    3.87
   1   6  -3   86.35    3.36
   1   6  -3   88.88    3.94
   1   6  -2    0.40    0.26
  -1  -6   2    0.90    0.64
   1   6  -2    0.42    0.76
   1   6  -2    0.31    0.50
  -1  -6   2    0.08    0.54
  -1  -6   1  158.46    5.05
   1   6  -1  168.66    5.53
  -1  -6   1  177.42    5.64
  -1  -6   0  198.84    5.85
  -1  -6   0  201.20    6.13
  -1  -6  -1   50.57    2.59
  -1  -6  -1   50.78    2.65
  -1  -6  -2    9.98    1.17
  -1  -6  -2   11.68    1.32
   1   6   2   10.13    0.47
   1   6   3  110.72    2.73
  -1  -6  -3  121.07    4.34
  -1  -6  -3  114.17    4.01
  -1  -6  -4  407.76    9.65
   1   6   4  406.83    8.39
  -1  -6  -4  409.31   10.24
   1   6   5   16.45    1.07
  -1  -6  -5   16.14    1.66
  -1  -6  -5   16.63    1.09
  -1  -6  -5   15.69    1.34
  -1  -6  -6    9.83    1.13
   1   6   6   10.29    0.98
  -1  -6  -6   13.16    1.54
  -1  -6  -6    9.98    0.91
  -1  -6  -7   65.14    2.70
   1   6   7   74.27    3.52
   1   6   7   69.36    2.79
   1   6   8   13.72    1.31
   1   6   8   13.35    1.60
  -1  -6  -8   12.34    1.22
   1   6   9   17.27    1.57
  -1  -6  -9   15.96    1.44
   1   6  10   93.68    3.99
  -1  -6 -10   94.30    3.88
  -1  -6 -11  155.14    5.46
   1   6  11  151.75    5.56
   1   6  12   79.16    3.98
   1   6  13   16.14    1.95
   1   6  14  130.58    5.76
   1   6  15   51.73    3.67
   1   6  16    9.36    1.73
   1   6  17    8.44    1.69
   1   6  18   29.98    3.05
   1   7 -13   24.28    2.87
   1   7 -12   39.90    3.46
   1   7 -11   19.58    2.51
   1   7 -10    8.05    1.75
  -1  -7  10    6.73    0.99
   1   7  -9  204.86    7.77
   1   7  -9  185.49    5.76
   1   7  -9  188.39    6.13
  -1  -7   9  199.24    5.88
   1   7  -8    3.47    1.26
   1   7  -8    2.65    0.72
  -1  -7   8    2.98    0.79
   1   7  -8    1.82    0.65
   1   7  -7   -0.87    1.05
   1   7  -7    0.39    0.53
  -1  -7   7    0.81    0.52
   1   7  -7    1.04    0.53
   1   7  -6    6.20    0.83
   1   7  -6    6.79    1.06
   1   7  -6    7.93    1.43
  -1  -7   6    5.99    0.97
  -1  -7   5   37.93    2.27
   1   7  -5   42.38    1.92
   1   7  -5   41.43    2.36
   1   7  -5   42.49    3.04
   1   7  -4   49.60    1.92
  -1  -7   4   45.10    2.52
   1   7  -4   54.62    3.33
   1   7  -3   54.10    1.81
  -1  -7   3   58.62    2.85
   1   7  -3   55.60    3.30
  -1  -7   2  122.61    4.44
   1   7  -2  125.85    2.91
   1   7  -2  140.94    5.25
  -1  -7   1    4.71    0.98
   1   7  -1    8.51    1.35
  -1  -7   1    4.67    0.92
  -1  -7   0    2.56    0.84
  -1  -7   0    2.86    0.89
  -1  -7  -1   25.09    1.98
  -1  -7  -1   28.08    2.05
  -1  -7  -2  316.06    8.69
  -1  -7  -2  326.47    8.74
  -1  -7  -3  167.26    5.46
  -1  -7  -3  165.13    5.65
   1   7   3  159.08    3.59
  -1  -7  -4    0.73    0.61
  -1  -7  -4    1.14    0.82
   1   7   4    0.24    0.32
  -1  -7  -5  113.48    4.66
   1   7   5  112.63    3.28
  -1  -7  -5  113.59    4.17
  -1  -7  -6    1.61    0.52
  -1  -7  -6    3.03    1.07
  -1  -7  -6    1.13    0.55
   1   7   6    1.13    0.49
  -1  -7  -7    1.53    0.86
   1   7   7    2.36    0.67
  -1  -7  -7    1.87    0.57
  -1  -7  -7    1.63    0.65
  -1  -7  -8   54.81    3.29
   1   7   8   54.94    2.59
  -1  -7  -8   51.01    2.57
  -1  -7  -8   48.16    2.52
   1   7   9   82.50    3.49
  -1  -7  -9   78.00    3.39
   1   7  10   26.84    2.08
  -1  -7 -10   25.70    1.96
   1   7  11   -0.05    0.73
  -1  -7 -11    1.64    0.70
   1   7  12    0.15    0.72
   1   7  13   -0.31    0.83
   1   7  14   15.55    2.01
   1   7  15    1.42    1.02
   1   7  16   10.72    1.91
   1   7  17   11.70    1.99
   1   7  18    0.52    1.04
   1   8 -11    2.23    1.21
   1   8 -10   -0.90    1.33
  -1  -8   9  115.32    4.31
   1   8  -9  113.81    5.94
  -1  -8   8  156.35    5.22
   1   8  -8  153.44    6.86
  -1  -8   7    2.49    0.69
   1   8  -7    0.77    0.93
  -1  -8   6   12.08    1.40
   1   8  -6   12.42    1.89
   1   8  -6   11.69    1.09
   1   8  -5  128.38    3.75
  -1  -8   5  121.07    4.62
   1   8  -5  128.95    5.75
  -1  -8   4  211.89    6.67
   1   8  -4  225.12    5.27
   1   8  -4  236.36    8.02
   1   8  -3  132.83    3.25
  -1  -8   3  132.24    4.87
   1   8  -3  135.12    5.64
   1   8  -2   23.05    0.80
  -1  -8   2   22.06    1.84
   1   8  -2   24.79    2.32
  -1  -8   1  212.98    6.66
  -1  -8   0  173.25    5.92
  -1  -8  -1   13.06    1.57
  -1  -8  -1   12.80    1.59
  -1  -8  -2  104.20    4.49
  -1  -8  -2  113.36    4.63
  -1  -8  -3  531.15   13.18
   1   8   3  528.98   10.04
  -1  -8  -3  523.30   12.85
  -1  -8  -4   12.72    1.48
  -1  -8  -4   15.10    1.77
   1   8   4   14.47    0.87
   1   8   5  157.36    4.12
  -1  -8  -5  156.84    5.97
  -1  -8  -5  159.24    5.51
  -1  -8  -6  104.27    4.77
   1   8   6   97.89    3.21
  -1  -8  -6   97.38    4.05
  -1  -8  -7  412.72   11.41
   1   8   7  412.27    9.38
  -1  -8  -7  390.03   10.06
  -1  -8  -8    9.19    1.17
   1   8   8    9.72    1.17
  -1  -8  -8    8.91    1.57
  -1  -8  -8    8.41    1.18
   1   8   9    4.59    0.97
  -1  -8  -9    3.65    1.25
  -1  -8  -9    5.52    0.99
  -1  -8  -9    4.31    0.94
  -1  -8 -10   40.60    3.14
   1   8  10   38.42    2.52
  -1  -8 -10   38.57    2.47
  -1  -8 -10   38.95    2.35
  -1  -8 -11  174.88    5.48
   1   8  11  173.55    6.04
  -1  -8 -11  158.58    5.78
   1   8  12   54.04    3.32
   1   8  13   12.69    1.73
   1   8  14   80.93    4.47
   1   8  15    3.76    1.29
   1   8  16   18.70    2.31
   1   8  17    3.59    1.31
   1   8  18   87.68    5.36
   1   9  -9   15.29    2.45
   1   9  -8    1.89    1.31
   1   9  -7    2.97    1.27
  -1  -9   7    1.29    0.65
   1   9  -6   -0.27    1.06
  -1  -9   6    0.90    0.68
  -1  -9   5   43.84    2.77
   1   9  -5   48.55    3.61
  -1  -9   4    8.65    1.28
   1   9  -4    9.42    1.69
   1   9  -3    7.11    1.54
  -1  -9   3    5.69    1.11
  -1  -9   2    3.47    0.93
  -1  -9   1    2.78    0.92
  -1  -9   0   74.64    3.83
  -1  -9  -1   74.26    3.88
  -1  -9  -2   68.59    3.72
  -1  -9  -3    3.28    1.03
  -1  -9  -4   44.77    3.13
   1   9   4   42.41    1.45
   1   9   5   30.36    1.42
  -1  -9  -5   29.67    2.57
  -1  -9  -5   28.96    2.25
  -1  -9  -6   32.85    2.82
   1   9   6   33.47    1.68
  -1  -9  -6   32.47    2.39
   1   9   7   92.60    3.29
  -1  -9  -7   84.90    3.95
  -1  -9  -7   92.27    4.79
  -1  -9  -8   12.15    1.48
   1   9   8    9.76    1.09
  -1  -9  -8    9.81    1.81
   1   9   9   21.09    1.73
  -1  -9  -9   20.43    2.32
  -1  -9  -9   21.87    1.87
  -1  -9 -10   49.55    3.69
   1   9  10   51.21    2.85
  -1  -9 -10   45.76    2.68
  -1  -9 -11   17.33    2.33
   1   9  11   15.62    1.74
   1   9  12    3.94    1.06
  -1  -9 -12    3.34    1.50
   1   9  13   -0.56    0.74
  -1  -9 -13    0.82    1.23
   1   9  14   15.77    2.04
  -1  -9 -14   15.93    2.38
   1   9  15   10.26    1.80
  -1  -9 -15    8.75    1.85
   1   9  16    6.81    1.57
   1   9  17   -0.17    1.03
   1  10  -7    2.46    1.28
  -1 -10   6    0.57    0.64
   1  10  -6   -1.74    1.38
   1  10  -5   28.85    3.04
  -1 -10   5   27.01    2.26
   1  10  -4   85.85    4.97
  -1 -10   4   77.70    4.01
  -1 -10   3   30.43    2.52
  -1 -10   2    6.81    1.34
  -1 -10   1   88.09    4.35
  -1 -10   0   42.85    3.03
  -1 -10  -1    0.79    0.76
  -1 -10  -2   19.90    2.19
  -1 -10  -3   12.67    1.80
  -1 -10  -4   74.05    4.26
  -1 -10  -5    2.01    1.11
  -1 -10  -6   75.70    4.47
   1  10   7  126.13    3.92
  -1 -10  -7  121.13    5.90
  -1 -10  -8    3.30    1.34
   1  10   8    2.47    0.65
  -1 -10  -9   14.32    2.18
   1  10   9   13.13    1.32
   1  10  10   47.77    2.76
  -1 -10 -10   48.65    3.78
   1  10  11  119.38    4.79
  -1 -10 -11  118.33    6.18
  -1 -10 -12   -0.11    1.01
   1  10  12    2.81    1.05
  -1 -10 -13   43.99    3.83
   1  10  13   33.97    2.73
  -1 -11   4    0.29    0.75
  -1 -11   3   20.58    2.29
  -1 -11   2   64.55    3.88
  -1 -11   1   34.98    2.88
  -1 -11   0   35.72    2.94
  -1 -11  -1   39.66    3.13
  -1 -11  -2    9.67    1.72
  -1 -11  -3    0.45    0.88
  -1 -11  -4   18.86    2.49
  -1 -11  -5   47.30    3.64
  -1 -11  -6   18.16    2.37
  -1 -11  -7    1.21    1.02
  -1 -11  -8   38.68    3.48
  -1 -11  -9   59.05    4.36
  -1 -11 -10   -0.21    1.00
  -1 -12   2   55.07    3.76
  -1 -12   1   11.20    1.79
  -1 -12   0    0.30    0.97
  -1 -12  -1    8.33    1.66
  -1 -12  -2   46.03    3.58
  -1 -12  -3    1.56    1.17
  -1 -12  -4    2.63    1.25
  -1 -12  -5   16.53    2.25
  -1 -12  -6   34.71    3.35
  -1 -12  -7    2.41    1.47
  -1 -13   0   18.99    2.46
  -1 -13  -1   56.08    4.09
  -1 -13  -2   34.60    3.24
  -1 -13  -3   -1.17    1.02
   2 -12  -5    1.37    1.21
   2 -12  -4    4.69    1.60
   2 -11  -4   29.76    2.90
   2 -11  -3    3.32    1.22
   2 -11  -2   90.14    4.84
  -2  11   1   30.90    2.82
  -2  11   0    4.81    1.32
  -2  11  -1    6.92    1.59
  -2  11  -2   61.60    4.31
  -2  11  -3   22.19    2.67
  -2  10  13    1.74    0.97
  -2  10  12    0.92    0.97
  -2  10  11    2.66    1.23
  -2  10  10   16.82    2.14
  -2  10   9   11.42    1.80
  -2  10   8    2.05    1.07
  -2  10   7   10.42    1.61
  -2  10   6    4.32    1.04
  -2  10   5   12.02    1.58
  -2  10   4    3.99    1.09
  -2  10   3   23.03    2.11
  -2  10   3   21.87    2.12
   2 -10  -2    6.98    1.36
  -2  10   2   10.57    1.50
  -2  10   2   11.80    1.69
   2 -10  -1    0.33    0.77
  -2  10   1    2.50    1.06
  -2  10   1    0.81    0.87
  -2  10   0    5.10    1.32
   2 -10   0    5.77    1.17
  -2  10   0    6.01    1.29
  -2  10  -1    0.96    0.99
   2 -10   1    2.58    0.89
  -2  10  -2    6.39    1.51
  -2  10  -3    4.59    1.62
  -2  10  -4   15.93    2.36
  -2  10  -5   -0.11    1.17
  -2   9  14   11.14    1.89
  -2   9  13   45.41    3.65
  -2   9  12   25.47    2.70
  -2   9  11    0.17    1.17
  -2   9  10   41.91    3.24
  -2   9   9   80.14    4.42
  -2   9   8   38.99    2.99
  -2   9   7   13.45    1.77
  -2   9   6   57.51    3.42
  -2   9   5  114.96    4.92
  -2   9   4   64.80    3.54
  -2   9   3   11.70    1.46
  -2   9   3   12.73    1.64
  -2   9   2  177.03    6.29
  -2   9   2  177.40    6.23
  -2   9   1   85.28    4.11
  -2   9   1   87.46    4.25
  -2   9   0    0.18    0.76
   2  -9   0   -0.95    0.69
  -2   9  -1   23.10    2.32
   2  -9   1   25.41    2.07
   2  -9   2   53.51    2.87
  -2   9  -2   48.40    3.54
  -2   9  -3   96.96    5.16
  -2   9  -4    0.76    1.07
  -2   9  -5   48.09    3.73
  -2   9  -6   39.47    3.58
  -2   9  -7   19.64    2.64
  -2   8  15   22.20    2.76
  -2   8  14   10.95    2.00
  -2   8  13   16.31    2.23
  -2   8  12    0.65    0.91
  -2   8  11   10.02    1.66
  -2   8  10   81.40    4.45
  -2   8   9    2.43    1.04
  -2   8   8    8.86    1.53
  -2   8   7    8.79    1.17
  -2   8   7    6.90    1.33
  -2   8   6   30.32    2.43
  -2   8   6   26.66    2.02
  -2   8   5   80.72    3.73
  -2   8   5   80.85    3.94
  -2   8   5   73.91    3.57
  -2   8   4   27.34    2.05
  -2   8   4   28.32    2.27
  -2   8   4   29.56    1.92
  -2   8   3  104.70    4.15
  -2   8   3  110.42    4.68
  -2   8   3  119.11    4.37
  -2   8   2    9.79    1.20
  -2   8   2   12.63    1.48
  -2   8   2   11.05    1.54
  -2   8   1   16.32    1.74
  -2   8   1   15.89    1.40
  -2   8   0   34.22    2.02
  -2   8   0   42.46    2.87
  -2   8  -1   19.54    1.98
   2  -8   1   18.26    1.64
  -2   8  -1   18.50    1.48
   2  -8   2   25.70    1.87
  -2   8  -2   26.83    2.44
  -2   8  -3   14.49    1.95
   2  -8   3   16.27    1.41
  -2   8  -4    5.63    1.34
   2  -8   4    7.18    0.90
  -2   8  -5   11.79    1.83
  -2   8  -6    3.69    1.43
  -2   8  -7   33.81    3.21
  -2   8  -8   80.59    5.05
  -2   8  -9    5.52    1.58
  -2   7  15    0.47    1.00
  -2   7  14   46.06    3.69
  -2   7  13   79.06    4.69
  -2   7  12   24.25    2.59
  -2   7  11    0.78    0.94
  -2   7  10   32.65    2.75
  -2   7   9   62.24    3.67
  -2   7   9   61.33    2.52
  -2   7   8   40.19    2.83
  -2   7   8   44.19    2.21
  -2   7   7    1.81    0.91
  -2   7   7    0.74    0.52
  -2   7   6  106.79    3.98
  -2   7   6  111.26    4.61
  -2   7   5   18.34    1.68
  -2   7   5   18.41    1.60
  -2   7   5   23.17    2.05
  -2   7   4    0.70    0.54
  -2   7   4    0.09    0.75
  -2   7   4    0.19    0.58
  -2   7   4    0.53    0.63
  -2   7   3  182.27    6.09
  -2   7   3  166.12    5.72
  -2   7   3  176.61    5.41
  -2   7   3  181.05    5.38
  -2   7   2  242.18    7.39
  -2   7   2  266.28    7.22
  -2   7   2  238.87    6.61
  -2   7   1    0.29    0.58
  -2   7   1   -0.17    0.54
  -2   7   0   75.18    2.88
  -2   7   0   79.31    3.68
  -2   7  -1  144.67    5.34
  -2   7  -1  133.73    4.08
   2  -7   2  206.70    5.88
  -2   7  -2  209.80    6.99
   2  -7   3   33.92    1.87
  -2   7  -3   34.11    2.68
  -2   7  -4    1.05    0.90
   2  -7   4    0.47    0.38
   2  -7   5  281.56    6.37
  -2   7  -5  289.18    9.18
  -2   7  -6  112.07    5.39
  -2   7  -7    6.03    1.52
  -2   7  -8    5.72    1.56
  -2   7  -9  103.95    5.64
  -2   7 -10   31.49    3.11
  -2   7 -11    1.36    1.40
  -2   6  16   11.20    2.00
  -2   6  15   47.01    3.74
  -2   6  14   96.50    5.24
  -2   6  13   43.23    3.35
  -2   6  12    2.77    1.14
  -2   6  11  253.67    8.54
  -2   6  10   28.80    2.49
  -2   6  10   28.37    1.21
  -2   6   9    0.90    0.41
  -2   6   9   -0.59    0.87
  -2   6   8    7.95    0.85
  -2   6   8    5.69    1.22
  -2   6   7   26.49    2.14
  -2   6   7   23.94    1.50
  -2   6   6  131.87    5.06
  -2   6   6  132.54    4.18
  -2   6   5    8.95    1.02
  -2   6   5    9.47    1.32
  -2   6   5   10.52    0.87
  -2   6   4   92.13    3.57
  -2   6   4   85.97    3.43
  -2   6   4   92.48    3.98
  -2   6   4   97.91    3.14
  -2   6   3   38.89    2.28
  -2   6   3   45.63    2.67
  -2   6   3   40.35    2.16
  -2   6   3   48.54    2.25
  -2   6   2    1.78    0.67
  -2   6   2    1.78    0.60
  -2   6   2    0.68    0.58
  -2   6   1   79.32    3.58
  -2   6   1   75.65    2.83
  -2   6   1   82.88    3.35
  -2   6   0   31.59    1.61
  -2   6   0   32.24    2.24
  -2   6   0   33.61    2.14
   2  -6   1   43.16    2.72
  -2   6  -1   41.04    1.83
  -2   6  -1   43.05    2.68
   2  -6   2    3.06    1.01
   2  -6   3    6.93    0.82
   2  -6   3    9.20    1.49
   2  -6   4   49.20    3.19
   2  -6   4   50.07    1.98
   2  -6   5    0.67    0.27
   2  -6   5    0.91    0.77
   2  -6   6    0.69    0.96
   2  -6   7   35.51    2.89
   2  -6   8   26.04    2.57
   2  -6   9    0.64    0.90
   2  -6  10   19.01    2.31
   2  -6  11   15.14    2.26
   2  -6  12   14.73    2.20
   2  -6  13   13.24    2.13
   2  -5 -16   13.83    2.33
  -2   5  16   17.95    2.44
  -2   5  15   23.67    2.70
   2  -5 -15   22.79    2.58
   2  -5 -14   89.47    4.95
  -2   5  14   84.92    4.84
  -2   5  13   23.00    2.49
   2  -5 -13   21.48    2.38
  -2   5  12    3.15    1.18
   2  -5 -12    3.52    1.31
   2  -5 -11    5.25    1.40
  -2   5  11    5.23    1.26
  -2   5  10   75.01    3.95
   2  -5 -10   75.81    3.91
   2  -5  -9   29.16    2.30
  -2   5   9   27.67    2.32
  -2   5   9   20.43    0.90
  -2   5   8    3.27    1.07
  -2   5   8    2.62    0.43
  -2   5   7   61.80    3.19
  -2   5   7   59.05    2.18
  -2   5   6   39.97    1.84
  -2   5   6   38.38    2.52
  -2   5   5  116.36    2.98
  -2   5   5  119.99    4.54
  -2   5   5  112.75    3.62
  -2   5   4  105.95    3.61
  -2   5   4  104.99    4.18
  -2   5   4  112.50    3.18
  -2   5   3  120.76    4.44
  -2   5   3  113.80    3.91
  -2   5   3  120.23    3.57
  -2   5   2   51.56    2.18
  -2   5   2   52.52    2.54
  -2   5   2   51.34    2.24
   2  -5  -1   52.41    2.63
  -2   5   1   49.05    2.00
  -2   5   1   49.99    2.55
  -2   5   0   89.68    2.76
   2  -5   0   94.27    3.75
  -2   5   0   89.75    3.66
  -2   5  -1   94.93    2.74
   2  -5   1   95.56    3.91
  -2   5  -1  102.55    4.05
   2  -5   2   29.64    2.16
  -2   5  -2   30.62    2.20
  -2   5  -3    3.04    0.87
   2  -5   3    1.72    0.82
   2  -5   4  169.59    5.97
  -2   5  -4  178.60    6.08
   2  -5   4  163.54    4.07
   2  -5   5  188.15    4.07
   2  -5   5  197.11    6.64
   2  -5   5  191.39    4.08
   2  -5   6   11.75    1.60
   2  -5   7    1.49    0.93
   2  -5   8   30.77    2.60
   2  -5   9    1.96    0.96
   2  -5  10    6.17    1.37
   2  -5  11   14.16    2.04
   2  -5  12   31.66    2.95
  -2   5 -12   35.01    2.16
   2  -5  13    4.41    1.54
   2  -5  14    0.82    1.11
   2  -5  15    2.97    1.29
   2  -4 -17   21.69    2.71
  -2   4  17   20.22    2.62
   2  -4 -16   94.77    5.31
  -2   4  16   84.59    5.14
  -2   4  15   75.33    4.68
   2  -4 -15   74.01    4.54
  -2   4  14    0.60    1.00
   2  -4 -14    0.24    0.97
  -2   4  13   10.50    1.68
   2  -4 -13    9.88    1.67
   2  -4 -12  279.60    8.82
  -2   4  12  278.46    9.02
  -2   4  11   59.61    3.59
   2  -4 -11   55.65    3.37
   2  -4 -10    5.76    1.24
  -2   4  10    5.06    1.18
   2  -4  -9    5.35    1.13
  -2   4   9    4.81    1.17
   2  -4  -8  178.06    5.81
  -2   4   8  174.79    6.00
  -2   4   7  114.29    2.97
   2  -4  -7  121.25    4.38
  -2   4   7  105.71    4.30
   2  -4  -6    1.63    0.78
  -2   4   6   -0.50    0.72
  -2   4   6   -0.13    0.29
   2  -4  -5   16.85    1.39
  -2   4   5   18.71    1.16
  -2   4   5   15.56    1.57
  -2   4   5   15.72    0.67
  -2   4   4  175.85    5.51
  -2   4   4  161.90    4.53
  -2   4   4  179.06    4.04
  -2   4   3   54.26    2.73
   2  -4  -3   53.17    2.24
  -2   4   3   51.64    2.22
  -2   4   2    1.25    0.54
   2  -4  -2    1.11    0.57
   2  -4  -1  244.24    6.44
  -2   4   1  244.34    6.45
   2  -4   0   37.08    2.09
  -2   4   0   32.91    1.97
  -2   4   0   31.83    1.31
  -2   4  -1    4.56    0.47
   2  -4   1    3.48    0.82
  -2   4  -1    3.92    0.86
  -2   4  -2    5.98    0.46
  -2   4  -2    6.11    0.98
   2  -4   2    6.38    1.03
  -2   4  -3  544.29   12.71
   2  -4   3  536.37   12.60
   2  -4   4  116.50    4.45
   2  -4   4  110.17    2.79
  -2   4  -4  121.05    4.57
   2  -4   5   42.49    2.63
  -2   4  -5   44.16    2.68
   2  -4   6    1.52    0.86
  -2   4  -6    0.92    0.69
   2  -4   7   56.50    3.26
   2  -4   8   92.11    4.40
   2  -4   9   -0.83    0.85
   2  -4  10   40.97    3.01
  -2   4 -10   39.11    2.06
  -2   4 -11   23.92    1.68
   2  -4  11   21.19    2.34
   2  -4  12   19.68    2.23
  -2   4 -12   20.90    1.68
  -2   4 -13    0.92    0.72
   2  -4  13    0.38    0.92
  -2   4 -14    1.65    0.86
   2  -4  14    0.22    1.04
   2  -4  15   24.30    2.78
   2  -4  16    4.95    1.60
   2  -3 -17   -0.03    1.11
  -2   3  17    2.48    1.29
   2  -3 -16    1.77    1.03
  -2   3  16    5.13    1.53
   2  -3 -15   92.77    5.09
  -2   3  15   91.50    5.10
   2  -3 -14   55.05    3.76
  -2   3  14   52.22    3.72
   2  -3 -13   51.15    3.52
  -2   3  13   64.32    3.88
   2  -3 -12   34.28    2.75
  -2   3  12   31.88    2.66
  -2   3  11  173.78    6.43
   2  -3 -11  171.19    6.27
   2  -3 -10  162.97    5.88
  -2   3  10  165.84    6.05
  -2   3   9   46.94    2.87
   2  -3  -9   46.85    2.81
   2  -3  -9   49.93    3.04
   2  -3  -8   11.45    1.42
   2  -3  -8   13.83    1.61
  -2   3   8   12.57    1.50
  -2   3   7  163.35    5.46
   2  -3  -7  168.31    5.33
  -2   3   6  165.47    5.38
   2  -3  -6  169.15    5.14
  -2   3   5   50.70    1.73
  -2   3   5   49.41    2.59
   2  -3  -5   52.88    2.43
   2  -3  -4  296.58    7.13
  -2   3   4  304.05    7.83
   2  -3  -4  303.90    6.54
  -2   3   4  292.51    6.57
  -2   3   3  397.83    9.56
   2  -3  -3  408.40    8.58
   2  -3  -3  404.29    8.70
  -2   3   3  381.48    8.51
   2  -3  -2   49.42    2.04
   2  -3  -2   47.08    1.83
  -2   3   2   46.09    2.01
   2  -3  -1  250.42    6.18
  -2   3   1  251.20    6.25
   2  -3   0  104.65    3.50
  -2   3   0  107.36    3.58
   2  -3   1  218.00    5.86
  -2   3  -1  216.82    5.94
   2  -3   2    6.54    0.65
   2  -3   2    6.48    0.92
  -2   3  -2    6.29    1.00
   2  -3   3    5.28    0.53
   2  -3   3    6.86    1.02
  -2   3  -3    6.05    0.95
  -2   3  -4  228.06    6.46
   2  -3   4  213.21    4.48
   2  -3   4  221.34    6.32
  -2   3  -5  465.44   11.03
   2  -3   5  425.30   10.67
   2  -3   6   70.88    3.39
  -2   3  -6   77.29    3.54
  -2   3  -6   72.64    2.15
   2  -3   7   53.37    2.97
  -2   3  -7   58.59    3.16
  -2   3  -7   54.52    1.97
   2  -3   8  192.78    6.37
  -2   3  -8  190.66    4.88
  -2   3  -8  197.01    6.58
  -2   3  -8  188.96    6.43
   2  -3   9   96.79    4.40
  -2   3  -9  103.82    3.36
  -2   3 -10    3.16    0.69
   2  -3  10    2.19    0.91
  -2   3 -11   13.67    1.34
   2  -3  11   10.22    1.61
   2  -3  12   50.98    3.34
  -2   3 -12   52.55    2.73
  -2   3 -13   79.58    3.60
   2  -3  13   84.32    4.57
   2  -3  14    3.24    1.33
  -2   3 -14    3.10    1.00
  -2   3 -15   41.73    2.80
   2  -3  15   36.91    3.15
   2  -3  16   32.12    3.03
  -2   3 -16   34.31    2.61
   2  -3  17    2.67    1.10
   2  -3  18    6.12    1.66
  -2   2  17   24.98    2.81
   2  -2 -17   23.21    2.76
  -2   2  16  131.98    6.43
   2  -2 -16  132.79    6.36
   2  -2 -15   31.77    2.99
  -2   2  15   34.18    3.11
  -2   2  14    2.50    1.18
   2  -2 -14    3.53    1.24
  -2   2  13    6.02    1.40
   2  -2 -13    8.40    1.64
  -2   2  12   99.81    4.76
   2  -2 -12   97.58    4.63
  -2   2  11   68.77    3.69
   2  -2 -11   66.25    3.61
  -2   2  10   21.88    2.05
   2  -2 -10   18.28    1.89
   2  -2  -9  203.04    6.64
  -2   2   9  202.62    6.55
   2  -2  -9  194.82    6.35
   2  -2  -8  251.52    7.33
  -2   2   8  230.04    7.04
   2  -2  -8  231.54    6.89
   2  -2  -7   79.05    3.56
   2  -2  -7   76.69    3.30
  -2   2   7   74.80    3.37
  -2   2   6   39.25    2.31
  -2   2   5  242.51    6.68
   2  -2  -5  249.13    5.02
   2  -2  -4  731.44   13.88
   2  -2  -4  734.26   14.92
  -2   2   4  735.04   15.53
   2  -2  -3  453.34    9.63
  -2   2   3  455.40   10.41
   2  -2  -3  457.78    9.22
   2  -2  -2   28.13    1.30
  -2   2   2   28.13    1.37
   2  -2  -2   27.59    1.37
   2  -2  -1  245.81    5.27
  -2   2   1  249.29    5.85
   2  -2  -1  241.53    5.97
   2  -2  -1  240.29    5.74
   2  -2   0  176.91    3.73
  -2   2   0  173.32    4.69
   2  -2   0  174.43    4.53
   2  -2   0  179.31    4.66
   2  -2   1    2.47    0.66
  -2   2  -1    2.71    0.71
   2  -2   1    2.75    0.51
  -2   2  -2   47.97    2.23
   2  -2   2   46.27    2.20
   2  -2   2   47.73    1.69
  -2   2  -3  239.59    6.32
   2  -2   3  226.18    4.94
   2  -2   3  238.58    6.21
   2  -2   4  148.48    3.26
  -2   2  -4  159.33    4.88
   2  -2   4  155.27    4.77
  -2   2  -5  207.20    4.39
  -2   2  -5  220.33    6.24
   2  -2   5  209.11    6.04
  -2   2  -6   48.05    1.64
  -2   2  -6   49.87    2.65
   2  -2   6   46.86    2.55
  -2   2  -7  274.52    7.67
  -2   2  -7  271.46    6.13
   2  -2   7  263.40    7.52
  -2   2  -8   82.53    2.77
  -2   2  -8   79.10    3.64
  -2   2  -8   80.57    3.79
   2  -2   8   77.34    3.60
  -2   2  -9    0.11    0.48
  -2   2  -9    0.95    0.68
   2  -2   9   -0.38    0.83
  -2   2  -9    0.36    0.64
  -2   2 -10    5.77    0.89
   2  -2  10    6.81    1.18
  -2   2 -11    9.27    1.10
   2  -2  11    5.86    1.19
   2  -2  12   21.77    2.14
  -2   2 -12   27.75    1.99
   2  -2  13    3.54    1.00
  -2   2 -13    3.37    0.93
  -2   2 -14   19.18    1.85
   2  -2  14   17.22    2.05
  -2   2 -15    5.09    1.09
   2  -2  15    4.34    1.30
  -2   2 -16   -0.08    0.80
   2  -2  16   -0.29    0.98
  -2   2 -17    1.39    0.80
   2  -2  17    2.47    1.09
   2  -2  18    5.97    1.43
   2  -2  19    0.39    1.04
   2  -1 -17    4.41    1.48
  -2   1  17    1.35    1.18
  -2   1  16   24.88    2.70
   2  -1 -16   27.31    2.81
  -2   1  15    4.47    1.29
   2  -1 -15    5.85    1.54
   2  -1 -15    5.99    0.90
  -2   1  14   38.40    3.11
   2  -1 -14   37.30    3.10
   2  -1 -14   41.52    2.14
   2  -1 -13   41.08    3.15
  -2   1  13   47.84    3.30
   2  -1 -13   44.82    2.15
  -2   1  12   79.94    4.14
   2  -1 -12   81.52    2.91
  -2   1  11  180.39    6.41
  -2   1  10   56.56    3.23
   2  -1 -10   57.64    3.24
   2  -1 -10   52.13    3.02
   2  -1  -9    0.87    0.66
   2  -1  -9    1.14    0.77
  -2   1   9    1.40    0.89
   2  -1  -8   13.13    1.45
   2  -1  -8   11.87    1.39
  -2   1   8   12.22    1.45
  -2   1   7  179.05    5.58
   2  -1  -7  180.48    5.70
   2  -1  -7  169.73    5.48
   2  -1  -6  209.42    6.14
   2  -1  -6  221.93    6.30
  -2   1   6  220.04    6.15
  -2   1   5  260.88    6.55
   2  -1  -5  251.83    6.61
   2  -1  -5  228.40    4.70
  -2   1   5  245.08    5.04
   2  -1  -4  370.18    7.27
   2  -1  -4  349.25    8.63
  -2   1   4  379.88    8.78
   2  -1  -3  392.87    7.98
  -2   1   3  404.39    9.17
   2  -1  -3  394.96    9.02
   2  -1  -2   20.90    1.11
   2  -1  -2   21.93    1.40
   2  -1  -1    0.37    0.52
   2  -1  -1    0.86    0.52
   2  -1   0  210.73    5.19
   2  -1   0  219.32    5.27
   2  -1   1   27.84    1.34
   2  -1   1   31.02    1.65
   2  -1   2   -0.44    0.38
  -2   1  -2    0.12    0.40
   2  -1   2    0.12    0.61
   2  -1   3  105.23    2.72
  -2   1  -3  107.38    2.75
   2  -1   3  114.62    3.69
   2  -1   4   18.49    0.84
  -2   1  -4   19.77    0.90
   2  -1   4   19.81    1.53
   2  -1   5   15.76    1.46
  -2   1  -5   13.58    0.67
   2  -1   5   12.70    0.65
  -2   1  -6   24.67    0.87
   2  -1   6   24.68    1.79
  -2   1  -7  583.10   10.80
   2  -1   7  589.88   13.15
  -2   1  -7  570.61   11.78
  -2   1  -8  143.90    4.08
  -2   1  -8  141.11    3.04
  -2   1  -8  152.88    5.26
   2  -1   8  151.59    5.02
  -2   1  -9   47.55    2.22
  -2   1  -9   50.40    1.38
  -2   1  -9   52.92    3.03
   2  -1   9   49.07    2.72
  -2   1 -10   23.37    1.62
  -2   1 -10   23.03    0.89
   2  -1  10   25.01    1.99
  -2   1 -11    3.32    0.39
  -2   1 -11    2.51    0.70
   2  -1  11    1.84    0.88
  -2   1 -11    2.36    0.34
  -2   1 -12  319.68    8.40
  -2   1 -12  318.97    6.50
  -2   1 -12  315.97    6.48
   2  -1  12  315.58    9.13
  -2   1 -13    3.39    0.71
  -2   1 -13    5.35    0.52
   2  -1  13    6.72    1.35
  -2   1 -13    5.92    0.54
  -2   1 -14   42.35    2.71
  -2   1 -14   44.78    1.53
   2  -1  14   38.40    2.85
   2  -1  15   54.87    3.49
  -2   1 -15   52.38    3.21
   2  -1  16   34.66    2.88
  -2   1 -16   40.64    2.92
   2  -1  17   11.82    1.74
  -2   1 -17   16.04    2.01
  -2   1 -18    2.03    1.20
   2  -1  18    2.17    1.08
  -2   1 -19   12.24    1.95
   2  -1  19    7.83    2.18
  -2   0  17   10.93    2.07
   2   0 -17   14.93    2.27
  -2   0  16  102.83    5.47
   2   0 -16  101.22    5.54
   2   0 -16  106.65    4.32
  -2   0  15   31.72    2.96
   2   0 -15   27.21    2.05
   2   0 -14    2.52    0.79
  -2   0  14    3.48    1.29
  -2   0  13   68.23    3.93
   2   0 -13   64.55    2.97
  -2   0  12   56.11    3.43
   2   0 -12   53.82    2.59
  -2   0  11   84.25    4.07
   2   0 -11   78.50    3.80
   2   0 -11   86.37    3.23
  -2   0  10    2.06    0.93
   2   0 -10    1.79    0.64
   2   0 -10    1.02    0.30
   2   0 -10    1.78    0.76
   2   0 -10    0.66    0.59
   2   0  -9   99.09    4.12
  -2   0   9  103.88    4.28
   2   0  -9  109.76    2.59
   2   0  -9  105.27    4.28
   2   0  -9   96.06    3.28
  -2   0   8  114.83    4.28
   2   0  -8  116.80    4.28
   2   0  -8  118.80    4.40
   2   0  -8  103.50    2.55
   2   0  -7   35.88    2.18
   2   0  -7   35.79    2.15
   2   0  -7   34.57    1.17
  -2   0   7   36.60    2.20
   2   0  -6   34.89    2.06
  -2   0   6   33.46    2.05
   2   0  -6   30.70    1.92
  -2   0   6   31.46    1.46
   2   0  -5  418.34    9.59
   2   0  -5  412.30    9.57
  -2   0   5  395.89    9.33
  -2   0   5  404.06    8.48
   2   0  -4  513.81   11.45
  -2   0   4  563.72   11.45
  -2   0   4  507.29   10.45
   2   0  -3   43.07    2.13
  -2   0   3   39.83    2.00
  -2   0   3   46.31    2.14
   2   0  -2  147.17    4.17
  -2   0   2  142.43    4.14
   2   0  -1  551.88   11.45
  -2   0   1  554.42   11.48
   2   0   0  262.91    6.07
  -2   0   0  265.93    6.16
  -2   0  -1   95.02    2.84
   2   0   1   96.99    2.82
  -2   0  -2   17.12    1.06
   2   0   2   16.49    1.04
   2   0   3    2.16    0.48
   2   0   3    1.44    0.68
  -2   0  -3    1.00    0.44
   2   0   4   91.08    2.44
   2   0   4   91.75    2.54
   2   0   4   96.95    3.30
  -2   0  -4   93.52    2.60
   2   0   5   63.92    2.03
  -2   0  -5   71.83    2.11
   2   0   5   72.09    2.92
   2   0   5   65.81    2.10
  -2   0  -6  371.35    7.72
   2   0   6  392.49    9.13
  -2   0  -7  327.39    6.97
   2   0   7  336.91    8.42
  -2   0  -7  342.08    8.64
   2   0   8  903.42   18.64
  -2   0  -8  879.52   18.85
  -2   0  -8  874.20   16.85
   2   0   9    4.85    0.97
  -2   0  -9    4.70    0.58
  -2   0  -9    5.47    0.89
  -2   0  -9    3.97    1.09
  -2   0 -10   40.15    2.18
  -2   0 -10   37.83    2.64
   2   0  10   33.99    2.31
  -2   0 -10   36.60    1.60
  -2   0 -11   73.53    2.53
   2   0  11   78.38    3.63
  -2   0 -11   76.71    3.32
  -2   0 -12  196.23    4.92
   2   0  12  165.82    5.97
  -2   0 -12  191.27    6.01
  -2   0 -13   88.98    2.97
   2   0  13   77.85    3.88
  -2   0 -13   78.14    3.75
  -2   0 -14   45.28    2.93
  -2   0 -14   46.80    2.12
   2   0  14   39.73    2.78
  -2   0 -15    3.17    1.24
   2   0  15    2.46    0.89
  -2   0 -15    2.11    0.62
  -2   0 -16   21.31    2.23
   2   0  16   17.79    2.01
   2   0  17   50.43    3.38
  -2   0 -17   51.57    3.51
   2   0  18   20.54    2.32
   2   0  19    8.85    1.55
   2   1 -17   19.34    2.02
  -2  -1  17   15.89    2.50
   2   1 -16    3.92    0.98
  -2  -1  16    4.29    1.41
   2   1 -15    1.41    0.89
  -2  -1  15    0.07    1.13
   2   1 -14   10.15    1.35
  -2  -1  14    9.31    1.60
   2   1 -13   36.58    1.85
  -2  -1  13   44.09    3.11
   2   1 -13   37.12    2.40
   2   1 -12   86.94    3.98
  -2  -1  12   87.17    4.27
   2   1 -12   69.37    2.60
   2   1 -12   79.78    3.49
  -2  -1  11    1.18    0.96
   2   1 -11    1.21    0.48
   2   1 -11    1.76    0.76
   2   1 -11    0.01    0.59
  -2  -1  10   16.07    1.65
   2   1 -10   15.53    1.51
   2   1 -10   15.35    1.39
   2   1 -10   16.00    1.06
   2   1 -10   15.70    1.67
  -2  -1   9   13.58    1.51
   2   1  -9   14.31    1.32
   2   1  -9   12.76    1.41
   2   1  -9   13.17    1.45
   2   1  -9   14.44    0.96
  -2  -1   8    2.53    0.70
   2   1  -8    3.17    0.68
   2   1  -8    3.44    0.55
   2   1  -8    2.69    0.74
   2   1  -8    3.69    0.90
   2   1  -7  219.67    5.76
   2   1  -7  220.69    6.32
   2   1  -7  224.46    5.17
   2   1  -7  221.42    6.32
  -2  -1   7  221.13    6.30
   2   1  -6  170.89    5.12
   2   1  -6  172.56    5.17
  -2  -1   6  178.59    5.17
  -2  -1   6  166.27    4.64
   2   1  -5  124.98    3.98
  -2  -1   5  124.46    3.95
   2   1  -5  123.60    4.02
  -2  -1   5  120.18    3.97
  -2  -1   5  116.18    3.58
  -2  -1   4   11.34    0.93
   2   1  -4   12.80    1.15
   2   1  -4   13.03    1.17
  -2  -1   4   11.21    1.21
  -2  -1   4   13.00    1.12
  -2  -1   3    7.62    0.80
   2   1  -3    5.70    0.85
  -2  -1   3    6.08    0.94
  -2  -1   3    7.15    0.89
   2   1  -2   55.30    2.28
  -2  -1   2   59.46    2.24
  -2  -1   2   54.16    2.35
   2   1  -1   76.61    2.66
  -2  -1   1   75.29    2.70
   2   1   0  185.76    4.75
  -2  -1   0  189.08    4.76
  -2  -1  -1  209.08    5.13
   2   1   1  212.18    5.12
   2   1   2  127.95    3.51
  -2  -1  -2  131.30    3.55
  -2  -1  -3   38.55    1.66
   2   1   3   40.25    1.67
   2   1   4  262.99    6.10
  -2  -1  -4  274.92    6.11
   2   1   5   63.87    2.28
   2   1   5   63.56    2.24
  -2  -1  -5   68.78    2.30
   2   1   6   81.89    2.80
  -2  -1  -6   83.96    2.69
  -2  -1  -6   86.72    3.29
  -2  -1  -7   86.50    2.80
   2   1   7   91.56    3.47
  -2  -1  -7   92.91    3.55
   2   1   7   83.63    2.97
  -2  -1  -8  169.50    4.56
  -2  -1  -8  179.70    5.66
   2   1   8  177.04    5.37
   2   1   9  150.88    5.01
  -2  -1  -9  146.76    4.20
  -2  -1  -9  152.50    5.32
  -2  -1 -10    0.34    0.45
  -2  -1 -10    1.39    0.74
   2   1  10    0.85    0.72
  -2  -1 -11   47.31    2.21
   2   1  11   51.53    2.82
  -2  -1 -12   39.53    2.10
   2   1  12   44.78    2.70
   2   1  13    9.97    1.36
  -2  -1 -13   11.82    1.23
  -2  -1 -14  116.31    4.09
   2   1  14  115.33    4.79
  -2  -1 -15   32.39    2.05
   2   1  15   34.71    2.57
  -2  -1 -16    7.58    1.06
   2   1  16    9.79    1.54
   2   1  17    2.93    1.01
   2   1  18    7.81    1.46
   2   1  19   16.08    1.91
  -2  -2  17   26.27    2.92
   2   2 -17   28.68    2.60
  -2  -2  16   43.04    3.73
   2   2 -16   37.45    2.91
   2   2 -15   10.91    1.63
  -2  -2  15   12.45    2.00
  -2  -2  14   66.18    4.08
   2   2 -14   65.31    3.62
  -2  -2  13   26.18    2.47
   2   2 -13   22.92    1.66
   2   2 -13   26.51    2.22
   2   2 -12   62.02    3.28
  -2  -2  12   60.25    3.50
   2   2 -12   62.85    2.72
   2   2 -12   59.79    3.22
   2   2 -11    8.92    1.27
   2   2 -11    9.97    1.04
  -2  -2  11   12.81    1.62
   2   2 -11   10.46    1.34
   2   2 -10   13.85    1.47
   2   2 -10   13.55    1.50
  -2  -2  10   11.72    1.46
   2   2 -10   12.93    1.50
   2   2 -10   13.00    1.13
   2   2  -9  157.37    4.53
   2   2  -9  162.13    5.44
   2   2  -9  161.36    5.32
  -2  -2   9  166.41    5.49
   2   2  -9  157.62    5.18
   2   2  -8  120.58    4.37
   2   2  -8  131.79    3.87
   2   2  -8  121.18    4.35
  -2  -2   8  124.33    4.40
   2   2  -8  114.06    4.16
  -2  -2   7   73.84    3.16
   2   2  -7   76.55    3.17
   2   2  -7   77.39    2.71
   2   2  -7   75.86    3.18
  -2  -2   7   74.98    3.12
   2   2  -7   76.67    3.11
   2   2  -6  242.52    6.33
   2   2  -6  239.95    6.36
   2   2  -6  237.18    6.43
  -2  -2   6  244.84    6.38
  -2  -2   6  236.15    6.48
  -2  -2   6  225.74    6.25
   2   2  -5  127.97    3.94
   2   2  -5  121.94    4.07
  -2  -2   5  124.84    4.13
  -2  -2   5  127.80    3.93
  -2  -2   5  118.66    3.96
   2   2  -4   36.07    1.78
  -2  -2   4   33.77    1.72
   2   2  -4   34.54    1.92
  -2  -2   4   36.23    2.04
  -2  -2   4   33.48    1.79
  -2  -2   3  197.82    5.41
  -2  -2   3  198.99    4.91
   2   2  -3  197.03    5.35
  -2  -2   3  197.23    5.24
  -2  -2   2  870.61   17.27
  -2  -2   2  856.50   16.63
   2   2  -2  850.51   17.23
  -2  -2   1  512.23   10.96
   2   2  -1  513.73   10.96
   2   2   0   55.15    2.27
  -2  -2   0   60.82    2.41
   2   2   1   74.33    2.67
  -2  -2  -1   79.24    2.78
   2   2   2   94.35    3.07
  -2  -2  -2   98.73    3.11
  -2  -2  -3  361.94    8.03
   2   2   3  354.57    8.01
   2   2   4   54.58    2.23
  -2  -2  -4   59.63    2.29
  -2  -2  -5   95.41    3.11
  -2  -2  -5   92.34    3.16
   2   2   6  346.01    8.40
  -2  -2  -6  380.54    8.42
  -2  -2  -6  385.10    8.79
  -2  -2  -7    3.85    0.76
  -2  -2  -7    4.46    0.79
   2   2   7    4.71    0.81
   2   2   8   46.40    2.34
  -2  -2  -8   48.15    2.25
  -2  -2  -8   46.97    2.58
   2   2   9   32.68    2.01
  -2  -2  -9   31.56    1.84
  -2  -2  -9   31.71    2.19
  -2  -2 -10   47.65    2.75
   2   2  10   36.52    2.26
  -2  -2 -10   39.20    2.14
  -2  -2 -11   33.47    2.03
   2   2  11   32.18    2.22
   2   2  12   27.80    2.10
  -2  -2 -12   29.41    1.95
  -2  -2 -13   46.46    2.59
   2   2  13   53.23    3.01
  -2  -2 -14   36.76    2.31
   2   2  14   38.55    2.62
  -2  -2 -15   15.45    1.56
   2   2  15   12.69    1.57
   2   2  16    8.53    1.38
  -2  -2 -16    6.99    1.18
  -2  -2 -17   47.45    2.88
   2   2  17   48.41    3.12
   2   2  18   26.30    2.40
   2   3 -18    0.72    1.20
   2   3 -17   14.80    2.07
  -2  -3  17   15.65    2.43
   2   3 -16    0.80    0.97
  -2  -3  16    4.59    1.34
   2   3 -15    0.03    0.88
  -2  -3  15    2.50    1.28
   2   3 -14   13.47    1.80
  -2  -3  14   14.96    2.06
   2   3 -13    5.46    1.26
  -2  -3  13    5.45    1.33
   2   3 -13    5.61    0.98
   2   3 -12    4.72    1.24
  -2  -3  12    2.92    1.02
   2   3 -12    3.24    0.81
   2   3 -12    2.36    0.85
   2   3 -11    6.08    1.21
  -2  -3  11    5.45    1.21
   2   3 -11    5.18    0.92
   2   3 -11    6.24    1.09
   2   3 -10    8.15    1.05
  -2  -3  10    9.69    1.37
   2   3 -10    9.71    1.24
   2   3 -10   10.34    1.41
   2   3 -10   10.30    1.30
   2   3  -9   34.44    2.02
   2   3  -9   32.36    2.13
   2   3  -9   30.34    2.07
  -2  -3   9   31.70    2.17
   2   3  -9   33.29    2.31
   2   3  -8  164.44    5.06
   2   3  -8  160.56    5.27
   2   3  -8  170.68    5.43
  -2  -3   8  169.90    5.39
  -2  -3   8  197.85    5.66
   2   3  -8  169.79    5.62
  -2  -3   7    6.00    1.00
   2   3  -7    3.96    0.81
   2   3  -7    5.27    0.84
  -2  -3   7    4.81    0.88
   2   3  -7    3.72    0.67
   2   3  -7    4.08    0.88
  -2  -3   6    0.39    0.59
  -2  -3   6    1.02    0.54
   2   3  -6    1.32    0.75
   2   3  -6    1.23    0.59
  -2  -3   6   -0.01    0.59
   2   3  -6    0.69    0.47
   2   3  -5   67.35    2.99
   2   3  -5   61.88    2.49
   2   3  -5   65.39    2.83
  -2  -3   5   65.17    2.85
  -2  -3   5   63.54    2.52
  -2  -3   5   62.52    2.87
   2   3  -4   80.93    2.75
  -2  -3   4   81.60    3.17
   2   3  -4   78.18    3.12
  -2  -3   4   81.27    2.74
  -2  -3   4   82.55    3.27
  -2  -3   3   15.48    1.33
  -2  -3   3   16.26    1.03
   2   3  -3   15.93    1.34
  -2  -3   3   16.19    1.38
  -2  -3   2   15.47    1.31
   2   3  -2   12.87    1.22
  -2  -3   2   11.87    1.24
  -2  -3   2   14.71    0.91
   2   3  -1  111.93    3.67
  -2  -3   1  114.13    3.72
  -2  -3   1  112.11    2.90
   2   3   0   41.10    2.03
  -2  -3   0   43.13    2.14
   2   3   1   60.27    2.48
  -2  -3  -1   60.36    2.52
   2   3   2  194.84    5.35
  -2  -3  -2  206.15    5.38
   2   3   3   68.28    2.73
  -2  -3  -3   72.77    2.77
  -2  -3  -4    3.17    0.56
   2   3   4    3.17    0.71
  -2  -3  -4    3.12    0.77
  -2  -3  -5    7.90    1.01
  -2  -3  -5    6.16    0.81
  -2  -3  -6  197.85    5.53
  -2  -3  -6  198.85    5.45
   2   3   7  181.94    5.40
  -2  -3  -7  182.07    5.34
  -2  -3  -7  184.45    5.34
  -2  -3  -8    0.53    0.51
  -2  -3  -8    1.93    0.78
   2   3   8    0.38    0.62
   2   3   9    9.61    1.27
  -2  -3  -9    8.77    1.15
  -2  -3  -9    8.22    1.15
   2   3  10   25.97    1.96
  -2  -3 -10   26.98    1.92
  -2  -3 -10   28.15    2.09
   2   3  11   32.48    2.43
  -2  -3 -11   30.49    2.24
  -2  -3 -11   28.07    1.99
  -2  -3 -12    5.30    1.01
   2   3  12    4.86    0.97
  -2  -3 -13   10.23    1.31
   2   3  13    9.09    1.32
   2   3  14   19.22    1.82
  -2  -3 -14   17.42    1.77
   2   3  15   36.41    2.56
  -2  -3 -15   31.16    2.38
   2   3  16    4.12    1.09
  -2  -3 -16    4.62    1.10
  -2  -3 -17   44.89    2.98
   2   3  17   49.61    3.13
   2   3  18    9.57    1.41
  -2  -3 -18    6.76    1.36
   2   4 -18    3.97    1.41
  -2  -4  17   62.06    4.50
   2   4 -17   67.60    4.46
   2   4 -16   24.50    2.67
  -2  -4  16   20.91    2.46
   2   4 -15    1.49    1.16
  -2  -4  15   -0.22    0.99
  -2  -4  14   24.28    2.49
   2   4 -14   23.37    2.49
  -2  -4  13  102.65    5.04
   2   4 -13  106.78    5.13
   2   4 -12   -0.44    0.79
  -2  -4  12   -0.12    0.79
   2   4 -12    1.00    0.63
   2   4 -12    0.25    0.64
   2   4 -11   -0.66    0.75
  -2  -4  11   -0.50    0.78
   2   4 -11    0.34    0.67
   2   4 -11   -0.18    0.56
   2   4 -10  140.30    4.88
   2   4 -10  114.96    4.65
   2   4 -10  128.39    4.79
  -2  -4  10  125.07    4.91
   2   4 -10  126.54    5.19
   2   4  -9  439.17   10.99
   2   4  -9  427.66   10.88
   2   4  -9  452.68   11.08
  -2  -4   9  506.50   11.30
  -2  -4   9  443.57   11.07
   2   4  -9  438.05   11.59
   2   4  -8  103.22    4.00
   2   4  -8  101.73    4.00
   2   4  -8  100.72    3.85
  -2  -4   8   98.96    3.93
  -2  -4   8  102.45    3.90
   2   4  -8   96.17    4.25
   2   4  -7   37.56    2.09
   2   4  -7   38.95    2.30
   2   4  -7   39.55    2.28
  -2  -4   7   39.27    2.30
  -2  -4   7   39.13    2.13
   2   4  -7   40.13    2.57
   2   4  -6  266.98    7.31
   2   4  -6  264.97    6.75
  -2  -4   6  276.78    7.33
  -2  -4   6  269.97    6.79
  -2  -4   6  275.27    7.73
   2   4  -6  267.83    7.64
   2   4  -5  326.49    8.63
   2   4  -5  331.13    8.29
   2   4  -5  317.19    7.59
  -2  -4   5  340.21    8.38
  -2  -4   5  330.57    7.61
  -2  -4   5  335.10    8.76
  -2  -4   4   14.77    1.48
   2   4  -4   14.64    1.04
   2   4  -4   14.74    1.31
  -2  -4   4   13.86    1.00
  -2  -4   4   15.44    1.39
   2   4  -3  148.36    3.82
   2   4  -3  150.85    4.69
  -2  -4   3  149.61    4.73
  -2  -4   3  147.91    3.75
  -2  -4   3  154.80    5.00
  -2  -4   2  550.96   12.16
  -2  -4   2  544.85   10.70
   2   4  -2  556.54   12.16
  -2  -4   2  553.56   12.38
  -2  -4   1  380.84    7.56
  -2  -4   1  383.47    9.13
   2   4  -1  396.80    9.17
  -2  -4   1  395.06    9.34
  -2  -4   0   10.80    1.22
  -2  -4   0   10.78    0.57
   2   4   0   11.43    1.17
  -2  -4   0    9.94    1.13
   2   4   1  319.08    7.86
  -2  -4  -1  310.26    7.77
   2   4   2 1677.18   31.69
  -2  -4  -2 1677.87   31.65
  -2  -4  -2 1616.46   29.91
   2   4   3   38.54    2.15
  -2  -4  -3   39.04    2.16
  -2  -4  -3   39.52    1.49
  -2  -4  -4   41.10    2.25
  -2  -4  -4   40.05    1.65
  -2  -4  -5  370.44    9.12
  -2  -4  -5  379.88    8.31
  -2  -4  -6  868.29   18.47
  -2  -4  -6  897.33   17.75
  -2  -4  -7   78.92    3.38
  -2  -4  -7   82.14    3.10
  -2  -4  -8  106.77    4.13
  -2  -4  -8  109.10    3.91
   2   4   8  113.79    4.30
   2   4   9  388.54    9.87
  -2  -4  -9  369.06    9.63
  -2  -4  -9  386.44    9.57
   2   4  10  119.82    4.84
  -2  -4 -10  134.30    4.91
  -2  -4 -10  146.79    5.04
  -2  -4 -11   12.75    1.49
  -2  -4 -11   13.09    1.53
  -2  -4 -12   13.60    1.61
  -2  -4 -13   63.63    3.44
   2   4  13   66.95    3.33
   2   4  14   90.04    4.05
  -2  -4 -14   79.50    4.00
  -2  -4 -15    7.84    1.43
   2   4  15    8.68    1.32
  -2  -4 -16   73.09    3.96
   2   4  16   66.15    3.57
   2   4  17   13.84    1.72
  -2  -4 -17   16.44    2.01
  -2  -4 -18   25.12    2.44
   2   4  18   25.76    2.24
  -2  -4 -19    7.14    1.53
   2   5 -16   34.22    3.26
   2   5 -15   13.57    2.04
   2   5 -14   15.24    2.07
  -2  -5  14    9.99    1.62
   2   5 -13   20.29    2.33
  -2  -5  13   24.01    2.39
  -2  -5  12   48.70    3.22
   2   5 -12   57.18    3.72
   2   5 -11    2.31    0.90
  -2  -5  11    4.65    1.05
   2   5 -11    3.66    0.91
   2   5 -10   76.97    3.61
   2   5 -10   76.56    3.58
  -2  -5  10   76.26    3.53
  -2  -5  10   85.01    3.83
   2   5 -10   83.91    4.35
   2   5  -9    6.58    1.38
  -2  -5   9    6.62    1.07
   2   5  -9    7.20    1.09
   2   5  -9    6.90    1.12
  -2  -5   9    6.73    1.05
   2   5  -9    5.91    0.98
   2   5  -8   75.16    3.57
   2   5  -8   65.73    3.02
   2   5  -8   67.16    3.22
  -2  -5   8   70.96    3.30
  -2  -5   8   66.91    3.06
   2   5  -8   69.19    3.74
   2   5  -7    9.29    1.49
   2   5  -7    8.14    1.19
  -2  -5   7    7.58    1.01
   2   5  -7    7.92    1.11
  -2  -5   7    7.22    1.10
   2   5  -7    7.49    0.96
   2   5  -6   46.12    2.16
   2   5  -6   51.38    2.66
  -2  -5   6   49.24    2.62
   2   5  -6   49.53    2.74
  -2  -5   6   47.63    2.24
   2   5  -6   52.45    3.06
   2   5  -5   29.79    2.27
   2   5  -5   28.36    1.53
   2   5  -5   27.03    1.88
  -2  -5   5   28.17    1.94
  -2  -5   5   27.49    1.52
  -2  -5   5   29.75    2.22
  -2  -5   4    3.89    0.88
  -2  -5   4    3.23    0.51
   2   5  -4    3.51    0.81
  -2  -5   4    4.82    0.91
   2   5  -4    3.86    0.59
  -2  -5   3    2.66    0.83
  -2  -5   3    4.34    0.50
   2   5  -3    3.72    0.80
  -2  -5   3    4.65    0.96
  -2  -5   2   13.50    1.42
   2   5  -2   11.86    1.28
  -2  -5   2   11.96    0.64
  -2  -5   2   10.58    1.26
   2   5  -1  336.12    8.49
  -2  -5   1  329.26    8.46
  -2  -5   1  342.56    8.75
   2   5   0   18.10    1.55
  -2  -5   0   18.11    1.56
  -2  -5   0   18.62    1.58
   2   5   1   63.77    2.94
  -2  -5  -1   66.39    2.99
  -2  -5  -1   60.07    2.88
  -2  -5  -2   10.49    0.48
   2   5   2   10.74    1.25
  -2  -5  -2   10.47    1.27
   2   5   3  139.82    4.69
  -2  -5  -3  133.65    3.13
  -2  -5  -3  133.76    4.61
  -2  -5  -4    0.77    0.32
  -2  -5  -4   -0.40    0.74
  -2  -5  -5   61.09    3.06
  -2  -5  -5   66.30    2.27
  -2  -5  -6   73.88    3.37
  -2  -5  -6   71.39    2.61
  -2  -5  -7   22.71    1.88
  -2  -5  -7   23.63    1.53
   2   5   8   17.72    1.70
  -2  -5  -8   16.21    1.37
  -2  -5  -8   15.68    1.61
   2   5   9   23.14    2.02
  -2  -5  -9   23.32    2.08
  -2  -5  -9   23.63    1.73
  -2  -5 -10   43.98    2.78
  -2  -5 -10   43.28    2.55
  -2  -5 -11    0.97    0.70
  -2  -5 -11    1.88    0.92
  -2  -5 -12    2.78    1.03
  -2  -5 -13   28.08    2.39
  -2  -5 -14    0.48    0.79
  -2  -5 -15    0.46    0.81
   2   5  15    0.60    0.74
  -2  -5 -16   36.93    2.97
   2   5  16   41.29    2.81
  -2  -5 -17   27.16    2.67
   2   5  17   32.23    2.51
  -2  -5 -18    1.30    1.18
  -2  -5 -19    2.22    1.21
   2   6 -15    0.59    0.84
   2   6 -14   12.48    1.99
   2   6 -13  110.80    5.79
   2   6 -12    1.17    1.00
   2   6 -11   48.17    3.58
   2   6 -10  108.03    4.47
   2   6 -10  117.52    4.65
  -2  -6  10  119.40    4.72
   2   6 -10  124.81    5.73
   2   6  -9   49.08    2.69
   2   6  -9   55.26    3.02
  -2  -6   9   51.01    2.90
   2   6  -9   49.04    3.44
   2   6  -8    2.04    1.08
   2   6  -8    1.74    0.67
  -2  -6   8    1.31    0.66
   2   6  -8    1.45    0.59
   2   6  -7  122.43    4.12
   2   6  -7  135.36    4.87
  -2  -6   7  134.44    4.87
   2   6  -7  141.61    5.71
   2   6  -6  312.01    7.51
   2   6  -6  312.58    8.52
  -2  -6   6  323.06    8.59
   2   6  -6  331.77    9.52
   2   6  -5   33.04    2.51
   2   6  -5   31.18    2.11
   2   6  -5   31.01    1.56
  -2  -6   5   26.95    2.03
   2   6  -4    7.45    1.08
  -2  -6   4    7.11    1.12
   2   6  -4    6.57    0.63
   2   6  -3   84.39    3.63
  -2  -6   3   84.54    3.65
  -2  -6   3   93.87    4.16
   2   6  -2   38.95    2.37
  -2  -6   2   33.68    2.26
  -2  -6   2   37.01    2.50
   2   6  -1   62.15    3.04
  -2  -6   1   56.31    2.89
  -2  -6   1   64.65    3.28
   2   6   0   15.73    1.55
  -2  -6   0   16.66    1.60
  -2  -6   0   18.37    1.72
   2   6   1  297.39    8.03
  -2  -6  -1  282.23    7.87
  -2  -6  -1  286.36    7.99
  -2  -6  -2   75.24    3.48
  -2  -6  -2   84.44    3.60
  -2  -6  -3    5.93    1.05
  -2  -6  -3    5.42    0.35
  -2  -6  -3    5.02    1.01
  -2  -6  -4   26.70    2.08
  -2  -6  -4   28.61    1.14
  -2  -6  -5  104.02    4.30
  -2  -6  -5  105.87    3.02
  -2  -6  -6   57.21    3.15
  -2  -6  -6   59.66    2.29
  -2  -6  -7    9.51    1.47
  -2  -6  -7    9.35    0.99
  -2  -6  -8  281.09    7.25
  -2  -6  -8  278.59    8.29
  -2  -6  -9   80.19    3.97
  -2  -6  -9   75.81    3.27
  -2  -6 -10   44.80    2.98
  -2  -6 -10   45.82    2.63
  -2  -6 -11    2.29    1.11
  -2  -6 -11    2.63    0.95
  -2  -6 -12   20.22    2.14
  -2  -6 -13  102.15    4.96
  -2  -6 -14    0.08    0.83
  -2  -6 -15   14.68    2.06
  -2  -6 -16   30.79    2.84
   2   6  16   30.87    2.43
  -2  -6 -17    9.59    1.81
   2   6  17   10.55    1.54
  -2  -6 -18    5.55    1.54
  -2  -6 -19   13.16    2.11
  -2  -6 -20   14.77    2.26
   2   7 -13    4.54    1.52
   2   7 -12   25.12    2.78
   2   7 -11    2.20    1.14
  -2  -7  11    2.18    0.79
   2   7 -10    2.33    1.23
  -2  -7  10    0.37    0.70
   2   7  -9    3.73    1.30
   2   7  -9    4.04    1.01
  -2  -7   9    3.67    0.91
   2   7  -8   66.18    2.93
   2   7  -8   68.65    3.45
  -2  -7   8   63.56    3.35
   2   7  -8   63.70    4.03
   2   7  -7   81.13    3.06
  -2  -7   7   79.28    3.74
   2   7  -7   81.06    3.77
   2   7  -7   75.99    4.33
   2   7  -6   30.75    1.64
   2   7  -6   29.62    2.20
  -2  -7   6   31.18    2.24
   2   7  -6   35.53    2.85
   2   7  -5   89.76    4.49
   2   7  -5   82.52    2.64
   2   7  -5   82.55    3.80
  -2  -7   5   76.03    3.65
  -2  -7   4    2.13    0.82
   2   7  -4    2.77    0.45
   2   7  -4    2.81    0.91
   2   7  -3   46.03    2.73
  -2  -7   3   43.42    2.68
   2   7  -2   26.77    2.09
  -2  -7   2   21.97    1.97
   2   7  -1   15.33    1.58
  -2  -7   1   12.22    1.47
   2   7   0   47.84    2.85
  -2  -7   0   48.64    2.83
  -2  -7   0   52.89    3.11
  -2  -7  -1    2.59    0.84
  -2  -7  -1    2.55    0.89
  -2  -7  -2    4.17    0.98
  -2  -7  -2    4.48    1.07
  -2  -7  -3   21.98    2.00
  -2  -7  -3   20.70    1.82
  -2  -7  -4    3.10    0.94
  -2  -7  -4    2.73    0.98
  -2  -7  -5    3.89    0.93
  -2  -7  -5    3.87    1.07
  -2  -7  -5    4.38    0.53
  -2  -7  -6   52.99    2.06
  -2  -7  -6   61.62    3.45
  -2  -7  -7   25.94    2.28
  -2  -7  -7   21.07    1.36
  -2  -7  -8    2.64    1.05
  -2  -7  -8    1.35    0.60
  -2  -7  -9    9.95    1.61
  -2  -7  -9    7.22    1.05
  -2  -7 -10   19.53    1.68
  -2  -7 -10   23.40    2.29
  -2  -7 -11    3.14    1.31
  -2  -7 -11    4.08    0.92
  -2  -7 -12   44.67    3.30
  -2  -7 -13   22.49    2.38
  -2  -7 -14    2.11    1.14
  -2  -7 -15    8.31    1.71
  -2  -7 -16    1.41    1.11
  -2  -7 -17    3.16    1.44
  -2  -7 -18    6.18    1.58
   2   8 -11   15.28    2.39
   2   8 -10    6.19    1.70
  -2  -8  10    5.03    1.12
   2   8  -9   20.03    2.51
  -2  -8   9   15.77    1.72
   2   8  -8    4.68    1.48
  -2  -8   8    3.68    1.05
   2   8  -7   31.11    2.95
  -2  -8   7   28.83    2.28
   2   8  -6  116.42    5.55
  -2  -8   6  104.11    4.51
  -2  -8   5   12.63    1.57
   2   8  -5   12.35    0.83
  -2  -8   4  106.73    4.57
  -2  -8   3    4.89    1.03
  -2  -8   2   30.76    2.40
  -2  -8   1    3.21    0.92
  -2  -8   0  188.73    6.47
  -2  -8  -1  299.73    8.80
  -2  -8  -2    8.89    1.48
  -2  -8  -3   57.13    3.35
  -2  -8  -4  211.80    7.22
  -2  -8  -4  219.04    7.06
  -2  -8  -5  158.55    6.09
  -2  -8  -5  158.89    5.75
  -2  -8  -6    2.43    0.88
  -2  -8  -6    1.45    1.05
  -2  -8  -7  227.36    5.83
  -2  -8  -7  242.26    8.07
  -2  -8  -7  242.50    7.36
  -2  -8  -8   50.23    2.97
  -2  -8  -8   45.05    2.19
  -2  -8  -8   48.76    3.35
  -2  -8  -9  333.66    8.35
  -2  -8  -9  319.38   10.11
  -2  -8 -10    1.48    1.00
  -2  -8 -10   -0.32    0.49
  -2  -8 -11  225.01    8.16
  -2  -8 -11  208.80    6.57
  -2  -8 -12   68.06    4.30
  -2  -8 -13  120.15    5.97
  -2  -8 -14    4.03    1.38
  -2  -8 -15   74.84    4.82
  -2  -8 -16   48.72    3.86
  -2  -8 -17    9.35    1.81
   2   9  -9   -0.29    1.03
   2   9  -8   42.50    3.63
  -2  -9   8   36.92    2.70
  -2  -9   7  117.46    5.05
  -2  -9   6    3.53    1.07
  -2  -9   5    3.11    0.98
  -2  -9   4   12.96    1.72
  -2  -9   3   65.21    3.67
  -2  -9   2   26.19    2.36
  -2  -9   1   13.99    1.79
  -2  -9   0   15.75    1.85
  -2  -9  -1  119.58    5.19
  -2  -9  -2   33.86    2.72
  -2  -9  -3    0.75    0.85
  -2  -9  -4  156.84    6.26
  -2  -9  -5    1.75    0.98
  -2  -9  -6   -0.62    0.99
  -2  -9  -7    8.09    1.53
  -2  -9  -8   85.26    4.74
  -2  -9  -9   -0.05    0.90
  -2  -9 -10   -0.17    1.01
  -2  -9 -11   64.21    4.30
  -2  -9 -12   62.43    4.32
  -2  -9 -13    3.71    1.41
  -2  -9 -14    3.14    1.44
  -2  -9 -15    8.15    1.88
  -2 -10   7   50.60    3.32
  -2 -10   6   19.44    2.05
  -2 -10   5    2.43    1.05
  -2 -10   4   25.90    2.46
  -2 -10   3   16.84    2.01
  -2 -10   2   34.54    2.86
  -2 -10   1    0.00    0.80
  -2 -10   0  125.63    5.56
  -2 -10  -1  108.99    5.19
  -2 -10  -2   11.99    1.83
  -2 -10  -3   64.65    4.00
  -2 -10  -4  115.87    5.54
  -2 -10  -5   95.85    5.07
  -2 -10  -6    3.02    1.21
  -2 -10  -7    2.13    1.13
  -2 -10  -8  136.74    6.43
  -2 -10  -9   47.95    3.77
  -2 -10 -10    9.44    1.95
  -2 -10 -11   85.94    5.23
  -2 -10 -12   60.72    4.39
  -2 -10 -13   16.05    2.55
  -2 -11   5   28.47    2.66
  -2 -11   4   13.61    1.95
  -2 -11   3   -0.96    1.10
  -2 -11   2    7.75    1.61
  -2 -11   1   24.09    2.64
  -2 -11   0   19.43    2.26
  -2 -11  -1    1.82    1.10
  -2 -11  -2   37.96    3.20
  -2 -11  -3   87.39    4.95
  -2 -11  -4    0.81    0.96
  -2 -11  -5    0.59    0.94
  -2 -11  -6    5.32    1.54
  -2 -11  -7    8.92    1.83
  -2 -11  -8   -0.64    0.99
  -2 -11  -9    1.57    1.12
  -2 -11 -10    9.08    2.00
  -2 -12   3   45.38    3.54
  -2 -12   2    2.36    1.26
  -2 -12   1   11.71    1.94
  -2 -12   0   55.09    3.99
  -2 -12  -1   17.03    2.24
  -2 -12  -2    8.06    1.74
  -2 -12  -3   28.17    2.96
  -2 -12  -4   61.46    4.37
  -2 -12  -5   15.10    2.23
  -2 -12  -6   20.28    2.77
  -2 -12  -7    4.69    1.73
  -2 -13   1   33.59    3.29
  -2 -13   0    0.72    1.16
  -2 -13  -1   35.14    3.35
  -3  10  10    3.47    1.29
  -3  10   9    0.68    0.99
  -3  10   8    7.84    1.69
  -3  10   7    9.63    1.84
  -3  10   6    2.97    1.11
  -3  10   5    0.40    0.92
  -3  10   4    6.26    1.44
  -3  10   3    2.35    1.26
  -3  10   2    5.52    1.45
  -3  10   1    1.84    1.21
  -3  10   0   24.69    2.52
  -3  10   0   26.24    2.69
  -3  10  -1    6.16    1.47
  -3  10  -2    2.97    1.27
  -3  10  -3    1.60    1.20
  -3  10  -4   -1.16    1.10
  -3   9  12   49.96    3.94
  -3   9  11   27.73    2.90
  -3   9  10    6.30    1.54
  -3   9   9   13.84    2.15
  -3   9   8   63.28    4.09
  -3   9   7   58.49    3.86
  -3   9   6    0.47    0.99
  -3   9   5   37.99    3.07
  -3   9   4   66.47    4.09
  -3   9   3   11.57    1.41
  -3   9   3   11.34    1.77
  -3   9   2    0.22    0.66
  -3   9   2    0.48    0.98
  -3   9   1   60.43    3.84
  -3   9   1   61.28    3.60
  -3   9   0  206.38    7.47
  -3   9  -1   26.50    2.55
  -3   9  -2   32.75    2.96
  -3   9  -3   41.36    3.44
  -3   9  -4   21.03    2.56
  -3   9  -5    8.44    1.95
  -3   9  -6    4.50    1.34
  -3   8  13    3.99    1.53
  -3   8  12    3.10    1.12
  -3   8  11   -0.08    0.93
  -3   8  10   -0.32    0.90
  -3   8   9   19.24    2.35
  -3   8   8    8.26    1.65
  -3   8   7   -0.76    1.01
  -3   8   6   18.15    2.09
  -3   8   5   -0.32    0.94
  -3   8   4    0.17    0.55
  -3   8   4   -0.50    0.88
  -3   8   3    1.03    0.71
  -3   8   3   -0.57    0.95
  -3   8   2   14.96    1.62
  -3   8   2   14.45    1.89
  -3   8   1   60.07    3.37
  -3   8   0   61.59    3.53
  -3   8  -1    9.99    1.54
  -3   8  -2    7.48    1.45
  -3   8  -3   39.60    3.15
  -3   8  -4   72.59    4.43
  -3   8  -5    0.68    1.01
  -3   8  -6    2.61    1.17
  -3   8  -7   15.91    2.36
  -3   8  -8   45.12    3.82
  -3   7  14   -1.52    1.22
  -3   7  13   35.53    3.32
  -3   7  12  144.55    6.81
  -3   7  11   59.08    4.11
  -3   7  10   14.23    2.07
  -3   7   9  128.58    5.87
  -3   7   8  199.59    7.37
  -3   7   7   80.07    4.36
  -3   7   6    5.67    1.23
  -3   7   6    6.99    1.12
  -3   7   5  150.93    6.12
  -3   7   5  151.72    5.32
  -3   7   5  159.50    4.47
  -3   7   4    5.40    0.82
  -3   7   4    6.18    1.37
  -3   7   4    4.63    0.93
  -3   7   3   93.47    4.67
  -3   7   3  103.13    3.89
  -3   7   2   22.96    1.82
  -3   7   1   94.10    4.06
  -3   7   0   54.70    3.13
   3  -7   1    8.89    1.42
   3  -7   2  139.82    5.92
   3  -7   3   15.64    1.99
   3  -7   4    2.12    1.08
   3  -7   4    2.30    0.54
   3  -7   5    4.11    1.45
   3  -7   6   81.91    4.83
   3  -7   7   39.77    3.45
   3  -7   8   15.73    2.36
   3  -7   9   68.63    4.71
  -3   6  14    2.76    1.19
  -3   6  13   32.55    3.16
  -3   6  12    7.04    1.65
  -3   6  11    2.29    1.28
  -3   6  10   67.25    4.16
  -3   6   9  101.77    5.00
  -3   6   8   65.72    3.86
  -3   6   7   92.82    4.65
  -3   6   7  102.18    3.54
  -3   6   6    7.35    1.05
  -3   6   6    9.84    1.60
  -3   6   5   54.26    3.35
  -3   6   5   47.61    2.56
  -3   6   5   54.12    2.07
  -3   6   4   46.92    2.63
  -3   6   4   52.40    3.27
  -3   6   4   56.43    2.35
  -3   6   3    4.24    0.79
  -3   6   3    5.71    1.28
  -3   6   3    2.68    0.85
   3  -6  -2   81.01    3.70
  -3   6   2   82.19    3.77
   3  -6  -1   57.98    3.18
  -3   6   1   57.42    3.18
   3  -6   0    2.88    0.92
   3  -6   1   14.87    1.72
   3  -6   2   73.24    3.86
   3  -6   2   63.62    2.76
   3  -6   3    9.42    1.49
   3  -6   3    7.98    0.93
   3  -6   4    1.97    1.06
   3  -6   4    3.12    0.54
   3  -6   5    3.14    1.11
   3  -6   5    2.77    0.43
   3  -6   5    3.56    0.47
   3  -6   6    1.69    0.90
   3  -6   7   16.78    2.21
   3  -6   8    0.62    1.02
   3  -6   9   -1.31    1.21
   3  -6  10   13.45    2.31
   3  -6  11    1.89    1.33
  -3   5  15   13.62    2.28
   3  -5 -15   16.31    2.35
  -3   5  14    5.61    1.61
   3  -5 -14    3.06    1.40
   3  -5 -13   53.01    3.76
  -3   5  13   58.37    4.16
   3  -5 -12  112.95    5.41
  -3   5  12  116.71    5.79
   3  -5 -11   -0.79    0.98
  -3   5  11    0.67    0.88
   3  -5 -10   42.84    3.01
  -3   5  10   45.02    3.29
   3  -5  -9   70.46    3.73
  -3   5   9   70.78    4.02
   3  -5  -8  137.68    5.18
  -3   5   8  128.20    5.49
  -3   5   7   33.30    2.63
  -3   5   6  112.54    4.87
  -3   5   6   94.54    3.36
  -3   5   6  105.66    2.38
  -3   5   5  186.74    5.42
  -3   5   5  188.85    6.68
  -3   5   5  200.13    4.67
  -3   5   4  185.67    6.49
  -3   5   4  180.41    5.47
   3  -5  -4  186.68    5.45
   3  -5  -3   19.81    1.66
  -3   5   3   19.83    1.65
   3  -5  -2    7.39    1.10
  -3   5   2    7.09    1.13
   3  -5  -1  343.83    9.15
  -3   5   1  356.33    9.28
   3  -5   0   11.25    1.42
  -3   5   0   10.60    1.37
   3  -5   1   10.02    1.37
   3  -5   1   10.13    1.10
  -3   5  -1   11.37    1.46
   3  -5   2   85.16    3.99
   3  -5   2   74.61    2.94
   3  -5   3   40.38    2.78
   3  -5   3   39.57    1.91
   3  -5   4   10.71    0.86
   3  -5   4   10.66    1.49
   3  -5   5    4.98    1.25
   3  -5   5    4.34    0.48
   3  -5   6   55.93    3.57
   3  -5   7   58.66    3.71
   3  -5   8    6.92    1.63
   3  -5   9   61.74    4.09
   3  -5  10   35.00    3.17
   3  -5  11   41.11    3.55
   3  -5  12    0.98    0.98
   3  -5  13   11.52    2.05
   3  -4 -16   -0.96    1.35
  -3   4  15    1.03    1.04
   3  -4 -15    0.67    1.08
  -3   4  14   13.87    2.20
   3  -4 -14   16.76    2.24
  -3   4  13    0.96    0.97
   3  -4 -13   -0.25    1.02
   3  -4 -12    7.00    1.50
  -3   4  12    4.93    1.35
   3  -4 -11   15.47    1.92
  -3   4  11   18.51    2.17
   3  -4 -10    3.10    1.08
  -3   4  10    3.04    1.05
   3  -4  -9    0.22    0.75
  -3   4   9    2.36    1.04
   3  -4  -8  160.40    5.61
  -3   4   8  156.50    5.97
   3  -4  -7   11.22    1.37
  -3   4   7   12.26    1.57
   3  -4  -6    9.35    1.21
  -3   4   6    7.11    1.28
   3  -4  -5   51.19    2.53
  -3   4   5   51.22    3.08
   3  -4  -5   53.79    2.21
  -3   4   4   25.32    2.15
   3  -4  -4   26.23    1.67
   3  -4  -4   25.58    1.60
   3  -4  -3   31.68    1.89
  -3   4   3   25.66    1.71
   3  -4  -2    1.78    0.69
  -3   4   2    1.94    0.61
   3  -4  -1   14.19    1.41
  -3   4   1   12.17    1.33
   3  -4  -1   13.03    1.32
   3  -4   0    8.17    1.15
  -3   4   0    7.07    1.04
   3  -4   0    7.62    1.00
   3  -4   1   46.70    2.60
  -3   4  -1   44.76    2.62
   3  -4   1   42.66    2.15
   3  -4   2   13.10    1.49
   3  -4   2   11.54    1.06
  -3   4  -2   11.30    1.42
   3  -4   3    6.77    1.17
  -3   4  -3    8.45    1.29
   3  -4   3    7.49    0.79
   3  -4   4    1.14    0.84
   3  -4   4    0.13    0.29
   3  -4   5    0.01    0.76
   3  -4   5    1.15    0.32
   3  -4   6   41.73    2.87
   3  -4   7   50.43    3.26
   3  -4   8    1.50    1.07
   3  -4   9   10.22    1.73
   3  -4  10   12.41    1.79
   3  -4  11    1.05    1.02
   3  -4  12   20.05    2.53
   3  -4  13   -0.01    0.99
   3  -4  14    3.20    1.27
   3  -4  15   -0.32    1.18
  -3   3  16    4.01    1.42
   3  -3 -16    6.35    1.70
  -3   3  15    4.02    1.45
   3  -3 -15    3.44    1.38
   3  -3 -14   65.78    4.22
  -3   3  14   66.57    4.37
   3  -3 -13   82.46    4.63
  -3   3  13   80.26    4.72
   3  -3 -12   60.25    3.77
  -3   3  12   56.48    3.84
   3  -3 -11   26.79    2.42
  -3   3  11   27.37    2.55
  -3   3  10   68.59    3.92
   3  -3 -10   69.20    3.74
   3  -3  -9   12.74    1.60
  -3   3   9   13.29    1.71
   3  -3  -8  166.81    5.72
  -3   3   8  174.75    6.14
   3  -3  -7  160.08    5.27
  -3   3   7  144.86    5.58
   3  -3  -6  391.40    9.56
  -3   3   6  377.10   10.28
   3  -3  -6  394.10   10.25
   3  -3  -6  387.71    8.07
   3  -3  -5    3.56    0.75
   3  -3  -5    3.12    0.54
  -3   3   5    2.32    0.83
   3  -3  -5    2.33    0.75
   3  -3  -4   56.62    2.22
   3  -3  -4   52.89    2.38
  -3   3   4   55.12    3.05
   3  -3  -4   51.33    2.80
   3  -3  -3   90.07    3.10
   3  -3  -3   89.97    3.05
   3  -3  -3   85.97    3.62
   3  -3  -2  307.09    6.87
   3  -3  -2  303.62    7.98
   3  -3  -2  302.92    7.43
   3  -3  -1  198.20    4.58
   3  -3  -1  195.26    5.67
   3  -3  -1  191.03    5.53
  -3   3   0    4.11    0.85
   3  -3   0    4.83    0.95
   3  -3   0    4.43    0.73
  -3   3  -1  219.81    6.39
   3  -3   1  216.43    5.78
   3  -3   1  218.38    6.32
  -3   3  -2  139.69    4.85
   3  -3   2  131.09    3.92
   3  -3   2  135.06    4.73
  -3   3  -3  324.34    8.61
   3  -3   3  311.73    7.11
   3  -3   3  303.55    8.42
   3  -3   4   10.05    0.79
  -3   3  -4   12.73    1.46
   3  -3   4   12.45    1.47
   3  -3   5  111.90    2.86
  -3   3  -5  115.95    4.68
   3  -3   5  109.30    4.57
   3  -3   6   82.56    3.99
   3  -3   7   87.13    4.19
   3  -3   8    7.74    1.37
   3  -3   9  164.08    6.26
   3  -3  10  118.73    5.33
   3  -3  11    1.37    0.92
   3  -3  12   33.57    2.95
   3  -3  13   68.59    4.33
   3  -3  14   13.41    2.09
   3  -3  15    8.39    1.68
   3  -3  16    2.86    1.36
  -3   2  16   -0.16    1.15
   3  -2 -16    1.01    1.14
  -3   2  15    8.65    1.79
   3  -2 -15    8.30    1.63
   3  -2 -14   73.02    4.44
  -3   2  14   67.92    4.37
   3  -2 -13  259.55    8.88
  -3   2  13  262.16    9.14
   3  -2 -12   31.09    2.71
  -3   2  12   31.20    2.80
   3  -2 -11   19.63    2.13
  -3   2  11   20.06    2.17
  -3   2  10    9.20    1.62
  -3   2   9   58.90    3.43
  -3   2   8   19.63    1.94
  -3   2   7   89.77    4.09
   3  -2  -7   92.46    2.12
   3  -2  -7   98.99    4.29
  -3   2   7   94.02    2.32
  -3   2   6  269.16    7.91
   3  -2  -6  293.59    8.16
  -3   2   6  263.08    5.81
   3  -2  -6  293.91    5.91
   3  -2  -5    7.92    0.74
  -3   2   5   10.11    1.41
   3  -2  -5    8.44    1.22
  -3   2   4  108.81    4.33
   3  -2  -4  114.26    4.31
   3  -2  -4  111.00    3.22
   3  -2  -3  106.56    4.01
   3  -2  -3  106.68    3.30
   3  -2  -2   90.03    3.51
   3  -2  -2   88.44    3.08
   3  -2  -1    2.09    0.65
   3  -2  -1    1.37    0.56
   3  -2   0  240.71    5.17
   3  -2   0  246.37    6.40
   3  -2   0  257.88    6.55
   3  -2   1  389.03    7.34
   3  -2   1  390.87    8.89
   3  -2   1  403.22    9.44
   3  -2   2    6.67    1.10
   3  -2   2    4.62    0.69
   3  -2   3   46.29    1.93
   3  -2   3   45.08    2.52
   3  -2   4   99.68    2.92
   3  -2   4  102.06    4.04
   3  -2   5   87.42    2.50
   3  -2   5   95.37    3.96
   3  -2   6   15.31    0.77
   3  -2   6   17.61    1.74
   3  -2   7   21.75    1.97
   3  -2   8   55.64    3.19
   3  -2   9  101.52    4.62
   3  -2  10    3.13    1.18
   3  -2  11   66.01    3.90
   3  -2  12   71.16    4.12
   3  -2  13   21.19    2.34
   3  -2  14    4.20    1.32
   3  -2  15   -0.37    1.07
   3  -2  16    5.26    1.46
   3  -2  17   17.10    2.36
  -3   1  16   20.94    2.60
   3  -1 -16   26.89    2.83
  -3   1  15   25.35    2.77
   3  -1 -15   21.77    2.53
  -3   1  14  131.37    6.17
  -3   1  13   84.48    4.69
  -3   1  12    5.86    1.33
  -3   1  11    3.53    1.26
  -3   1  10  149.95    5.84
  -3   1   9  278.02    8.44
   3  -1  -8    2.99    0.97
  -3   1   8    2.39    0.96
   3  -1  -7  112.51    4.50
   3  -1  -7   97.13    2.38
  -3   1   7   99.10    2.89
  -3   1   7  100.25    4.21
  -3   1   6  190.64    6.10
   3  -1  -6  202.43    6.28
   3  -1  -6  187.85    4.31
  -3   1   6  188.54    4.61
  -3   1   5  186.22    5.99
   3  -1  -5  194.82    6.10
   3  -1  -5  193.21    4.59
   3  -1  -4    0.73    0.40
  -3   1   4    2.10    0.87
   3  -1  -4    0.27    0.64
   3  -1  -3  386.94    8.47
   3  -1  -3  383.86    9.51
   3  -1  -2  790.72   15.91
   3  -1  -2  791.44   16.65
   3  -1  -1    7.14    0.94
   3  -1  -1    7.25    0.95
   3  -1   0   49.13    2.32
   3  -1   0   43.21    2.14
   3  -1   1  428.16    9.55
   3  -1   1  434.76    9.97
  -3   1  -1  426.63    9.55
   3  -1   2  271.30    6.47
  -3   1  -2  250.19    6.33
   3  -1   2  289.27    7.20
   3  -1   3   49.33    2.02
   3  -1   3   47.99    1.23
  -3   1  -3   49.88    2.03
   3  -1   3   51.36    2.62
   3  -1   4  148.00    3.97
  -3   1  -4  153.78    4.02
   3  -1   4  153.04    5.07
   3  -1   5  230.02    5.45
  -3   1  -5  239.59    5.49
   3  -1   5  251.23    7.06
   3  -1   6  152.96    3.91
  -3   1  -6  165.94    3.97
   3  -1   6  166.77    5.56
  -3   1  -7   26.33    1.16
   3  -1   7   26.40    2.15
  -3   1  -8    6.71    0.54
   3  -1   8    5.82    1.22
  -3   1  -9   95.61    2.33
   3  -1   9   95.76    4.36
  -3   1 -10   35.36    1.00
   3  -1  10   39.02    2.77
   3  -1  11   98.22    4.63
   3  -1  12   57.70    3.52
   3  -1  13    1.99    1.02
   3  -1  14   11.79    1.80
   3  -1  15    1.99    1.23
   3  -1  16  127.27    6.04
   3  -1  17   15.90    2.27
   3  -1  18    2.08    1.25
  -3   0  17   11.32    2.20
  -3   0  16   13.09    2.10
  -3   0  15   89.14    5.12
  -3   0  14  100.85    5.32
  -3   0  13    3.32    1.14
  -3   0  12  147.90    6.11
  -3   0  11  166.09    6.37
  -3   0  10   49.48    3.13
   3   0 -10   42.22    1.15
   3   0  -9    4.55    0.40
  -3   0   9    5.42    1.22
  -3   0   8    6.93    0.83
   3   0  -8    7.38    1.20
  -3   0   8    9.72    1.42
  -3   0   7  263.13    7.60
   3   0  -7  287.80    7.96
  -3   0   7  253.25    6.36
  -3   0   6   70.49    3.30
   3   0  -6   77.48    3.53
  -3   0   6   73.14    2.61
  -3   0   5    6.99    0.79
   3   0  -5    4.86    0.89
  -3   0   5    6.67    1.12
  -3   0   4   84.31    3.47
   3   0  -4   83.13    3.49
  -3   0   3   40.79    2.40
   3   0  -3   39.06    2.25
  -3   0   3   37.46    2.21
   3   0  -2  237.89    6.42
  -3   0   2  224.59    6.35
   3   0  -1   11.12    1.17
  -3   0   1   12.26    1.25
   3   0   0  271.57    6.84
  -3   0   0  272.18    6.89
   3   0   1    1.14    0.54
  -3   0  -1    0.74    0.56
   3   0   2    3.37    0.66
  -3   0  -2    2.45    0.64
   3   0   3   67.62    2.52
   3   0   3   71.39    3.03
  -3   0  -3   67.59    2.53
   3   0   4  177.08    4.67
   3   0   4  171.46    5.39
  -3   0  -4  182.55    4.72
   3   0   5   47.20    1.97
  -3   0  -5   51.32    2.04
   3   0   5   57.44    2.84
   3   0   5   51.28    1.77
   3   0   6   32.95    1.45
   3   0   6   30.01    1.50
  -3   0  -6   35.52    1.62
   3   0   6   34.60    2.27
  -3   0  -7    4.69    0.66
   3   0   7    4.77    1.07
  -3   0  -8  103.38    3.07
   3   0   8  104.45    4.35
   3   0   9    2.61    1.00
  -3   0  -9    2.87    0.54
   3   0  10   10.60    1.56
  -3   0 -10   14.23    0.99
  -3   0 -11   69.50    2.41
   3   0  11   80.67    4.04
  -3   0 -12   49.63    1.94
   3   0  12   50.28    3.24
  -3   0 -13   41.13    1.75
   3   0  13   44.69    3.10
   3   0  14    0.55    0.83
   3   0  15   31.24    2.87
   3   0  16   20.59    2.36
   3   0  17    1.03    0.99
   3   0  18   -0.46    1.18
   3   0  19    1.69    1.14
  -3  -1  17   21.00    2.80
  -3  -1  16   13.14    2.10
  -3  -1  15   25.25    2.70
  -3  -1  14    3.47    1.23
  -3  -1  13   -0.38    0.85
  -3  -1  12   -0.33    0.83
   3   1 -12    0.98    0.41
  -3  -1  11   26.45    2.32
   3   1 -11   28.03    1.36
  -3  -1  10   11.57    1.54
   3   1 -10   12.30    0.89
   3   1  -9    1.02    0.37
   3   1  -9    2.37    0.87
  -3  -1   9    0.97    0.85
   3   1  -8   24.55    2.04
  -3  -1   8   23.51    1.93
   3   1  -8   25.12    2.08
  -3  -1   8   19.71    1.49
  -3  -1   7    1.69    0.52
   3   1  -7    3.20    0.99
  -3  -1   7    2.24    0.85
  -3  -1   6    9.46    1.02
   3   1  -6    9.71    1.24
  -3  -1   6    8.77    1.16
  -3  -1   5    1.62    0.55
   3   1  -5    2.24    0.68
  -3  -1   5    3.31    0.95
  -3  -1   5    3.46    0.89
   3   1  -4    4.36    0.94
  -3  -1   4    4.31    0.92
  -3  -1   4    2.81    0.89
  -3  -1   3  544.99   12.12
   3   1  -3  542.03   12.29
  -3  -1   3  540.78   12.31
   3   1  -2   22.05    1.61
  -3  -1   2   18.96    1.62
   3   1  -1    9.13    1.10
  -3  -1   1    7.95    1.12
   3   1   0   24.57    1.65
  -3  -1   0   22.37    1.62
   3   1   1   56.61    2.47
  -3  -1  -1   54.56    2.47
   3   1   2   30.26    1.73
  -3  -1  -2   32.36    1.83
   3   1   3    7.25    0.91
  -3  -1  -3    6.16    0.86
   3   1   4  141.53    4.19
  -3  -1  -4  145.95    4.23
   3   1   5  352.67    8.24
  -3  -1  -5  369.23    8.30
   3   1   6    9.89    0.89
   3   1   6   10.69    1.01
  -3  -1  -6    9.23    0.98
   3   1   7   70.79    2.69
  -3  -1  -7   75.04    2.74
   3   1   7   75.17    3.46
   3   1   8  127.60    4.05
  -3  -1  -8  133.96    3.99
   3   1   8  141.43    5.06
  -3  -1  -8  140.65    5.04
  -3  -1  -9   62.84    2.52
   3   1   9   63.12    3.31
  -3  -1  -9   65.49    3.43
  -3  -1 -10   12.25    1.10
   3   1  10   12.26    1.54
  -3  -1 -11   -0.17    0.46
   3   1  11    0.22    0.84
   3   1  12   88.63    4.32
  -3  -1 -12   87.24    3.17
   3   1  13    5.99    1.18
  -3  -1 -13    5.38    0.83
   3   1  14   14.41    1.90
  -3  -1 -14   18.78    1.41
   3   1  15   10.07    1.57
  -3  -1 -15   11.47    1.14
   3   1  16   57.88    3.77
   3   1  17    4.15    1.27
   3   1  18    5.02    1.33
   3   1  19    5.34    1.51
  -3  -2  17    3.34    1.47
  -3  -2  16   12.90    2.17
  -3  -2  15   21.20    2.56
  -3  -2  14  122.90    5.80
  -3  -2  13   14.81    1.98
  -3  -2  12  138.82    5.79
   3   2 -12  130.84    4.15
   3   2 -11  162.60    4.72
  -3  -2  11  170.70    6.29
  -3  -2  10    2.09    1.01
   3   2 -10    0.46    0.52
  -3  -2   9    6.25    1.19
   3   2  -9    5.53    0.77
   3   2  -9    7.58    1.29
   3   2  -8  106.03    4.38
  -3  -2   8  115.51    4.44
   3   2  -8  114.68    4.56
  -3  -2   8  103.24    4.03
   3   2  -7   62.78    3.13
  -3  -2   7   67.51    3.15
   3   2  -7   62.74    3.19
  -3  -2   7   59.08    3.08
  -3  -2   7   57.20    2.80
   3   2  -6   68.77    3.27
  -3  -2   6   60.32    3.13
  -3  -2   6   68.73    3.08
  -3  -2   6   63.65    2.93
  -3  -2   5   53.97    2.58
   3   2  -5   52.97    2.82
  -3  -2   5   52.26    2.82
  -3  -2   5   54.66    2.57
  -3  -2   4  325.64    7.88
   3   2  -4  310.58    8.25
  -3  -2   4  305.50    8.26
  -3  -2   4  312.00    7.85
  -3  -2   3   17.59    1.40
   3   2  -3   16.91    1.54
  -3  -2   3   18.20    1.63
   3   2  -2    0.57    0.56
  -3  -2   2    2.04    0.72
  -3  -2   2    1.36    0.77
   3   2  -1   76.35    3.15
  -3  -2   1   73.61    3.11
   3   2   0   14.67    1.37
  -3  -2   0   15.15    1.34
   3   2   1    6.45    0.92
  -3  -2  -1    5.19    0.94
   3   2   2  154.66    4.69
  -3  -2  -2  159.13    4.75
   3   2   3  155.70    4.74
  -3  -2  -3  166.14    4.85
   3   2   4  118.87    3.94
  -3  -2  -4  121.84    3.97
   3   2   5   12.41    1.17
  -3  -2  -5   11.54    1.17
   3   2   6   28.75    1.76
  -3  -2  -6   28.35    1.74
   3   2   7  312.02    7.78
  -3  -2  -7  325.45    7.84
   3   2   8   90.47    3.44
  -3  -2  -8   93.55    3.42
  -3  -2  -8   99.47    4.07
   3   2   9   18.33    1.52
  -3  -2  -9   18.80    1.45
  -3  -2  -9   18.04    1.76
   3   2  10   31.50    2.06
   3   2  10   32.68    2.37
  -3  -2 -10   30.81    1.91
  -3  -2 -11   12.71    1.28
   3   2  11   15.51    1.75
  -3  -2 -12   69.74    3.07
   3   2  12   70.43    3.78
  -3  -2 -13    1.50    0.71
   3   2  13    1.82    0.97
   3   2  14   16.51    1.95
  -3  -2 -14   18.10    1.61
  -3  -2 -15   25.12    1.92
   3   2  15   24.50    2.46
   3   2  16    4.54    1.20
  -3  -2 -16    4.76    0.96
   3   2  17    1.00    0.97
   3   2  18    5.23    1.33
   3   2  19   13.56    2.20
  -3  -3  17   16.74    2.56
  -3  -3  16    6.07    1.76
  -3  -3  15    3.69    1.37
  -3  -3  14   18.53    2.25
  -3  -3  13    1.49    0.99
  -3  -3  12    4.18    1.21
   3   3 -12    3.03    0.73
  -3  -3  11    8.04    1.36
   3   3 -11    7.80    1.07
  -3  -3  10    4.51    1.05
   3   3 -10    4.51    0.84
  -3  -3   9    4.86    1.10
   3   3  -9    3.67    0.82
   3   3  -9    2.48    0.84
  -3  -3   8    0.60    0.62
  -3  -3   8   -0.56    0.68
   3   3  -8    0.08    0.61
   3   3  -8    0.86    0.65
  -3  -3   8   -0.11    0.76
   3   3  -7   94.37    3.85
   3   3  -7   99.29    4.16
  -3  -3   7   90.95    3.73
  -3  -3   7   90.17    4.02
  -3  -3   7   89.28    3.86
  -3  -3   6   27.82    1.86
   3   3  -6   28.10    2.09
  -3  -3   6   29.39    2.16
  -3  -3   6   28.42    2.05
  -3  -3   5    0.71    0.63
   3   3  -5    1.15    0.71
  -3  -3   5    0.95    0.77
  -3  -3   5    0.16    0.49
  -3  -3   4  360.73    8.57
   3   3  -4  378.39    9.49
  -3  -3   4  367.87    9.44
  -3  -3   4  368.77    9.22
  -3  -3   3  148.31    4.36
   3   3  -3  152.05    5.08
  -3  -3   3  149.43    5.04
  -3  -3   3  154.75    4.97
  -3  -3   2   76.00    2.78
   3   3  -2   77.32    3.34
  -3  -3   2   72.11    3.24
   3   3  -1   52.95    2.64
  -3  -3   1   55.07    2.73
   3   3   0    3.61    0.92
  -3  -3   0    2.70    0.84
   3   3   1  123.68    4.21
  -3  -3  -1  117.49    4.19
   3   3   2  113.02    3.98
  -3  -3  -2  112.03    3.98
   3   3   3   41.01    2.27
  -3  -3  -3   43.31    2.32
   3   3   4  119.35    4.18
  -3  -3  -4  119.88    4.10
   3   3   5   14.36    1.36
  -3  -3  -5   13.21    1.35
   3   3   6   16.83    1.46
  -3  -3  -6   19.41    1.57
  -3  -3  -7   90.45    3.58
  -3  -3  -7   98.85    3.80
   3   3   8   74.10    3.23
  -3  -3  -8   71.18    3.15
  -3  -3  -8   72.07    3.38
   3   3   9   96.52    3.87
  -3  -3  -9   93.72    3.74
  -3  -3  -9   99.52    4.23
   3   3  10    2.61    0.77
  -3  -3 -10    3.03    0.94
  -3  -3 -10    3.34    0.89
   3   3  11   71.81    3.50
  -3  -3 -11   75.39    3.39
  -3  -3 -12   16.31    1.60
   3   3  12   16.23    1.81
  -3  -3 -13    7.97    1.20
   3   3  13    8.95    1.43
  -3  -3 -14    2.58    0.83
   3   3  14    0.84    0.80
  -3  -3 -15   22.27    1.99
   3   3  15   21.80    2.25
  -3  -3 -16   35.25    2.49
   3   3  16   39.50    3.03
   3   3  17    4.96    1.24
  -3  -3 -17    5.38    1.23
   3   3  18    0.55    0.88
   3   3  19   23.87    2.46
  -3  -4  16   29.30    3.06
  -3  -4  15   60.34    4.28
  -3  -4  14    2.05    1.05
  -3  -4  13   54.78    3.64
  -3  -4  12   93.14    4.61
   3   4 -11   26.87    2.04
  -3  -4  11   26.25    2.35
  -3  -4  10    1.10    0.74
   3   4 -10    1.32    0.70
   3   4  -9   97.52    4.19
   3   4  -9   99.08    4.00
  -3  -4   9   97.34    4.12
  -3  -4   9   96.27    4.40
   3   4  -8   33.48    2.25
  -3  -4   8   34.81    2.25
  -3  -4   8   29.37    2.34
   3   4  -8   32.07    2.13
   3   4  -7  143.56    5.35
   3   4  -7  140.32    4.85
  -3  -4   7  148.17    4.83
  -3  -4   7  138.50    5.25
  -3  -4   7  143.05    5.37
  -3  -4   6    5.58    0.86
  -3  -4   6    6.38    1.14
   3   4  -6    6.55    1.15
  -3  -4   6    4.49    1.07
   3   4  -5  400.19   10.33
  -3  -4   5  411.38    9.36
  -3  -4   5  385.03   10.20
  -3  -4   5  400.50   10.46
   3   4  -4  282.53    7.83
  -3  -4   4  277.02    6.80
  -3  -4   4  273.69    7.80
  -3  -4   4  272.27    7.80
  -3  -4   3   45.48    1.98
   3   4  -3   45.01    2.57
  -3  -4   3   44.58    2.59
  -3  -4   3   42.05    2.51
  -3  -4   2   79.23    2.70
   3   4  -2   86.43    3.63
  -3  -4   2   83.94    3.58
  -3  -4   2   84.10    3.60
  -3  -4   1  471.89    9.91
   3   4  -1  474.56   11.29
  -3  -4   1  466.22   11.24
   3   4   0  279.93    7.59
  -3  -4   0  273.01    7.55
   3   4   1    3.76    0.82
  -3  -4  -1    2.54    0.81
   3   4   2   52.32    2.67
  -3  -4  -2   51.44    2.69
   3   4   3  293.86    7.90
  -3  -4  -3  293.17    7.83
   3   4   4  177.60    5.54
  -3  -4  -4  164.28    5.38
   3   4   5   33.67    2.19
  -3  -4  -5   33.55    2.15
  -3  -4  -5   30.78    1.75
  -3  -4  -6  740.71   16.25
  -3  -4  -6  748.12   15.68
  -3  -4  -7  164.49    5.41
  -3  -4  -7  161.46    5.13
  -3  -4  -8   83.11    3.65
  -3  -4  -8   83.38    3.59
  -3  -4  -9    6.09    1.06
   3   4   9    5.20    1.06
  -3  -4  -9    4.29    0.98
   3   4  10  331.98    9.06
  -3  -4 -10  321.00    8.83
  -3  -4 -10  322.39    9.03
  -3  -4 -11  131.78    4.99
  -3  -4 -12    0.62    0.67
  -3  -4 -13   50.66    3.02
  -3  -4 -14   69.17    3.65
   3   4  14   61.16    3.61
  -3  -4 -15   47.93    3.09
   3   4  15   46.62    3.24
  -3  -4 -16    2.39    1.06
   3   4  16    4.72    1.30
  -3  -4 -17   16.66    1.90
   3   4  17   14.93    2.02
   3   4  18   58.77    3.92
  -3  -5  16    5.82    1.71
  -3  -5  15   19.84    2.43
  -3  -5  14    1.76    1.16
  -3  -5  13   21.77    2.35
  -3  -5  12   91.80    4.63
  -3  -5  11    0.07    0.71
  -3  -5  10    1.92    0.83
   3   5 -10    1.57    0.67
  -3  -5  10    1.66    0.77
  -3  -5   9   13.75    1.49
   3   5  -9   12.83    1.46
  -3  -5   9   11.63    1.56
   3   5  -8  237.38    6.95
  -3  -5   8  240.50    7.61
   3   5  -8  234.17    7.25
  -3  -5   8  241.26    6.92
   3   5  -7   17.86    1.51
  -3  -5   7   18.61    1.56
  -3  -5   7   19.61    1.94
   3   5  -6   36.38    2.47
  -3  -5   6   34.43    2.46
  -3  -5   6   34.61    1.97
  -3  -5   5    5.02    1.15
  -3  -5   5    2.66    0.64
   3   5  -5    3.30    0.85
  -3  -5   5    3.45    0.99
   3   5  -4  250.76    7.35
  -3  -5   4  233.13    7.17
  -3  -5   4  235.44    5.88
  -3  -5   4  240.42    7.49
   3   5  -3   31.97    2.24
  -3  -5   3   29.77    1.50
  -3  -5   3   30.66    2.26
  -3  -5   3   31.03    2.27
   3   5  -2   48.17    2.76
  -3  -5   2   48.19    1.84
  -3  -5   2   46.17    2.72
  -3  -5   2   48.96    2.82
  -3  -5   1   78.06    2.38
   3   5  -1   89.22    3.80
  -3  -5   1   83.92    3.72
  -3  -5   1   88.84    3.85
  -3  -5   0  172.00    5.71
  -3  -5   0  165.00    4.02
   3   5   0  176.46    5.71
  -3  -5   0  165.37    5.61
   3   5   1  127.91    4.71
  -3  -5  -1  121.67    4.66
   3   5   2  100.78    4.13
  -3  -5  -2   94.79    3.97
   3   5   3  195.88    6.24
  -3  -5  -3  198.97    6.21
   3   5   4   21.47    1.85
  -3  -5  -4   20.20    1.78
  -3  -5  -4   18.59    1.22
  -3  -5  -5    0.92    0.45
   3   5   5    0.51    0.59
  -3  -5  -5    0.63    0.71
  -3  -5  -6    9.01    1.01
  -3  -5  -6    8.53    1.20
  -3  -5  -7  194.86    6.35
  -3  -5  -7  196.55    5.65
  -3  -5  -8   52.66    3.01
  -3  -5  -8   51.22    2.60
  -3  -5  -9    0.93    0.60
  -3  -5  -9    1.11    0.77
  -3  -5 -10   15.97    1.63
  -3  -5 -10   15.26    1.75
  -3  -5 -11   18.40    1.87
  -3  -5 -12   25.98    2.31
  -3  -5 -13    3.29    1.01
  -3  -5 -14   13.76    1.77
  -3  -5 -15   13.63    1.81
   3   5  15   15.94    1.98
  -3  -5 -16   17.40    2.07
   3   5  16   20.59    2.20
  -3  -5 -17   -1.14    0.95
   3   5  17    1.83    0.94
  -3  -5 -18    0.19    1.00
   3   5  18    1.36    0.93
  -3  -6  14    4.58    1.28
  -3  -6  13   78.72    4.35
  -3  -6  12    4.78    1.22
  -3  -6  11   16.52    1.83
  -3  -6  11   16.64    1.99
  -3  -6  10    4.13    1.00
  -3  -6  10    4.37    1.19
   3   6  -9  254.01    7.55
  -3  -6   9  263.85    8.41
  -3  -6   9  275.70    7.76
   3   6  -8   18.52    1.58
  -3  -6   8   20.21    1.67
  -3  -6   8   21.00    2.06
  -3  -6   7    0.16    0.50
   3   6  -7   -0.27    0.65
  -3  -6   7    0.66    0.84
  -3  -6   6   63.15    3.45
  -3  -6   6   63.20    2.68
  -3  -6   5  174.61    6.10
  -3  -6   5  169.43    4.68
   3   6  -4  113.34    4.64
  -3  -6   4  109.92    4.60
  -3  -6   4  106.79    3.21
   3   6  -3   20.44    1.89
  -3  -6   3   18.03    1.01
  -3  -6   3   17.57    1.79
   3   6  -2  504.44   12.30
  -3  -6   2  492.07   12.23
  -3  -6   2  485.13    9.60
   3   6  -1  235.83    7.15
  -3  -6   1  217.45    6.97
  -3  -6   1  221.15    4.62
  -3  -6   1  235.92    7.33
   3   6   0   91.44    4.03
  -3  -6   0   87.94    3.97
  -3  -6   0   79.10    1.91
  -3  -6   0   90.35    4.04
  -3  -6  -1    1.86    0.80
  -3  -6  -1    1.82    0.25
   3   6   1    3.71    0.95
  -3  -6  -1    1.59    0.82
  -3  -6  -1    1.90    0.26
   3   6   2   42.14    2.69
  -3  -6  -2   44.24    2.73
  -3  -6  -2   41.52    1.37
   3   6   3  262.95    7.86
  -3  -6  -3  256.85    7.75
  -3  -6  -3  260.36    5.64
   3   6   4   73.83    3.70
  -3  -6  -4   81.32    3.83
  -3  -6  -4   80.91    2.51
  -3  -6  -5   61.71    3.33
  -3  -6  -5   59.78    2.26
  -3  -6  -6   50.41    3.05
  -3  -6  -6   53.18    2.26
  -3  -6  -7   31.36    2.42
  -3  -6  -7   30.24    1.79
  -3  -6  -8   33.14    2.53
  -3  -6  -8   31.00    1.93
  -3  -6  -9   30.24    2.43
  -3  -6  -9   26.59    1.92
  -3  -6 -10   80.20    4.09
  -3  -6 -10   81.19    3.63
  -3  -6 -11   18.62    1.78
  -3  -6 -11   20.42    2.09
  -3  -6 -12   16.60    1.96
  -3  -6 -13    3.36    1.19
  -3  -6 -14   37.67    3.07
  -3  -6 -15   23.17    2.38
   3   6  16    3.16    1.14
  -3  -6 -16    2.78    1.22
  -3  -6 -17   42.80    3.42
   3   6  17   43.98    3.33
  -3  -6 -18    9.52    1.77
   3   6  18   13.45    1.92
  -3  -6 -19    1.53    1.00
  -3  -7  11    4.77    1.25
  -3  -7  10    4.38    1.21
  -3  -7   9    5.15    1.29
  -3  -7   8    2.23    0.72
  -3  -7   8    4.02    1.16
  -3  -7   7   17.58    1.41
  -3  -7   7   18.07    2.00
  -3  -7   6   10.87    1.02
  -3  -7   6   10.53    1.57
  -3  -7   5    1.10    0.92
  -3  -7   4    7.34    1.33
  -3  -7   3    5.04    1.23
  -3  -7   2   38.66    2.74
  -3  -7   1    3.53    1.07
  -3  -7   0   11.24    1.54
  -3  -7  -1   12.54    1.60
  -3  -7  -2   27.98    2.32
  -3  -7  -3    3.64    1.08
  -3  -7  -4   15.31    0.78
  -3  -7  -4   14.83    1.78
  -3  -7  -5    1.82    0.87
  -3  -7  -5    2.50    0.43
  -3  -7  -6   41.44    2.93
  -3  -7  -6   40.71    1.83
  -3  -7  -7   51.54    3.29
  -3  -7  -7   55.11    2.36
  -3  -7  -8    1.68    0.57
  -3  -7  -8    3.40    1.06
  -3  -7  -9    0.53    0.58
  -3  -7  -9    0.60    0.80
  -3  -7 -10    0.67    0.52
  -3  -7 -10    1.17    0.99
  -3  -7 -11   21.70    1.88
  -3  -7 -11   20.03    2.24
  -3  -7 -12   43.44    3.28
  -3  -7 -13    6.82    1.51
  -3  -7 -14   30.65    2.82
  -3  -7 -15   24.24    2.65
  -3  -7 -16    2.79    1.31
  -3  -7 -17   14.47    2.10
  -3  -7 -18   12.41    2.15
  -3  -8  11    3.04    1.16
  -3  -8  10   45.43    3.32
  -3  -8   9   70.94    4.08
  -3  -8   8   38.06    2.94
  -3  -8   7    1.83    0.98
  -3  -8   6    1.58    0.98
  -3  -8   5  140.03    5.71
  -3  -8   4   69.84    3.98
  -3  -8   3    1.24    0.82
  -3  -8   2  167.79    6.37
  -3  -8   1   21.60    2.17
  -3  -8   0    1.11    0.92
  -3  -8  -1   24.06    2.30
  -3  -8  -2  144.32    5.79
  -3  -8  -3  134.25    5.59
  -3  -8  -4   -0.91    0.98
  -3  -8  -5   58.89    1.62
  -3  -8  -5   66.84    3.84
  -3  -8  -6   29.46    1.33
  -3  -8  -6   30.22    2.60
  -3  -8  -7   12.89    1.02
  -3  -8  -7   13.53    1.86
  -3  -8  -8   22.90    1.52
  -3  -8  -8   24.70    2.48
  -3  -8  -9   87.91    4.72
  -3  -8  -9   87.07    3.42
  -3  -8 -10   32.89    2.88
  -3  -8 -10   30.18    2.06
  -3  -8 -11   15.79    2.11
  -3  -8 -11   13.04    1.44
  -3  -8 -12    0.29    1.01
  -3  -8 -13  159.73    7.03
  -3  -8 -14   16.13    2.20
  -3  -8 -15   29.42    3.01
  -3  -8 -16   14.11    2.19
  -3  -9   9    1.95    1.09
  -3  -9   8   -0.36    0.85
  -3  -9   7   -0.37    0.76
  -3  -9   6    5.44    1.24
  -3  -9   5   12.32    1.74
  -3  -9   4   -0.58    0.89
  -3  -9   3   50.15    3.44
  -3  -9   2    3.26    1.09
  -3  -9   1    5.04    1.25
  -3  -9   0    6.90    1.55
  -3  -9  -1   58.88    3.70
  -3  -9  -2   41.42    3.12
  -3  -9  -3   11.13    1.77
  -3  -9  -4    7.58    1.50
  -3  -9  -5  101.74    5.09
  -3  -9  -6   78.95    4.51
  -3  -9  -7   12.01    1.77
  -3  -9  -8   42.60    3.43
  -3  -9  -9    4.30    1.34
  -3  -9 -10   22.68    2.58
  -3  -9 -11   78.39    4.77
  -3  -9 -12   17.93    2.40
  -3  -9 -13    2.56    1.09
  -3  -9 -14   20.24    2.55
  -3 -10   8    3.06    1.39
  -3 -10   7   15.82    2.11
  -3 -10   6   95.50    5.02
  -3 -10   5  119.36    5.71
  -3 -10   4    6.91    1.52
  -3 -10   3   48.96    3.58
  -3 -10   2   75.81    4.45
  -3 -10   1   15.07    2.12
  -3 -10   0   -0.37    1.09
  -3 -10  -1   19.65    2.36
  -3 -10  -2  161.66    6.79
  -3 -10  -3   56.54    3.89
  -3 -10  -4   29.84    2.83
  -3 -10  -5   88.81    4.97
  -3 -10  -6   99.46    5.34
  -3 -10  -7   -0.03    0.97
  -3 -10  -8   25.54    2.70
  -3 -10  -9  107.37    5.79
  -3 -10 -10   42.43    3.64
  -3 -10 -11    8.32    1.75
  -3 -10 -12   43.42    3.78
  -3 -11   6   17.67    2.36
  -3 -11   5   -1.84    1.18
  -3 -11   4   23.99    2.65
  -3 -11   3   20.49    2.46
  -3 -11   2    5.72    1.54
  -3 -11   1    2.43    1.12
  -3 -11   0   11.37    2.04
  -3 -11  -1   15.68    2.23
  -3 -11  -2    7.68    1.66
  -3 -11  -3    1.22    1.23
  -3 -11  -4   18.42    2.40
  -3 -11  -5   18.60    2.44
  -3 -11  -6    0.51    1.08
  -3 -11  -7   20.95    2.54
  -3 -11  -8    0.53    1.03
  -3 -11  -9   15.30    2.44
  -3 -12   4    1.39    1.21
  -3 -12   3   54.84    4.10
  -3 -12   2   33.42    3.29
  -3 -12   1    2.64    1.16
  -3 -12   0   14.79    2.28
  -3 -12  -1   82.91    5.22
  -3 -12  -2   45.85    3.82
  -3 -12  -3    2.49    1.37
  -3 -12  -4   52.15    4.13
  -3 -12  -5   90.07    5.53
  -4  10   5   30.88    3.11
  -4  10   4    0.39    1.07
  -4  10   3    7.45    1.77
  -4  10   2   22.20    2.62
  -4  10   1   14.75    2.32
  -4  10   0    1.55    1.29
  -4   9   8    1.92    1.03
  -4   9   7   19.80    2.50
  -4   9   6   45.57    3.75
  -4   9   5   10.06    1.93
  -4   9   4   11.31    1.97
  -4   9   3   52.86    4.00
  -4   9   2   22.73    2.73
  -4   9   1    0.42    1.01
  -4   9  -1   28.10    2.68
  -4   9  -2   34.87    3.06
  -4   9  -3    0.01    0.99
  -4   9  -4   88.09    5.32
  -4   8   9    4.66    1.50
  -4   8   8   -1.54    1.38
  -4   8   7    1.07    0.96
  -4   8   6   13.73    2.13
  -4   8   5   -0.52    0.97
  -4   8   4   -0.91    1.08
  -4   8   3    5.35    1.56
  -4   8   2    1.14    0.98
  -4   8   1   10.09    1.47
  -4   8   0    9.35    1.48
  -4   8  -1    1.32    1.01
  -4   8  -2    1.47    1.00
  -4   8  -3    0.41    0.95
   4  -8   3   -0.49    0.95
   4  -8   4   10.97    2.06
  -4   7  11  173.69    7.84
  -4   7  10   19.64    2.54
  -4   7   9   -0.15    1.04
  -4   7   8   88.98    5.09
  -4   7   7  143.94    6.55
  -4   7   6   24.53    2.73
  -4   7   5   17.12    2.33
  -4   7   4  181.89    7.40
  -4   7   3  128.03    6.04
  -4   7   3  138.30    4.81
  -4   7   2   12.69    1.44
   4  -7  -1   54.62    3.49
   4  -7   0   18.79    2.17
   4  -7   1  211.86    7.81
   4  -7   2    9.82    1.73
   4  -7   3   30.96    2.94
   4  -7   4   54.40    3.92
   4  -7   5   15.23    2.22
   4  -7   6   12.93    2.16
   4  -7   7    3.62    1.40
  -4   6  12   32.56    3.22
  -4   6  11    2.34    1.33
  -4   6  10   19.41    2.38
  -4   6   9    6.44    1.55
  -4   6   8   33.88    3.07
  -4   6   7   83.10    4.75
  -4   6   6    1.07    1.07
  -4   6   5   15.72    2.16
  -4   6   5   15.60    1.13
  -4   6   4   51.88    3.65
  -4   6   4   57.64    2.54
   4  -6  -3    2.27    0.86
  -4   6   3    1.49    1.02
   4  -6  -2   23.61    2.08
   4  -6  -1   15.25    1.79
   4  -6   0   88.68    4.41
   4  -6   0   85.72    3.89
   4  -6   1    3.50    0.99
   4  -6   1    4.68    0.96
   4  -6   2    4.47    1.31
   4  -6   3    4.97    1.36
   4  -6   4    3.89    1.33
   4  -6   5    2.40    1.21
   4  -6   6   13.92    2.18
   4  -6   7    5.19    1.56
   4  -6   8    3.83    1.36
   4  -6   9    3.38    1.39
   4  -5 -14   33.10    3.15
   4  -5 -13    8.41    1.72
  -4   5  13   10.97    2.18
   4  -5 -12   11.42    1.87
  -4   5  12   11.26    2.22
   4  -5 -11   61.59    3.90
  -4   5  11   70.13    4.54
   4  -5 -10   75.57    4.13
  -4   5  10   70.19    4.47
   4  -5  -9    7.70    1.35
  -4   5   9    9.44    1.79
   4  -5  -8  121.43    4.99
  -4   5   8  115.02    5.74
   4  -5  -7   53.66    3.00
  -4   5   7   50.17    3.59
  -4   5   6   14.89    1.98
  -4   5   6   14.27    0.82
   4  -5  -5    6.57    0.99
  -4   5   5    6.13    1.51
  -4   5   4  155.38    6.30
   4  -5  -4  142.47    4.96
   4  -5  -3  138.38    5.02
   4  -5  -2    5.23    1.06
   4  -5  -1   66.93    3.54
   4  -5  -1   69.57    3.51
   4  -5   0  301.61    8.78
   4  -5   0  292.78    8.28
   4  -5   1  151.94    5.76
   4  -5   1  137.90    4.94
   4  -5   2   26.01    2.33
   4  -5   2   28.16    1.88
   4  -5   3  166.52    6.45
   4  -5   3  169.89    5.08
   4  -5   4  100.60    4.88
   4  -5   4   96.09    3.29
   4  -5   5   51.29    3.51
   4  -5   6   -0.22    0.93
   4  -5   7   38.06    3.23
   4  -5   8   55.85    4.00
   4  -5   9   25.77    2.83
   4  -5  10    4.61    1.52
   4  -5  11   46.20    3.94
   4  -4 -15   -0.84    1.20
  -4   4  14    1.76    0.99
   4  -4 -14   -0.43    1.24
   4  -4 -13   -0.54    1.14
  -4   4  13    3.46    1.39
   4  -4 -12    3.09    1.20
  -4   4  12    2.65    1.20
   4  -4 -11   26.07    2.54
  -4   4  11   24.34    2.68
   4  -4 -10   -1.13    0.97
  -4   4  10    1.34    1.26
   4  -4  -9    0.95    0.82
  -4   4   9    1.20    0.90
   4  -4  -8   13.26    1.61
  -4   4   8   11.95    1.84
   4  -4  -7    9.25    1.26
  -4   4   7    7.72    1.50
   4  -4  -6    2.58    0.74
   4  -4  -6    4.28    0.73
  -4   4   6    7.16    1.48
   4  -4  -5    8.62    1.05
   4  -4  -5    9.04    1.15
  -4   4   5   10.75    1.73
   4  -4  -4   58.50    2.65
  -4   4   4   54.35    3.48
   4  -4  -4   59.18    2.79
   4  -4  -3   40.93    2.35
   4  -4  -2    1.08    0.59
   4  -4  -2    3.72    1.01
   4  -4  -1   29.36    2.12
   4  -4  -1   29.33    2.20
   4  -4   0    3.29    0.85
   4  -4   0    4.19    1.00
   4  -4   1    3.97    0.83
   4  -4   1    5.38    1.12
   4  -4   2   38.47    2.18
   4  -4   2   36.89    2.63
   4  -4   3   12.93    1.18
   4  -4   3   12.84    1.64
   4  -4   4   18.63    1.31
   4  -4   4   17.66    1.99
   4  -4   5    0.90    0.38
   4  -4   5    3.33    1.11
   4  -4   6    7.18    0.59
   4  -4   6    9.44    1.70
   4  -4   7    3.85    1.20
   4  -4   8    7.61    1.49
   4  -4   9    9.85    1.72
   4  -4  10    5.82    1.69
   4  -4  11    5.21    1.43
   4  -4  12   19.20    2.49
   4  -3 -15   57.01    4.24
  -4   3  14   18.10    2.34
   4  -3 -14   18.01    2.31
   4  -3 -13    8.40    1.74
  -4   3  13   10.01    1.87
   4  -3 -12   21.38    2.36
  -4   3  12   14.38    2.10
   4  -3 -11   99.62    4.91
  -4   3  11   98.57    5.32
   4  -3 -10   -0.58    0.94
  -4   3  10    0.60    1.03
   4  -3  -9   74.22    3.90
  -4   3   9   81.95    4.43
   4  -3  -8  140.51    5.29
  -4   3   8  131.41    5.78
   4  -3  -7   14.53    1.55
   4  -3  -7   15.11    1.02
  -4   3   7   16.82    1.98
  -4   3   7   13.53    0.76
   4  -3  -6    0.56    0.62
   4  -3  -6    0.77    0.46
  -4   3   6    1.80    1.12
   4  -3  -5   10.64    1.02
   4  -3  -5    8.91    1.15
  -4   3   5   10.83    1.60
   4  -3  -4  396.08    9.20
  -4   3   4  367.63   10.66
   4  -3  -4  378.19    9.01
   4  -3  -3    0.08    0.49
   4  -3  -3    0.38    0.51
   4  -3  -3    0.76    0.68
   4  -3  -2  110.25    3.40
   4  -3  -2  112.15    4.56
   4  -3  -2  113.18    4.14
   4  -3  -1    3.57    0.56
   4  -3  -1    3.57    0.85
   4  -3  -1    3.13    0.74
   4  -3   0  158.64    5.29
   4  -3   0  163.22    5.46
   4  -3   1   -0.66    0.63
   4  -3   1    1.03    0.64
   4  -3   2  108.15    3.86
   4  -3   2  111.50    4.52
   4  -3   3  154.84    4.69
   4  -3   3  158.09    5.72
   4  -3   4  102.65    3.45
   4  -3   4  107.06    4.65
   4  -3   5    2.13    1.04
   4  -3   5    2.51    0.52
   4  -3   6   24.92    1.24
   4  -3   6   26.82    2.44
   4  -3   7  141.75    3.22
   4  -3   7  146.08    6.03
   4  -3   8    8.04    1.53
   4  -3   9    4.36    1.25
   4  -3  10   32.46    2.98
   4  -3  11   98.85    5.31
   4  -3  12   15.41    2.18
   4  -3  13   15.39    2.29
   4  -3  14   46.58    3.92
  -4   2  15   -0.63    1.23
   4  -2 -15    0.68    0.96
  -4   2  14   -0.42    1.08
   4  -2 -14    0.37    1.09
   4  -2 -13   32.06    2.99
  -4   2  13   30.77    3.03
   4  -2 -12   73.71    4.37
  -4   2  12   70.16    4.45
   4  -2 -11   16.37    2.05
  -4   2  11   19.55    2.33
  -4   2  10    9.41    1.70
  -4   2   9  359.48   10.68
  -4   2   8    2.89    0.43
   4  -2  -8    3.11    0.37
  -4   2   8    3.13    1.09
  -4   2   7   12.30    1.72
  -4   2   7    9.97    0.80
   4  -2  -7    9.64    0.78
   4  -2  -6    0.70    0.44
  -4   2   6    0.15    0.86
  -4   2   5  211.56    7.34
   4  -2  -5  231.92    5.83
  -4   2   4   45.36    2.97
   4  -2  -4   43.78    2.82
   4  -2  -4   40.70    2.07
   4  -2  -3    3.47    0.75
   4  -2  -3    6.04    1.11
   4  -2  -2  108.40    4.37
   4  -2  -2  110.97    3.96
   4  -2  -1    5.86    0.99
   4  -2  -1    6.84    1.07
   4  -2   0    2.42    0.81
   4  -2   0    1.71    0.66
   4  -2   1    3.06    0.86
   4  -2   1    2.48    0.32
   4  -2   1    1.99    0.69
   4  -2   2  126.10    4.23
   4  -2   2  127.59    4.83
   4  -2   3   89.13    3.33
   4  -2   3   94.53    4.10
   4  -2   4    1.02    0.83
   4  -2   4    0.78    0.44
   4  -2   5   31.34    1.65
   4  -2   5   35.66    2.59
   4  -2   6    2.86    1.02
   4  -2   6    3.49    0.57
   4  -2   7    1.71    1.02
   4  -2   7    0.25    0.28
   4  -2   8    0.07    0.79
   4  -2   9   15.16    1.90
   4  -2  10   13.49    1.83
   4  -2  11    0.12    0.97
   4  -2  12   -0.35    1.05
   4  -2  13   10.86    1.92
   4  -2  14    5.54    1.44
   4  -2  15    3.94    1.35
  -4   1  15   18.83    2.62
   4  -1 -15   14.53    2.29
  -4   1  14   -0.02    1.02
  -4   1  13   24.85    2.80
  -4   1  12  111.61    5.67
  -4   1  11    7.69    1.64
  -4   1  10   25.64    2.46
  -4   1   9  115.23    5.24
  -4   1   8  143.74    5.79
   4  -1  -8  153.22    3.59
  -4   1   8  142.11    4.14
   4  -1  -7   21.90    1.20
  -4   1   7   18.12    1.96
  -4   1   7   21.00    1.31
  -4   1   6   68.78    2.64
  -4   1   6   70.19    3.77
   4  -1  -6   69.48    2.51
  -4   1   5  387.80   10.73
   4  -1  -5  405.53    9.02
  -4   1   4  160.33    5.88
   4  -1  -4  171.06    5.88
   4  -1  -4  163.71    4.79
   4  -1  -3   62.92    3.24
   4  -1  -3   58.15    2.64
   4  -1  -2   37.16    2.38
   4  -1  -2   35.35    2.11
   4  -1  -1  327.08    8.63
   4  -1  -1  322.99    8.29
   4  -1   0   56.45    2.81
   4  -1   0   58.28    2.85
   4  -1   1   27.50    1.89
   4  -1   1   26.60    1.98
   4  -1   2  314.38    8.05
   4  -1   2  330.45    8.73
   4  -1   3  146.05    4.59
  -4   1  -3  148.53    4.60
   4  -1   3  151.83    5.35
   4  -1   4   48.47    1.27
   4  -1   4   54.29    2.39
  -4   1  -4   51.63    2.33
   4  -1   4   53.26    3.03
   4  -1   5   43.77    2.09
  -4   1  -5   50.79    2.24
   4  -1   5   52.51    3.06
   4  -1   6  147.10    4.29
  -4   1  -6  153.33    4.33
   4  -1   6  158.17    5.82
   4  -1   7  118.82    3.62
  -4   1  -7  128.80    3.69
   4  -1   7  129.10    5.35
   4  -1   8    3.32    1.10
  -4   1  -8    1.53    0.44
  -4   1  -9   35.86    1.47
   4  -1   9   35.48    2.80
   4  -1  10   96.36    4.84
   4  -1  11   79.03    4.42
   4  -1  12    5.24    1.47
   4  -1  13   29.09    2.79
   4  -1  14   61.06    4.19
   4  -1  15    0.21    0.96
   4  -1  16    0.38    1.17
  -4   0  15    7.32    1.82
  -4   0  14   43.19    3.57
  -4   0  13    0.88    1.11
  -4   0  12    9.39    1.78
  -4   0  11   19.79    2.30
   4   0 -10  122.15    2.87
  -4   0  10  124.17    5.56
   4   0 -10  131.38    2.95
  -4   0   9   20.26    1.45
  -4   0   9   20.06    2.12
  -4   0   8   72.21    3.83
  -4   0   8   65.97    2.79
  -4   0   7  130.69    5.19
  -4   0   7  122.52    4.04
  -4   0   6  108.65    4.53
  -4   0   6   95.49    3.47
  -4   0   5  113.12    4.66
  -4   0   4   26.31    2.14
   4   0  -4   29.77    2.23
   4   0  -3  146.65    5.26
   4   0  -2   63.09    3.14
  -4   0   2   57.64    3.04
   4   0  -1   28.26    2.04
  -4   0   1   26.86    2.05
   4   0   0    3.22    0.88
  -4   0   0    3.51    0.89
   4   0   1   28.41    1.96
   4   0   1   28.86    1.91
  -4   0  -1   28.44    1.97
   4   0   2  292.55    7.67
   4   0   2  306.02    8.12
  -4   0  -2  288.99    7.67
   4   0   3   25.82    1.72
   4   0   3   24.46    1.95
  -4   0  -3   25.65    1.76
   4   0   4   25.45    1.64
   4   0   4   26.03    2.10
  -4   0  -4   26.86    1.75
   4   0   5    0.86    0.40
   4   0   5    0.91    0.49
   4   0   5    1.25    0.83
  -4   0  -5    1.00    0.59
   4   0   6   60.05    2.10
   4   0   6   62.06    2.60
  -4   0  -6   65.32    2.66
   4   0   6   67.26    3.57
   4   0   7   28.58    1.39
   4   0   7   27.67    1.64
  -4   0  -7   28.58    1.68
   4   0   7   28.42    2.33
  -4   0  -8    0.09    0.49
   4   0   8    0.10    0.88
  -4   0  -9   12.93    1.07
   4   0   9   10.57    1.57
  -4   0 -10   25.80    1.49
   4   0  10   27.46    2.48
   4   0  11   22.11    2.39
  -4   0 -11   19.44    1.23
   4   0  12    6.11    1.37
  -4   0 -12    7.33    0.78
   4   0  13    1.50    1.08
   4   0  14    1.44    1.07
   4   0  15    1.63    1.08
   4   0  16   17.28    2.36
   4   0  17    9.91    1.87
  -4  -1  15   17.11    2.42
  -4  -1  14    7.71    1.70
  -4  -1  13   92.19    5.09
  -4  -1  12   90.79    4.91
  -4  -1  11    2.95    1.18
   4   1 -10    2.24    0.51
  -4  -1  10    4.62    1.34
  -4  -1   9   64.36    3.71
  -4  -1   9   67.04    3.07
  -4  -1   8   69.59    3.71
  -4  -1   8   63.49    2.98
  -4  -1   7   23.02    2.05
  -4  -1   7   19.94    1.61
  -4  -1   6   25.92    2.13
  -4  -1   6   23.53    1.70
  -4  -1   5   30.70    1.96
  -4  -1   5   30.51    2.30
  -4  -1   5   29.66    2.32
  -4  -1   4   69.54    3.42
   4   1  -4   74.11    3.59
  -4  -1   4   66.23    3.50
  -4  -1   3   82.90    3.74
   4   1  -3   84.07    3.78
  -4  -1   3   80.94    3.77
   4   1  -2   62.32    3.14
  -4  -1   2   64.10    3.25
   4   1  -1  130.57    4.74
  -4  -1   1  123.85    4.67
   4   1   0   53.53    2.79
  -4  -1   0   47.63    2.68
   4   1   1  111.78    4.15
  -4  -1  -1  108.22    4.15
   4   1   2    6.30    1.03
  -4  -1  -2    5.65    0.97
   4   1   3   22.68    1.67
  -4  -1  -3   20.64    1.64
   4   1   4   52.26    2.54
  -4  -1  -4   55.21    2.66
   4   1   5   47.11    2.40
  -4  -1  -5   46.77    2.39
   4   1   6   89.04    3.43
   4   1   6   96.37    4.23
  -4  -1  -6   94.07    3.49
   4   1   7   44.93    2.05
   4   1   7   40.23    2.17
  -4  -1  -7   44.42    2.25
   4   1   7   45.81    2.91
   4   1   8    0.57    0.45
   4   1   8    1.48    0.59
   4   1   8    0.37    0.89
  -4  -1  -8    0.76    0.54
   4   1   9   97.03    3.53
  -4  -1  -9  101.38    3.61
   4   1   9  111.02    4.90
  -4  -1 -10   38.45    2.07
   4   1  10   42.38    3.05
  -4  -1 -11   85.12    3.25
   4   1  11   91.58    4.64
   4   1  12   13.50    1.94
  -4  -1 -12   13.89    1.25
  -4  -1 -13   56.12    2.45
   4   1  13   41.00    3.27
   4   1  14   47.80    3.55
   4   1  15   42.45    3.45
   4   1  16    8.89    1.76
   4   1  17    0.94    0.99
  -4  -2  15   13.13    2.28
  -4  -2  14   58.56    4.09
  -4  -2  13    9.48    1.80
  -4  -2  12   12.19    1.89
  -4  -2  11   -0.28    0.89
  -4  -2  10  271.74    8.53
   4   2 -10  248.08    6.50
  -4  -2   9    3.88    0.96
  -4  -2   9    3.00    1.02
  -4  -2   8   34.86    2.55
  -4  -2   8   33.61    2.28
  -4  -2   7  149.33    5.43
  -4  -2   7  141.80    5.64
  -4  -2   7  141.90    5.06
  -4  -2   6   51.38    2.87
  -4  -2   6   49.00    3.10
  -4  -2   6   50.43    2.74
  -4  -2   5  152.04    5.21
  -4  -2   5  136.34    5.37
  -4  -2   5  137.70    4.86
  -4  -2   4   25.36    2.00
   4   2  -4   28.31    2.21
  -4  -2   4   24.08    2.05
  -4  -2   3  132.28    4.75
   4   2  -3  133.62    5.05
  -4  -2   3  130.55    5.03
   4   2  -2  341.97    9.06
  -4  -2   2  313.15    8.88
   4   2  -1   89.13    3.84
  -4  -2   1   87.85    3.85
   4   2   0   40.63    2.45
  -4  -2   0   33.85    2.31
   4   2   1   39.15    2.34
  -4  -2  -1   33.53    2.21
   4   2   2  130.46    4.59
  -4  -2  -2  125.99    4.57
   4   2   3    0.71    0.53
  -4  -2  -3    0.87    0.71
   4   2   4   13.77    1.37
  -4  -2  -4   10.84    1.24
   4   2   5   14.02    1.38
  -4  -2  -5   12.93    1.40
   4   2   6   17.38    1.54
  -4  -2  -6   17.59    1.54
   4   2   7    6.09    0.97
  -4  -2  -7    8.00    1.10
   4   2   8   15.32    1.38
  -4  -2  -8   16.92    1.53
   4   2   9   23.37    1.75
  -4  -2  -9   24.14    1.82
   4   2   9   25.60    2.28
   4   2  10    2.37    0.74
   4   2  10    1.43    0.88
  -4  -2 -10    2.83    0.77
   4   2  11   46.73    2.67
  -4  -2 -11   52.13    2.68
   4   2  11   48.19    3.26
  -4  -2 -12    8.88    1.21
   4   2  12   10.72    1.74
  -4  -2 -13   34.46    2.22
   4   2  13   38.84    3.09
  -4  -2 -14    1.52    0.75
   4   2  14    0.83    0.95
   4   2  15   -0.09    1.02
   4   2  16   18.49    2.38
   4   2  17    0.69    0.97
   4   2  18    0.94    1.02
  -4  -3  16   20.74    2.73
  -4  -3  15    0.36    1.19
  -4  -3  14    9.78    1.76
  -4  -3  13   96.77    5.12
  -4  -3  12   77.11    4.39
  -4  -3  11   31.17    2.65
  -4  -3  10   74.02    3.95
   4   3 -10   68.49    3.08
  -4  -3   9  108.00    4.75
  -4  -3   8   45.71    2.90
  -4  -3   8   43.49    3.00
  -4  -3   8   44.01    2.82
  -4  -3   7    2.74    0.87
  -4  -3   7    6.08    1.33
  -4  -3   7    4.53    1.15
  -4  -3   6   21.23    1.84
  -4  -3   6   22.57    2.15
  -4  -3   6   24.10    1.98
  -4  -3   5   99.05    3.93
  -4  -3   5  100.71    4.50
  -4  -3   5  100.47    4.20
  -4  -3   4  117.46    4.26
  -4  -3   4  118.28    4.88
  -4  -3   4  117.28    4.55
  -4  -3   3   77.84    3.32
   4   3  -3   77.32    3.78
  -4  -3   3   76.12    3.74
  -4  -3   2  204.45    6.01
   4   3  -2  213.91    6.73
  -4  -3   2  196.94    6.52
   4   3  -1  284.15    8.05
  -4  -3   1  272.01    7.98
   4   3   0   15.09    1.53
  -4  -3   0   15.72    1.65
   4   3   1   53.48    2.88
  -4  -3  -1   50.22    2.81
   4   3   2  165.04    5.52
  -4  -3  -2  168.75    5.61
  -4  -3  -3   19.71    1.79
   4   3   3   15.79    1.57
   4   3   4    2.40    0.70
  -4  -3  -4    3.40    0.88
   4   3   5  121.66    4.56
  -4  -3  -5  123.21    4.54
   4   3   6  259.50    7.47
  -4  -3  -6  268.15    7.51
   4   3   7   23.09    1.85
  -4  -3  -7   27.97    2.02
  -4  -3  -8   14.19    1.58
  -4  -3  -8   13.80    1.48
   4   3   9   44.48    2.58
  -4  -3  -9   49.76    2.74
   4   3  10   32.75    2.25
  -4  -3 -10   32.45    2.21
   4   3  11   -0.67    0.64
   4   3  11    0.05    0.83
  -4  -3 -11   -0.55    0.68
   4   3  12   13.27    1.84
  -4  -3 -12   15.06    1.59
  -4  -3 -13   93.81    4.10
   4   3  13  103.54    5.11
  -4  -3 -14   31.06    2.30
   4   3  14   29.04    2.82
  -4  -3 -15    4.47    1.15
   4   3  15    1.73    1.02
   4   3  16    5.50    1.50
   4   3  17   28.81    2.95
   4   3  18   11.27    1.97
  -4  -4  16   11.59    2.26
  -4  -4  15   18.90    2.50
  -4  -4  14    9.53    1.81
  -4  -4  13   10.66    1.74
  -4  -4  12    5.47    1.39
  -4  -4  11   96.79    4.67
   4   4 -10   48.48    2.79
  -4  -4  10   50.29    3.17
  -4  -4   9    0.28    0.62
  -4  -4   9   -0.09    0.77
  -4  -4   8   40.68    2.65
  -4  -4   8   37.40    2.91
  -4  -4   7   35.76    2.37
  -4  -4   7   35.21    2.75
  -4  -4   6   31.99    2.18
  -4  -4   6   34.73    2.67
  -4  -4   5   11.29    1.47
  -4  -4   5   14.16    1.83
  -4  -4   5   11.30    1.28
  -4  -4   4    9.54    1.35
  -4  -4   4   11.56    1.59
  -4  -4   4    8.13    1.08
  -4  -4   3  311.30    7.95
  -4  -4   3  322.70    9.20
  -4  -4   3  328.38    9.06
  -4  -4   2   82.87    3.25
   4   4  -2   86.16    3.96
  -4  -4   2   82.35    3.95
  -4  -4   1   33.59    1.99
   4   4  -1   35.17    2.44
  -4  -4   1   34.30    2.44
   4   4   0   62.30    3.29
  -4  -4   0   57.76    3.19
   4   4   1  160.15    5.62
  -4  -4  -1  155.54    5.55
   4   4   2   12.04    1.46
  -4  -4  -2   11.43    1.47
   4   4   3   68.67    3.43
  -4  -4  -3   66.72    3.41
   4   4   4  118.70    4.65
  -4  -4  -4  109.12    4.50
   4   4   5   41.81    2.62
  -4  -4  -5   34.19    2.39
   4   4   6   31.01    2.29
  -4  -4  -6   34.38    2.37
   4   4   7   18.53    1.76
  -4  -4  -7   18.70    1.81
  -4  -4  -7   19.86    1.74
  -4  -4  -8   97.52    4.18
  -4  -4  -8   98.95    4.23
   4   4   9    5.70    1.11
  -4  -4  -9    7.13    1.26
  -4  -4  -9    4.30    1.03
  -4  -4 -10   80.56    3.83
  -4  -4 -11    9.73    1.41
  -4  -4 -12   56.41    3.26
   4   4  13   12.35    1.83
  -4  -4 -13    8.49    1.45
  -4  -4 -14   51.83    3.19
   4   4  14   46.02    3.47
  -4  -4 -15   34.53    2.67
   4   4  15   37.86    3.26
  -4  -4 -16    6.46    1.29
   4   4  16    4.46    1.27
   4   4  17    1.77    1.21
   4   4  18    5.32    1.63
   4   4  19    7.90    1.77
  -4  -5  15   20.52    2.56
  -4  -5  14    0.20    1.07
  -4  -5  13   -1.25    0.94
  -4  -5  12    0.79    0.90
  -4  -5  11   63.71    3.72
  -4  -5  10   35.69    2.64
  -4  -5  10   35.21    2.97
  -4  -5   9    0.84    0.67
  -4  -5   9   -0.60    0.96
  -4  -5   8   38.77    2.48
  -4  -5   8   35.42    2.93
  -4  -5   7    0.05    0.66
  -4  -5   7   -1.12    1.03
  -4  -5   6   11.40    1.31
  -4  -5   6   10.54    1.62
  -4  -5   5   55.96    2.70
  -4  -5   5   51.62    3.30
  -4  -5   4  250.57    6.64
  -4  -5   4  239.74    7.90
  -4  -5   3   41.06    2.10
  -4  -5   3   42.32    2.88
  -4  -5   2   -0.68    0.84
  -4  -5   2    1.39    0.49
  -4  -5   1   43.07    2.06
  -4  -5   1   39.55    2.79
  -4  -5   0  164.04    4.71
  -4  -5   0  164.05    5.95
  -4  -5  -1  132.41    5.22
  -4  -5  -2    0.73    0.80
  -4  -5  -3    0.02    0.71
  -4  -5  -4   76.67    3.79
  -4  -5  -5  126.74    5.10
  -4  -5  -6  175.12    6.20
  -4  -5  -6  180.51    5.56
  -4  -5  -7    8.00    1.12
  -4  -5  -7    9.54    1.43
  -4  -5  -8   26.85    2.27
  -4  -5  -8   28.68    2.15
  -4  -5  -9   48.72    3.07
  -4  -5  -9   50.17    3.01
  -4  -5 -10   76.04    3.94
  -4  -5 -11   17.21    1.94
  -4  -5 -12   13.49    1.77
  -4  -5 -13   15.46    1.87
  -4  -5 -14    4.60    1.23
   4   5  15    4.42    1.77
  -4  -5 -15    8.25    1.55
  -4  -5 -16   21.02    2.30
   4   5  16   25.84    2.66
  -4  -5 -17   20.96    2.34
   4   5  17   19.44    2.37
   4   5  18    0.72    1.20
  -4  -6  12   51.75    3.51
  -4  -6  11   66.98    4.28
  -4  -6  11   79.56    4.11
  -4  -6  10   35.85    3.10
  -4  -6  10   34.26    2.53
  -4  -6   9    5.93    1.12
  -4  -6   9    7.78    1.65
  -4  -6   8    3.56    0.91
  -4  -6   8    5.32    1.39
  -4  -6   7  118.45    5.46
  -4  -6   7  115.92    4.30
  -4  -6   6   30.81    2.69
  -4  -6   6   32.45    2.04
  -4  -6   5  143.18    4.49
  -4  -6   5  139.16    5.83
  -4  -6   4   18.49    1.39
  -4  -6   4   17.94    2.02
  -4  -6   3   68.11    2.62
  -4  -6   3   72.09    3.91
  -4  -6   2    4.81    1.23
  -4  -6   2    3.89    0.60
  -4  -6   1  100.76    3.08
  -4  -6   1   99.28    4.64
  -4  -6   0  169.63    4.46
  -4  -6   0  166.50    6.26
  -4  -6  -1   36.56    1.72
  -4  -6  -1   42.36    2.92
  -4  -6  -2  129.91    5.34
  -4  -6  -3  108.26    4.83
  -4  -6  -4  108.89    4.84
  -4  -6  -4  105.53    3.52
  -4  -6  -5   66.57    3.66
  -4  -6  -5   62.79    2.71
  -4  -6  -6    4.38    0.83
  -4  -6  -6    3.89    1.10
  -4  -6  -7  158.98    6.03
  -4  -6  -7  155.67    5.12
  -4  -6  -8  175.85    6.49
  -4  -6  -8  171.62    5.61
  -4  -6  -9    9.61    1.24
  -4  -6  -9   10.92    1.67
  -4  -6 -10   -0.63    0.68
  -4  -6 -10   -0.41    0.78
  -4  -6 -11   17.74    2.11
  -4  -6 -12   71.90    4.12
  -4  -6 -13    1.15    0.98
  -4  -6 -14   12.79    1.89
  -4  -6 -15   10.88    1.72
   4   6  16    6.19    1.58
  -4  -6 -16    5.29    1.37
  -4  -6 -17   14.65    2.06
   4   6  17   14.77    2.18
   4   6  18    2.45    1.11
  -4  -7  11   30.61    2.87
  -4  -7  10   10.56    1.86
  -4  -7   9    0.91    1.03
  -4  -7   8    4.44    0.97
  -4  -7   8    4.82    1.33
  -4  -7   7   34.30    3.01
  -4  -7   7   39.01    2.23
  -4  -7   6   73.49    4.26
  -4  -7   6   75.10    3.01
  -4  -7   5    2.56    0.54
  -4  -7   5    1.55    0.91
  -4  -7   4   12.21    0.99
  -4  -7   4   14.29    1.91
  -4  -7   3   64.93    3.82
  -4  -7   3   61.77    2.19
  -4  -7   2  101.53    4.95
  -4  -7   2  104.79    2.87
  -4  -7   1    5.74    0.54
  -4  -7   1    5.12    1.22
  -4  -7   0    3.78    1.07
  -4  -7   0    4.88    0.45
  -4  -7  -1   88.82    2.39
  -4  -7  -1   89.80    4.50
  -4  -7  -2    7.04    0.63
  -4  -7  -2    7.48    1.43
  -4  -7  -2    8.49    0.66
  -4  -7  -3   10.12    0.83
  -4  -7  -3    9.98    1.67
  -4  -7  -4    7.87    0.78
  -4  -7  -4    9.50    1.58
  -4  -7  -5   11.19    1.00
  -4  -7  -5   12.99    1.73
  -4  -7  -6   13.65    1.15
  -4  -7  -6   13.38    1.79
  -4  -7  -7    0.63    0.44
  -4  -7  -7    1.80    0.98
  -4  -7  -8   75.55    4.26
  -4  -7  -8   78.70    3.31
  -4  -7  -9   50.82    3.51
  -4  -7  -9   46.96    2.61
  -4  -7 -10    0.95    0.69
  -4  -7 -10   -0.46    0.98
  -4  -7 -11    7.40    1.55
  -4  -7 -12    4.89    1.43
  -4  -7 -13    6.93    1.57
  -4  -7 -14    0.64    1.10
  -4  -7 -15   17.28    2.30
  -4  -7 -16   40.09    3.48
   4   7  17   15.84    2.39
  -4  -7 -17   16.73    2.30
  -4  -7 -18    4.44    1.41
  -4  -8  11   15.50    2.17
  -4  -8  10    5.51    1.50
  -4  -8   9    0.28    0.94
  -4  -8   8   65.77    4.25
  -4  -8   7   76.38    4.55
  -4  -8   6    0.55    0.89
  -4  -8   5    8.44    1.63
  -4  -8   4   58.73    3.82
  -4  -8   3   49.20    3.49
  -4  -8   2   49.77    3.51
  -4  -8   1   98.22    4.98
  -4  -8   0  198.37    7.45
  -4  -8  -1   39.76    3.16
  -4  -8  -2   17.01    2.11
  -4  -8  -3   12.73    1.88
  -4  -8  -4   31.47    2.75
  -4  -8  -4   34.71    1.19
  -4  -8  -5  143.40    6.15
  -4  -8  -5  141.86    3.67
  -4  -8  -6   48.94    3.43
  -4  -8  -7  145.60    6.31
  -4  -8  -8   64.73    4.07
  -4  -8  -9   17.09    2.18
  -4  -8 -10    3.72    1.42
  -4  -8 -11   51.42    3.86
  -4  -8 -12   10.32    1.89
  -4  -8 -13    1.06    1.25
  -4  -8 -14    0.19    0.95
  -4  -8 -15    0.97    1.08
  -4  -8 -16   29.99    3.03
  -4  -9  10    0.32    0.90
  -4  -9   9   10.60    1.90
  -4  -9   8    6.60    1.56
  -4  -9   7    0.99    1.09
  -4  -9   6    2.56    1.21
  -4  -9   5    1.69    1.18
  -4  -9   4   19.90    2.32
  -4  -9   3   12.17    1.89
  -4  -9   2    3.04    1.33
  -4  -9   1    7.24    1.65
  -4  -9   0   32.77    2.94
  -4  -9  -1    0.76    0.92
  -4  -9  -2   32.82    3.01
  -4  -9  -3    2.69    1.26
  -4  -9  -4    1.19    0.96
  -4  -9  -5   -0.04    1.07
  -4  -9  -6    2.52    1.22
  -4  -9  -7   13.23    2.11
  -4  -9  -8   46.55    3.63
  -4  -9  -9   12.04    2.03
  -4  -9 -10   17.47    2.43
  -4  -9 -11    8.78    1.78
  -4  -9 -12   -0.06    1.01
  -4  -9 -13    3.35    1.42
  -4 -10   8   45.77    3.74
  -4 -10   7   13.33    2.21
  -4 -10   6    9.19    1.84
  -4 -10   5   80.79    4.89
  -4 -10   4   34.62    3.24
  -4 -10   3    2.67    1.34
  -4 -10   2   44.73    3.73
  -4 -10   1  186.42    7.77
  -4 -10   0   75.53    4.73
  -4 -10  -1    3.46    1.41
  -4 -10  -2   46.00    3.71
  -4 -10  -3   62.36    4.36
  -4 -10  -4   46.12    3.71
  -4 -10  -5    0.82    1.00
  -4 -10  -6   95.56    5.38
  -4 -10  -7   95.41    5.47
  -4 -10  -8    3.46    1.49
  -4 -10  -9    6.19    1.62
  -4 -10 -10   82.98    5.22
  -4 -11   6    3.00    1.47
  -4 -11   5    2.43    1.12
  -4 -11   4    0.05    1.03
  -4 -11   3    8.51    1.85
  -4 -11   2   11.19    2.04
  -4 -11   1   11.04    2.12
  -4 -11   0    2.96    1.33
  -4 -11  -1    2.68    1.37
  -4 -11  -2   12.67    2.16
  -4 -11  -3    2.35    1.29
  -4 -11  -4    0.75    1.13
  -4 -11  -5    2.10    1.35
  -4 -11  -6    3.13    1.23
   5  -8   1    6.10    1.59
  -5   7   6   27.41    3.01
  -5   7   5   35.92    3.53
  -5   7   4    2.60    1.14
  -5   7   3   86.73    5.35
   5  -7  -2   59.26    3.78
   5  -7  -1   19.81    2.28
   5  -7   0   19.36    2.38
   5  -7   1   34.02    3.04
   5  -7   2   25.46    2.77
   5  -7   3   -0.84    1.04
   5  -7   4    0.64    1.05
  -5   6   8    0.30    1.23
  -5   6   7   11.95    2.08
  -5   6   6   28.89    3.08
  -5   6   5    2.02    1.12
   5  -6  -4    1.81    0.83
  -5   6   4    3.01    1.42
  -5   6   3   34.55    3.31
   5  -6  -3   35.42    2.71
   5  -6  -2    1.62    0.75
   5  -6  -1    3.61    1.15
   5  -6   0    2.97    1.29
   5  -6   1    1.29    1.13
   5  -6   2   61.34    4.10
   5  -6   3    4.56    1.30
   5  -6   4   11.89    2.02
   5  -6   5    1.62    1.18
   5  -6   6   33.53    3.31
   5  -5 -13    8.11    1.82
   5  -5 -12   -0.12    0.96
   5  -5 -11   41.60    3.32
   5  -5 -10   84.97    4.55
  -5   5  10   83.49    5.20
   5  -5  -9   96.14    4.71
  -5   5   9   95.83    5.52
   5  -5  -8    6.71    1.25
  -5   5   8    9.66    1.77
  -5   5   7   38.27    3.42
  -5   5   6  132.73    6.46
  -5   5   5   30.69    3.09
   5  -5  -5   32.55    2.23
   5  -5  -4    4.56    0.97
  -5   5   4    4.51    1.59
   5  -5  -3   22.01    2.06
  -5   5   3   22.02    2.58
   5  -5  -2   67.01    3.69
   5  -5  -1   22.15    2.17
   5  -5   0   12.06    1.70
   5  -5   1   89.75    4.61
   5  -5   2   17.68    2.16
   5  -5   3    2.90    1.21
   5  -5   4   77.52    4.56
   5  -5   5   64.34    4.27
   5  -5   6   49.68    3.85
   5  -5   7   17.00    2.28
   5  -5   8   38.56    3.53
   5  -4 -13   -0.25    1.20
   5  -4 -12    0.17    1.17
   5  -4 -11   -0.60    1.10
  -5   4  11   -1.44    1.34
   5  -4 -10   12.64    1.78
  -5   4  10   13.59    2.19
   5  -4  -9    4.89    1.19
  -5   4   9    4.27    1.56
   5  -4  -8    0.16    0.81
  -5   4   8    1.62    1.02
   5  -4  -7   17.44    1.79
  -5   4   7   18.68    2.45
   5  -4  -6   15.83    1.64
   5  -4  -6   17.11    1.49
  -5   4   6   14.59    2.21
   5  -4  -5   22.32    1.78
   5  -4  -5   22.08    1.79
  -5   4   5   21.95    2.64
   5  -4  -4    1.52    0.69
   5  -4  -4    1.51    0.68
  -5   4   4   -0.20    1.09
   5  -4  -3    4.36    1.05
   5  -4  -2    6.67    1.16
   5  -4  -1   33.69    2.49
   5  -4   0   42.93    2.90
   5  -4   1   82.98    3.86
   5  -4   1   87.03    4.33
   5  -4   2   27.20    2.02
   5  -4   2   28.19    2.51
   5  -4   3   -0.69    0.99
   5  -4   4   29.14    2.72
   5  -4   5    7.85    1.62
   5  -4   6   59.72    4.04
   5  -4   7    1.11    1.12
   5  -4   8    7.08    1.57
   5  -4   9    5.51    1.71
   5  -3 -13   34.16    3.17
   5  -3 -12    3.57    1.33
  -5   3  12    0.10    1.22
   5  -3 -11   79.70    4.50
  -5   3  11   67.56    4.67
   5  -3 -10  107.13    5.12
  -5   3  10  101.67    5.61
   5  -3  -9   21.96    2.22
  -5   3   9   21.91    2.62
   5  -3  -8    0.37    0.76
  -5   3   8   -0.74    0.98
   5  -3  -7  206.66    6.83
   5  -3  -7  212.95    5.59
  -5   3   7  196.31    7.90
   5  -3  -6  136.44    4.40
   5  -3  -6  142.83    5.14
  -5   3   6  135.43    6.23
   5  -3  -5    2.35    0.73
  -5   3   5    0.50    1.09
   5  -3  -5    1.69    0.67
   5  -3  -4   27.23    1.85
  -5   3   4   23.61    2.52
   5  -3  -4   24.58    1.87
   5  -3  -3   39.20    2.09
   5  -3  -3   38.34    2.45
   5  -3  -2   48.30    2.12
   5  -3  -2   46.94    2.84
   5  -3  -1   77.92    2.48
   5  -3  -1   68.86    3.55
   5  -3   0  199.51    6.61
   5  -3   0  197.28    6.67
   5  -3   1   40.68    2.57
   5  -3   1   40.06    2.77
   5  -3   2    1.57    0.93
   5  -3   2    2.90    0.82
   5  -3   3   20.37    1.69
   5  -3   3   21.29    2.22
   5  -3   4   71.60    3.14
   5  -3   4   66.09    3.89
   5  -3   5   21.07    2.22
   5  -3   6    0.28    0.90
   5  -3   7   10.67    1.79
   5  -3   8   73.72    4.58
   5  -3   9   10.80    1.93
   5  -3  10    0.82    1.11
   5  -3  11   22.24    2.67
   5  -2 -14    8.70    1.93
   5  -2 -13    0.29    0.96
   5  -2 -12   22.97    2.64
  -5   2  12   24.24    2.98
   5  -2 -11    4.09    1.30
  -5   2  11    2.68    1.30
  -5   2  10   15.80    2.19
  -5   2   9    0.71    1.19
  -5   2   8   87.37    4.86
  -5   2   7   71.49    4.35
   5  -2  -7   83.73    2.97
  -5   2   6   50.95    3.57
   5  -2  -6   51.31    2.40
  -5   2   5   98.58    5.08
   5  -2  -5  101.63    3.75
   5  -2  -4    1.30    0.67
  -5   2   4    2.12    1.08
   5  -2  -3   54.37    2.85
   5  -2  -2   80.36    3.67
   5  -2  -1   67.54    3.41
   5  -2   0   29.91    1.40
   5  -2   0   28.43    2.25
   5  -2   0   29.55    2.30
   5  -2   1   73.35    2.03
   5  -2   1   69.51    3.47
   5  -2   1   76.08    3.83
   5  -2   2    2.95    1.03
   5  -2   2    3.15    0.86
   5  -2   3   -0.25    0.86
   5  -2   3    1.29    0.75
   5  -2   4    0.19    0.82
   5  -2   4    0.51    0.54
   5  -2   5   28.49    1.87
   5  -2   5   30.83    2.65
   5  -2   6    8.00    1.48
   5  -2   6    5.84    0.84
   5  -2   7   13.98    2.00
   5  -2   8    0.99    0.92
   5  -2   9    2.99    1.34
   5  -2  10    2.17    1.12
   5  -2  11   -0.71    0.97
   5  -2  12    4.38    1.63
  -5   1  13   24.26    2.88
  -5   1  12    1.03    1.39
  -5   1  11   37.56    3.37
  -5   1  10   22.58    2.59
  -5   1   9    3.35    1.27
  -5   1   8   53.88    3.71
   5  -1  -8   63.13    2.33
  -5   1   7   75.01    4.27
   5  -1  -7   70.47    2.77
  -5   1   7   70.59    2.98
  -5   1   6   30.31    2.73
   5  -1  -6   32.73    1.91
  -5   1   5    6.07    1.39
   5  -1  -5    7.73    1.06
  -5   1   4  141.08    6.02
   5  -1  -4  149.07    4.93
   5  -1  -3   70.83    3.27
   5  -1  -2    8.02    1.19
   5  -1  -1   54.26    2.98
   5  -1   0  179.83    6.16
   5  -1   0  177.22    6.06
   5  -1   1  241.00    7.34
   5  -1   1  237.85    7.48
   5  -1   2   20.64    1.83
   5  -1   2   21.74    2.15
   5  -1   3   86.46    3.78
   5  -1   3   97.05    4.48
   5  -1   4   87.97    3.66
   5  -1   4   94.95    4.55
   5  -1   5   64.66    2.99
   5  -1   5   69.14    3.90
   5  -1   6    0.44    0.89
   5  -1   6    0.46    0.45
   5  -1   7   33.41    1.96
   5  -1   7   38.76    3.09
   5  -1   8   69.80    4.24
   5  -1   9    4.15    1.23
   5  -1  10    3.08    1.23
   5  -1  11   41.98    3.41
   5  -1  12   30.90    3.05
   5  -1  13    3.83    1.52
  -5   0  13    6.54    1.68
  -5   0  12    8.65    1.90
  -5   0  11    3.44    1.39
  -5   0  10    4.59    1.45
  -5   0   9    7.96    1.58
  -5   0   8   29.59    2.71
   5   0  -8   27.79    1.61
  -5   0   8   33.27    2.05
  -5   0   7    2.75    0.71
   5   0  -7    3.05    0.73
  -5   0   7    4.11    1.24
  -5   0   6   30.22    2.04
   5   0  -6   29.88    1.87
  -5   0   6   30.90    2.70
   5   0  -5    0.19    0.56
  -5   0   5    0.71    0.92
   5   0  -4   15.84    1.52
  -5   0   4   15.92    1.94
   5   0  -3   11.05    1.36
  -5   0   3   11.22    1.69
   5   0  -2    9.05    1.24
   5   0  -1   19.34    1.75
  -5   0   1   15.90    1.70
   5   0   0   10.15    1.39
   5   0   0   10.03    1.43
  -5   0   0    6.24    1.19
   5   0   1   27.06    2.13
   5   0   1   26.82    2.14
  -5   0  -1   26.50    2.15
   5   0   2    1.85    0.89
   5   0   2    1.19    0.68
  -5   0  -2    0.03    0.64
   5   0   3   17.91    1.63
  -5   0  -3   20.07    1.79
   5   0   3   19.26    1.97
   5   0   4   33.63    2.23
   5   0   4   37.45    2.75
  -5   0  -4   36.40    2.32
   5   0   5    0.15    0.34
   5   0   5    0.33    0.51
   5   0   5    0.03    0.80
  -5   0  -5    0.77    0.60
   5   0   6   45.65    1.76
   5   0   6   44.45    2.48
  -5   0  -6   45.36    2.50
   5   0   6   48.85    3.28
   5   0   7    1.32    0.40
   5   0   7    1.27    0.58
  -5   0  -7    1.52    0.53
   5   0   7    1.66    0.87
   5   0   8    3.17    0.72
  -5   0  -8    3.79    0.87
   5   0   8    1.78    1.02
   5   0   9    9.61    1.66
  -5   0  -9   12.46    1.22
   5   0  10   23.86    2.69
  -5   0 -10   24.30    1.61
   5   0  11   31.97    3.08
   5   0  12   12.92    2.09
   5   0  13    0.89    1.34
   5   0  14    2.62    1.18
  -5  -1  14   12.06    2.07
  -5  -1  13    8.21    1.82
  -5  -1  12   25.76    2.76
  -5  -1  11   77.83    4.67
  -5  -1  10    6.10    1.54
  -5  -1   9   41.98    3.26
  -5  -1   8   81.88    4.38
  -5  -1   8   83.59    3.74
  -5  -1   7   96.12    4.65
  -5  -1   7   86.23    3.82
  -5  -1   6   36.61    2.76
  -5  -1   6   38.29    2.42
  -5  -1   5  112.13    5.04
  -5  -1   4  193.39    6.84
  -5  -1   4  192.92    6.88
  -5  -1   3    5.68    1.32
  -5  -1   3    6.77    1.26
  -5  -1   2   17.66    1.97
  -5  -1   1   11.09    1.53
  -5  -1   0  199.93    6.71
   5   1   1  212.55    6.81
  -5  -1  -1  199.92    6.68
   5   1   2   13.72    1.57
  -5  -1  -2   12.90    1.49
   5   1   3  115.97    4.58
  -5  -1  -3  117.00    4.64
   5   1   4  169.88    5.73
   5   1   4  177.08    6.34
  -5  -1  -4  168.02    5.72
  -5  -1  -5   18.48    1.71
   5   1   5   16.75    1.91
   5   1   5   15.14    1.57
   5   1   6   43.14    2.53
   5   1   6   45.31    3.11
  -5  -1  -6   46.45    2.64
   5   1   7   16.47    1.25
  -5  -1  -7   18.02    1.67
   5   1   7   14.61    1.49
   5   1   7   18.42    2.15
   5   1   8   72.41    2.83
   5   1   8   68.00    3.24
  -5  -1  -8   75.06    3.35
   5   1   8   78.66    4.36
   5   1   9    1.10    0.47
  -5  -1  -9    1.10    0.71
   5   1   9    1.04    0.95
  -5  -1 -10    5.70    0.92
   5   1  10    7.09    1.62
  -5  -1 -11   34.37    2.11
   5   1  11   33.31    3.10
   5   1  12   37.41    3.24
   5   1  13    2.80    1.25
   5   1  14    7.07    1.67
   5   1  15   34.35    3.35
  -5  -2  14    0.34    0.91
  -5  -2  13   35.32    3.22
  -5  -2  12   27.82    2.87
  -5  -2  11   13.24    1.95
  -5  -2  10    1.41    0.99
  -5  -2   9    7.03    1.35
  -5  -2   8   71.75    4.03
  -5  -2   8   71.42    3.65
  -5  -2   7   68.01    3.78
  -5  -2   7   62.37    3.35
  -5  -2   6  114.99    5.00
  -5  -2   6  118.06    5.37
  -5  -2   6  115.79    4.71
  -5  -2   5   13.21    1.59
  -5  -2   5    8.71    1.42
  -5  -2   5    8.46    1.47
  -5  -2   4   15.99    1.83
  -5  -2   4   13.17    1.79
  -5  -2   3   -1.41    0.98
  -5  -2   3   -0.37    0.92
  -5  -2   2    1.69    0.98
  -5  -2   1   85.90    4.19
  -5  -2   0    0.53    0.83
  -5  -2  -1    9.12    1.36
   5   2   2  137.24    5.23
  -5  -2  -2  137.47    5.26
   5   2   3  171.20    5.92
  -5  -2  -3  167.46    5.90
   5   2   4    9.45    1.31
  -5  -2  -4    9.90    1.35
   5   2   5   -0.75    0.60
  -5  -2  -5    0.69    0.75
   5   2   6   62.00    3.25
  -5  -2  -6   61.75    3.20
   5   2   7   10.92    1.37
  -5  -2  -7    8.86    1.27
   5   2   8    2.50    0.72
   5   2   8    2.34    0.78
   5   2   8    2.16    0.97
  -5  -2  -8    1.66    0.74
   5   2   9    0.84    0.49
   5   2   9    0.54    0.86
  -5  -2  -9    0.22    0.61
   5   2  10   21.11    1.75
  -5  -2 -10   22.70    1.91
   5   2  10   22.41    2.47
  -5  -2 -11   33.74    2.29
   5   2  11   34.39    3.07
  -5  -2 -12    0.77    0.66
   5   2  12    0.57    1.04
   5   2  13    3.86    1.42
   5   2  14    5.75    1.61
   5   2  15    1.26    0.99
  -5  -3  14    8.52    1.85
  -5  -3  13    3.82    1.43
  -5  -3  12   71.54    4.45
  -5  -3  11   28.37    2.73
  -5  -3  10    8.05    1.62
  -5  -3   9   55.80    3.59
  -5  -3   8  143.49    5.86
  -5  -3   7  155.73    6.05
  -5  -3   7  181.66    7.05
  -5  -3   6   21.25    2.30
  -5  -3   6   19.84    1.92
  -5  -3   5  190.74    6.52
  -5  -3   5  200.48    7.33
  -5  -3   4  190.86    6.43
  -5  -3   4  183.30    6.93
  -5  -3   3  162.33    5.82
  -5  -3   3  169.86    6.48
  -5  -3   2    4.32    1.13
  -5  -3   2    2.24    1.00
  -5  -3   1  130.37    5.39
  -5  -3   0  381.27   10.57
  -5  -3  -1    6.95    1.23
  -5  -3  -2   61.69    3.43
  -5  -3  -3  318.00    9.11
  -5  -3  -4   90.29    4.15
  -5  -3  -5   18.07    1.83
  -5  -3  -6   53.52    3.10
   5   3   7   93.97    4.27
  -5  -3  -7  100.73    4.34
   5   3   8   88.56    4.16
  -5  -3  -8   94.67    4.20
   5   3   9   -0.04    0.59
  -5  -3  -9    0.01    0.73
   5   3  10   67.05    3.36
   5   3  10   72.25    4.25
  -5  -3 -10   68.54    3.54
  -5  -3 -11   60.48    3.34
   5   3  11   60.38    4.01
   5   3  12    7.99    1.64
  -5  -3 -12    9.70    1.47
  -5  -3 -13    4.61    1.08
   5   3  13    7.43    1.70
   5   3  14   31.93    3.09
   5   3  15   18.96    2.47
  -5  -4  14   -0.07    1.04
  -5  -4  13   33.85    3.10
  -5  -4  12    3.32    1.15
  -5  -4  11    0.29    0.87
  -5  -4  10    3.50    1.14
  -5  -4   9   33.35    2.69
  -5  -4   9   32.16    3.04
  -5  -4   8   10.91    1.78
  -5  -4   8   13.42    1.71
  -5  -4   7   22.68    2.10
  -5  -4   7   21.64    2.37
  -5  -4   6   33.72    2.46
  -5  -4   6   36.97    3.04
  -5  -4   5   44.54    2.75
  -5  -4   5   49.36    3.47
  -5  -4   4    2.18    1.09
  -5  -4   4    1.96    0.76
  -5  -4   3    1.00    0.91
  -5  -4   3    0.73    0.70
  -5  -4   2   14.51    1.81
  -5  -4   2   15.45    1.59
  -5  -4   1    5.43    1.08
  -5  -4   1    5.46    1.38
  -5  -4   0   28.72    2.45
  -5  -4  -1   83.87    4.21
  -5  -4  -2   46.87    3.01
  -5  -4  -3    2.05    0.98
  -5  -4  -4    5.60    1.20
  -5  -4  -5   52.79    3.19
  -5  -4  -6   38.92    2.79
  -5  -4  -7    2.69    1.06
  -5  -4  -8   -0.08    0.81
  -5  -4  -9   -0.48    0.88
  -5  -4 -10   26.74    2.34
  -5  -4 -11    3.70    1.07
  -5  -4 -12    5.59    1.27
   5   4  13    1.29    1.31
  -5  -4 -13    2.95    1.02
  -5  -4 -14    6.18    1.36
   5   4  14    2.19    1.25
   5   4  15    8.16    1.79
   5   4  16    5.35    1.67
  -5  -5  13    4.83    1.33
  -5  -5  12   23.77    2.44
  -5  -5  11    1.41    0.85
  -5  -5  10    1.78    1.13
  -5  -5  10    0.78    1.06
  -5  -5   9    1.87    0.92
  -5  -5   9    3.94    1.35
  -5  -5   8   22.00    2.10
  -5  -5   8   21.02    2.57
  -5  -5   7   22.37    2.03
  -5  -5   7   21.22    2.46
  -5  -5   6   26.75    2.12
  -5  -5   6   27.79    2.70
  -5  -5   5    7.26    1.50
  -5  -5   5    6.23    1.10
  -5  -5   4    1.09    0.90
  -5  -5   4    1.57    0.68
  -5  -5   3   20.96    1.71
  -5  -5   3   20.58    2.24
  -5  -5   2   17.59    1.61
  -5  -5   2   22.24    2.28
  -5  -5   1  127.06    4.56
  -5  -5   1  128.58    5.60
  -5  -5   0   53.98    2.79
  -5  -5   0   48.82    3.28
  -5  -5  -1    4.54    1.13
  -5  -5  -2    0.55    0.90
  -5  -5  -3  114.13    5.12
  -5  -5  -4   23.38    2.24
  -5  -5  -5   59.30    3.59
  -5  -5  -6   14.05    1.81
  -5  -5  -7   45.05    3.15
  -5  -5  -8    1.59    0.92
  -5  -5  -9   10.92    1.63
  -5  -5 -10   97.69    4.77
  -5  -5 -11   17.06    2.06
  -5  -5 -12    0.22    0.77
  -5  -5 -13   17.32    2.07
  -5  -5 -14   67.78    4.02
   5   5  14   77.41    4.84
   5   5  15    5.64    1.60
  -5  -5 -15    4.24    1.20
  -5  -6  10   80.16    4.87
  -5  -6   9   41.19    2.81
  -5  -6   9   36.84    3.36
  -5  -6   8    1.38    0.74
  -5  -6   8    1.35    1.13
  -5  -6   7   25.35    2.04
  -5  -6   7   23.29    2.68
  -5  -6   6  103.20    4.22
  -5  -6   6  106.61    5.50
  -5  -6   5   25.40    1.92
  -5  -6   5   23.80    2.60
  -5  -6   4    5.94    1.39
  -5  -6   4    8.78    1.20
  -5  -6   3   85.56    3.48
  -5  -6   3   88.54    4.80
  -5  -6   2  116.44    4.08
  -5  -6   2  117.69    5.55
  -5  -6   1    1.05    0.89
  -5  -6   1    0.84    0.54
  -5  -6   0   27.38    1.80
  -5  -6   0   24.28    2.41
  -5  -6  -1   33.25    2.05
  -5  -6  -1   35.36    2.93
  -5  -6  -2   43.43    3.19
  -5  -6  -3    6.87    1.45
  -5  -6  -4   22.40    2.32
  -5  -6  -5   53.11    3.51
  -5  -6  -6    2.03    0.79
  -5  -6  -6    0.45    0.83
  -5  -6  -7    3.53    0.91
  -5  -6  -7    2.87    1.09
  -5  -6  -8    9.10    1.38
  -5  -6  -8    9.43    1.74
  -5  -6  -9   27.61    2.64
  -5  -6 -10    1.38    1.04
  -5  -6 -11   13.02    1.90
  -5  -6 -12   53.20    3.63
  -5  -6 -13   16.30    2.08
  -5  -6 -14    4.66    1.31
  -5  -6 -15    1.93    0.97
  -5  -6 -16   25.05    2.60
  -5  -7  10    0.36    0.92
  -5  -7   9   19.24    2.47
  -5  -7   8   13.12    2.37
  -5  -7   7    0.77    1.13
  -5  -7   6    0.29    0.92
  -5  -7   5   29.66    2.95
  -5  -7   4   14.19    1.27
  -5  -7   4   16.08    2.19
  -5  -7   3   14.61    2.13
  -5  -7   3   12.85    1.14
  -5  -7   2  127.09    4.00
  -5  -7   2  125.82    5.91
  -5  -7   1   60.77    2.48
  -5  -7   1   59.96    3.93
  -5  -7   0    8.19    1.64
  -5  -7   0    9.43    0.91
  -5  -7  -1    5.27    1.38
  -5  -7  -1    3.82    0.70
  -5  -7  -2  132.66    4.18
  -5  -7  -2  133.94    6.05
  -5  -7  -3   70.70    4.28
  -5  -7  -4    1.29    0.57
  -5  -7  -4    1.33    0.90
  -5  -7  -5   80.72    4.62
  -5  -7  -5   78.85    3.27
  -5  -7  -6   45.24    3.45
  -5  -7  -7   48.34    3.58
  -5  -7  -8    9.89    1.75
  -5  -7  -9   16.72    2.20
  -5  -7 -10   94.27    5.12
  -5  -7 -11   25.04    2.62
  -5  -7 -12   13.20    2.03
  -5  -7 -13   27.40    2.89
  -5  -7 -14   11.95    1.92
  -5  -7 -15    6.08    1.43
  -5  -7 -16   -0.29    0.96
  -5  -8   9   13.50    2.19
  -5  -8   8    2.33    1.33
  -5  -8   7   16.13    2.31
  -5  -8   6   56.48    4.17
  -5  -8   5   33.56    3.18
  -5  -8   4   36.84    3.29
  -5  -8   3  108.10    5.67
  -5  -8   2   46.32    3.56
  -5  -8   1   42.54    3.44
  -5  -8   0    9.96    1.84
  -5  -8  -1   76.26    4.68
  -5  -8  -2  162.27    7.02
  -5  -8  -3   -0.98    1.05
  -5  -8  -4   59.13    4.03
  -5  -8  -5   40.02    3.37
  -5  -8  -6   16.64    2.28
  -5  -8  -7    3.51    1.17
  -5  -8  -8   10.46    1.98
  -5  -8  -9  129.85    6.30
  -5  -8 -10    1.22    1.03
  -5  -8 -11   12.51    2.11
  -5  -8 -12   27.07    2.93
  -5  -8 -13   41.19    3.59
  -5  -8 -14    3.63    1.31
  -5  -9   7   -0.60    1.28
  -5  -9   6    7.17    1.77
  -5  -9   5    0.25    1.20
  -5  -9   4   -0.41    0.99
  -5  -9   3   -0.50    1.01
  -5  -9   2   27.64    2.89
  -5  -9   1    2.70    1.10
  -5  -9   0    8.00    1.78
  -5  -9  -1   19.24    2.40
  -5  -9  -2   30.34    3.09
  -5  -9  -3   12.03    2.07
  -5  -9  -4   16.45    2.37
  -5  -9  -5   11.44    2.09
  -5  -9  -6   66.98    4.61
  -5  -9  -7    4.91    1.43
  -5  -9  -8   -1.91    1.25
  -5  -9  -9   15.12    2.29
  -5  -9 -10   56.67    4.20
  -5  -9 -11    0.99    1.16
  -5 -10   3   70.81    4.82
  -5 -10   2   12.46    2.18
  -5 -10   1   18.69    2.57
  -5 -10   0   43.59    3.75
  -5 -10  -1   58.74    4.37
  -5 -10  -2    0.28    1.06
  -5 -10  -3   48.10    4.04
  -5 -10  -4   60.79    4.49
  -5 -10  -5   17.00    2.39
  -5 -10  -6    2.72    1.36
  -5 -10  -7   19.92    2.72
   6  -7   0    9.92    1.89
   6  -6  -2   -1.06    1.01
   6  -6  -1   -0.29    1.00
   6  -6   0    3.46    1.14
   6  -6   1    3.48    1.36
   6  -6   2   17.94    2.48
  -6   5   3    4.08    1.43
   6  -5  -3    3.52    1.19
   6  -5  -2   57.11    3.63
   6  -5  -1   55.93    3.73
   6  -5   0   13.95    1.99
   6  -5   1    1.55    0.99
   6  -5   2   17.79    2.31
   6  -5   3   20.69    2.45
   6  -5   4    6.84    1.55
  -6   4   6   -0.34    1.06
  -6   4   5    3.88    1.43
   6  -4  -4   27.93    2.23
  -6   4   4   27.41    3.02
   6  -4  -3    2.37    0.96
  -6   4   3   -0.73    1.07
   6  -4  -2    5.05    1.19
   6  -4  -1   26.94    2.48
   6  -4   0    8.47    1.55
   6  -4   1   17.85    2.12
   6  -4   2    2.37    1.07
   6  -4   3   22.54    2.47
   6  -4   4   47.55    3.66
   6  -4   5   16.05    2.21
   6  -4   6    5.64    1.53
   6  -3 -12   39.17    3.47
   6  -3 -11    5.95    1.40
   6  -3 -10   17.12    2.14
   6  -3  -9  100.28    4.96
   6  -3  -8   71.12    4.00
  -6   3   8   83.68    5.21
   6  -3  -7    2.64    0.88
  -6   3   7    6.04    1.59
   6  -3  -6   62.69    3.34
  -6   3   6   54.07    4.18
  -6   3   5   84.33    5.24
   6  -3  -5   84.22    3.77
  -6   3   4   44.15    3.78
   6  -3  -4   39.26    2.61
  -6   3   3   74.13    4.89
   6  -3  -3   73.01    3.78
   6  -3  -2  168.69    6.33
   6  -3  -1   61.31    3.68
   6  -3   0   10.35    1.60
   6  -3   1    3.98    1.21
   6  -3   2   58.34    3.83
   6  -3   3  143.62    6.30
   6  -3   4   12.95    1.99
   6  -3   5    3.43    1.24
   6  -3   6   13.18    2.01
   6  -3   7   47.76    3.83
   6  -2 -12    1.97    1.11
   6  -2 -11    2.13    1.08
   6  -2 -10    6.59    1.62
   6  -2  -9   16.92    2.20
  -6   2   9   18.42    2.43
   6  -2  -8    0.74    0.86
  -6   2   8    2.97    1.28
  -6   2   7    7.65    1.64
  -6   2   6    5.57    1.48
   6  -2  -5   17.94    1.63
  -6   2   5   20.67    2.57
   6  -2  -4    9.72    1.39
  -6   2   4    9.35    1.90
   6  -2  -3    9.32    1.18
   6  -2  -3   10.01    1.46
  -6   2   3    8.29    1.87
   6  -2  -2   57.16    2.62
   6  -2  -2   57.12    3.31
   6  -2  -1    5.07    1.27
   6  -2   0   10.68    1.57
   6  -2   1   18.15    2.10
   6  -2   2   78.80    4.36
   6  -2   3    0.63    1.01
   6  -2   4    7.07    1.60
   6  -2   5   14.96    2.05
   6  -2   6   22.69    2.55
   6  -2   7    6.12    1.58
   6  -2   8    3.58    1.32
   6  -2   9   15.77    2.38
  -6   1  10   75.26    4.99
  -6   1   9   96.15    5.49
  -6   1   8   40.79    3.52
  -6   1   7    3.85    1.38
   6  -1  -6   27.26    2.01
  -6   1   6   23.25    2.67
  -6   1   5   90.46    5.22
   6  -1  -5  102.64    4.23
   6  -1  -4    9.51    1.34
  -6   1   4    6.74    1.67
   6  -1  -3   18.17    1.81
  -6   1   3   22.67    2.63
   6  -1  -2   56.45    3.32
   6  -1  -1   18.08    1.95
   6  -1   0   20.77    2.13
   6  -1   1   17.24    2.02
   6  -1   2   57.17    3.66
   6  -1   3   21.96    2.39
   6  -1   4   16.22    2.19
   6  -1   5   90.51    4.99
   6  -1   6   42.41    3.39
   6  -1   7    1.19    0.98
   6  -1   8   19.23    2.48
   6  -1   9   67.27    4.54
   6  -1  10   21.16    2.67
  -6   0  10    3.62    1.40
  -6   0   9    1.22    1.21
  -6   0   8    0.30    1.06
  -6   0   7    2.28    1.02
   6   0  -6    0.88    0.66
  -6   0   6    5.36    1.61
  -6   0   5   49.30    3.65
   6   0  -5   49.88    2.89
   6   0  -4    0.04    0.67
  -6   0   4    1.95    1.13
   6   0  -3    0.53    0.70
  -6   0   3    1.50    1.11
   6   0  -2    3.28    0.99
   6   0  -1   15.93    1.85
   6   0   0    7.92    1.39
   6   0   1    1.33    0.89
   6   0   2    0.05    0.93
  -6   0  -2   -0.34    0.70
   6   0   3   17.25    2.07
  -6   0  -3   17.43    1.87
  -6   0  -4   16.57    1.78
   6   0   4   17.26    2.12
  -6   0  -5    9.40    1.31
   6   0   5   10.36    1.74
  -6   0  -6   11.63    1.44
   6   0   6    9.61    1.71
  -6   0  -7    1.49    0.78
   6   0   7   -0.07    0.92
   6   0   8    2.74    1.27
  -6   0  -8    1.19    0.63
   6   0   9    2.00    1.18
   6   0  10    0.09    1.08
   6   0  11   10.78    2.10
  -6  -1  11   10.36    1.81
  -6  -1  10   60.09    4.35
  -6  -1   9   17.65    2.30
  -6  -1   8    1.90    1.08
  -6  -1   7   70.57    4.35
  -6  -1   6   61.51    4.00
  -6  -1   5   22.36    2.47
  -6  -1   4    0.71    0.92
  -6  -1   3   87.50    4.73
  -6  -1   2   93.12    4.77
  -6  -1   1   19.50    2.16
  -6  -1   0   51.61    3.43
   6   1   1    7.12    1.39
  -6  -1  -1    6.35    1.32
   6   1   2  106.57    5.00
  -6  -1  -2  102.50    4.78
   6   1   3    8.61    1.51
  -6  -1  -3   11.65    1.62
   6   1   4   88.25    4.64
  -6  -1  -4   85.74    4.23
   6   1   5  145.07    6.24
  -6  -1  -5  138.21    5.49
   6   1   6    6.54    1.39
  -6  -1  -6    7.00    1.23
   6   1   7    6.66    1.55
  -6  -1  -7    6.83    1.27
  -6  -1  -8   78.06    3.80
   6   1   8   81.61    4.85
  -6  -1  -9   46.26    2.84
   6   1   9   48.83    3.79
   6   1  10   56.60    4.14
   6   1  11   -0.51    0.94
  -6  -2  11    7.15    1.69
  -6  -2  10    3.58    1.27
  -6  -2   9    6.16    1.64
  -6  -2   8   17.69    2.20
  -6  -2   7   38.66    3.14
  -6  -2   6   40.68    3.19
  -6  -2   5    3.80    1.22
  -6  -2   5    2.70    1.28
  -6  -2   4   24.42    2.44
  -6  -2   4   23.76    2.47
  -6  -2   3  109.53    5.22
  -6  -2   3  109.64    5.50
  -6  -2   2    6.02    1.38
  -6  -2   2    2.53    1.08
  -6  -2   1    4.34    1.21
  -6  -2   0   15.60    2.05
  -6  -2  -1   27.73    2.63
  -6  -2  -2   20.57    2.13
  -6  -2  -3   -1.05    0.93
  -6  -2  -4    0.99    0.84
  -6  -2  -5   14.50    1.82
   6   2   6    1.40    1.11
  -6  -2  -6    1.28    0.87
   6   2   7   17.83    2.29
  -6  -2  -7   21.55    2.06
   6   2   8    0.44    0.99
  -6  -2  -8    1.39    0.87
   6   2   9    4.87    1.38
  -6  -2  -9    4.43    1.08
  -6  -2 -10    6.33    1.19
   6   2  10    3.32    1.18
   6   2  11    0.72    1.06
   6   2  12    0.68    1.10
  -6  -3  12    4.36    1.53
  -6  -3  11   13.60    2.09
  -6  -3  10   66.55    4.36
  -6  -3   9   12.67    2.02
  -6  -3   8   36.51    3.08
  -6  -3   7   43.05    3.23
  -6  -3   6   88.92    4.64
  -6  -3   6   89.78    5.07
  -6  -3   5    3.45    1.44
  -6  -3   5    2.52    1.01
  -6  -3   4   51.33    3.47
  -6  -3   4   54.17    3.88
  -6  -3   3  210.42    7.46
  -6  -3   3  214.55    8.11
  -6  -3   2   21.53    2.16
  -6  -3   2   20.24    2.35
  -6  -3   1   23.02    2.48
  -6  -3   0   59.20    3.80
  -6  -3  -1  210.19    7.64
  -6  -3  -2   57.99    3.66
  -6  -3  -3   14.24    1.90
  -6  -3  -4  268.44    8.68
  -6  -3  -5   74.37    4.09
  -6  -3  -6    7.22    1.46
  -6  -3  -7   62.09    3.67
  -6  -3  -8   75.02    4.07
   6   3   9   70.15    4.48
  -6  -3  -9   69.69    3.84
   6   3  10    1.18    1.13
  -6  -3 -10   -0.21    0.70
  -6  -3 -11   33.37    2.61
   6   3  11   36.25    3.39
   6   3  12   90.19    5.46
  -6  -4  12   10.54    1.93
  -6  -4  11    7.01    1.50
  -6  -4  10    3.00    1.14
  -6  -4   9   12.87    1.88
  -6  -4   8   14.51    2.27
  -6  -4   8   16.98    2.10
  -6  -4   7   23.27    2.72
  -6  -4   7   19.38    2.17
  -6  -4   6    0.06    1.05
  -6  -4   6    1.64    1.02
  -6  -4   5   19.88    2.51
  -6  -4   5   11.84    1.59
  -6  -4   4   35.82    2.72
  -6  -4   4   34.34    3.14
  -6  -4   3    3.51    1.22
  -6  -4   3    2.43    0.98
  -6  -4   2    1.39    0.88
  -6  -4   2    3.52    1.34
  -6  -4   1   15.71    1.86
  -6  -4   1   15.07    2.02
  -6  -4   0    5.10    1.24
  -6  -4  -1   21.63    2.35
  -6  -4  -2    1.64    0.99
  -6  -4  -3    3.47    1.28
  -6  -4  -4   54.87    3.61
  -6  -4  -5    0.80    0.92
  -6  -4  -6    1.17    0.87
  -6  -4  -7    2.72    1.05
  -6  -4  -8   30.36    2.67
  -6  -4  -9    5.58    1.30
  -6  -4 -10    4.68    1.14
   6   4  11    0.10    1.01
  -6  -4 -11    1.46    0.91
   6   4  12   12.56    2.11
  -6  -4 -12   12.48    1.71
  -6  -5  10   63.47    4.04
  -6  -5   9    2.51    1.02
  -6  -5   8   27.84    2.52
  -6  -5   8   28.43    3.06
  -6  -5   7   11.74    1.98
  -6  -5   7    9.67    1.53
  -6  -5   6   33.54    2.71
  -6  -5   6   34.62    3.18
  -6  -5   5    0.95    1.16
  -6  -5   5    1.02    0.64
  -6  -5   4   52.53    3.18
  -6  -5   4   52.86    3.99
  -6  -5   3    8.26    1.80
  -6  -5   3    6.97    1.27
  -6  -5   2   15.12    2.17
  -6  -5   2   11.99    1.62
  -6  -5   1    3.83    1.04
  -6  -5   1    1.48    0.99
  -6  -5   0   15.61    1.78
  -6  -5   0   18.53    2.33
  -6  -5  -1   74.41    4.47
  -6  -5  -2    0.70    1.01
  -6  -5  -3   42.28    3.29
  -6  -5  -4    5.49    1.39
  -6  -5  -5   96.42    4.98
  -6  -5  -6   23.85    2.48
  -6  -5  -7   47.25    3.42
  -6  -5  -8    1.57    1.00
  -6  -5  -9   -0.26    0.83
  -6  -5 -10    2.30    1.43
  -6  -5 -11   20.17    2.30
  -6  -5 -12   10.68    1.73
  -6  -5 -13    1.69    0.95
  -6  -6   7    7.31    1.88
  -6  -6   6   21.38    2.64
  -6  -6   5   32.65    2.48
  -6  -6   5   35.58    3.36
  -6  -6   4   17.85    4.27
  -6  -6   4   13.48    1.56
  -6  -6   3   10.47    1.96
  -6  -6   3    9.29    1.28
  -6  -6   2   29.70    2.19
  -6  -6   2   28.88    2.98
  -6  -6   1   22.08    1.95
  -6  -6   1   24.52    2.79
  -6  -6   0   31.47    2.28
  -6  -6   0   32.86    3.03
  -6  -6  -1    3.40    0.96
  -6  -6  -1    5.78    1.46
  -6  -6  -2   43.19    3.42
  -6  -6  -3    6.95    1.63
  -6  -6  -4   96.39    5.21
  -6  -6  -5    0.79    1.13
  -6  -6  -6   11.37    2.00
  -6  -6  -7   -0.10    0.91
  -6  -6  -8    9.18    1.76
  -6  -6  -9    3.33    1.36
  -6  -6 -10   -0.40    0.96
  -6  -6 -11    0.26    0.92
  -6  -6 -12    1.12    1.01
  -6  -6 -13    0.03    0.90
  -6  -6 -14    2.35    1.16
  -6  -7   5   13.04    2.18
  -6  -7   4   46.14    3.88
  -6  -7   3   35.85    3.35
  -6  -7   2   26.11    2.84
  -6  -7   1   27.35    2.87
  -6  -7   0   76.53    4.82
  -6  -7  -1   18.23    2.39
  -6  -7  -2   12.81    2.03
  -6  -7  -3   37.99    3.38
  -6  -7  -4   62.68    4.26
  -6  -7  -5   44.87    3.63
  -6  -7  -6   26.64    2.85
  -6  -7  -7   69.37    4.54
  -6  -7  -8   29.42    2.99
  -6  -7  -9    2.58    1.26
  -6  -7 -10    1.54    1.01
  -6  -7 -11   24.88    2.82
  -6  -7 -12   32.06    3.13
  -6  -7 -13    1.59    1.05
  -6  -7 -14   48.89    3.93
  -6  -8   3    1.25    1.24
  -6  -8   2   22.37    2.72
  -6  -8   1   43.42    3.76
  -6  -8   0    2.94    1.30
  -6  -8  -1   17.17    2.38
  -6  -8  -2   23.68    2.73
  -6  -8  -3   88.38    5.32
  -6  -8  -4    2.03    1.34
  -6  -8  -5   26.05    3.02
  -6  -8  -6  105.48    5.88
  -6  -8  -7   28.05    3.05
  -6  -8  -8   -0.33    1.05
  -6  -8  -9    2.62    1.15
  -6  -8 -10   16.39    2.38
   7  -4  -1    2.19    1.08
   7  -4   0   19.62    2.37
   7  -4   1   15.70    2.24
   7  -4   2    5.75    1.64
   7  -3  -2    0.88    1.02
   7  -3  -1   34.43    3.02
   7  -3   0   60.91    4.02
   7  -3   1   -0.35    0.91
   7  -3   2   32.83    3.17
   7  -3   3   20.53    2.55
   7  -2  -3   24.02    2.23
   7  -2  -2    5.40    1.25
   7  -2  -1    3.46    1.22
   7  -2   0   -0.10    0.87
   7  -2   1   15.63    2.14
   7  -2   2    1.23    1.10
   7  -2   3    5.02    1.59
   7  -2   4    7.28    1.61
  -7   1   4   71.56    4.91
   7  -1  -3    9.19    1.52
  -7   1   3    8.64    2.11
   7  -1  -2    1.00    1.00
   7  -1  -1   86.91    4.70
   7  -1   0   73.18    4.39
   7  -1   1    4.36    1.28
   7  -1   2    6.24    1.42
   7  -1   3   19.45    2.40
   7  -1   4    1.58    1.14
   7  -1   5    2.07    1.16
  -7   0   6    2.88    1.33
  -7   0   5    0.13    1.14
  -7   0   4    9.31    1.88
   7   0  -4    8.65    1.47
  -7   0   3    4.35    1.51
   7   0  -3    3.82    1.11
  -7   0   2    3.14    1.54
   7   0  -2    1.31    1.01
   7   0  -1   23.50    2.41
   7   0   0   16.98    2.16
   7   0   1   16.84    2.17
   7   0   2   11.29    1.80
   7   0   3   15.31    2.25
   7   0   4    9.71    1.85
   7   0   5    7.98    1.85
   7   0   6    3.87    1.54
  -7  -1   7    9.11    1.82
  -7  -1   6   20.82    2.63
  -7  -1   5   38.98    3.48
   7   1  -4   22.06    2.15
  -7  -1   4   22.08    2.79
   7   1  -3    2.64    1.05
  -7  -1   3    2.31    1.21
  -7  -1   2   38.46    3.46
   7   1  -2   33.14    2.77
   7   1  -1   77.62    4.38
   7   1   0   84.44    4.66
   7   1   1   11.07    1.78
  -7  -1  -1    9.70    1.73
   7   1   2   59.26    4.00
  -7  -1  -2   55.49    3.72
   7   1   3    1.27    0.91
  -7  -1  -3    0.92    1.31
   7   1   4    7.02    1.64
  -7  -1  -4    9.37    1.59
   7   1   5   10.68    1.97
  -7  -1  -5    7.26    1.38
  -7  -1  -6   56.05    3.56
   7   1   6   55.52    4.14
  -7  -1  -7   19.60    2.09
   7   1   7   26.01    2.94
  -7  -2   8   18.85    2.48
  -7  -2   7   12.03    2.02
  -7  -2   6    0.08    1.17
  -7  -2   5    2.06    1.21
  -7  -2   4    0.30    0.96
  -7  -2   3    0.76    1.16
  -7  -2   2   14.87    2.19
  -7  -2   2   12.92    1.99
  -7  -2   1   10.31    1.77
  -7  -2   0    1.63    1.10
  -7  -2  -1   27.06    2.76
   7   2   2    1.85    1.20
  -7  -2  -2    0.44    1.05
   7   2   3   32.93    3.08
  -7  -2  -3   30.50    2.82
   7   2   4    1.34    1.02
  -7  -2  -4    3.39    1.27
   7   2   5    2.33    1.22
  -7  -2  -5    1.06    0.86
   7   2   6    9.26    1.70
  -7  -2  -6    6.41    1.49
   7   2   7   13.04    2.09
  -7  -2  -7   11.00    1.69
  -7  -2  -8    3.26    1.13
  -7  -3   9   38.89    3.50
  -7  -3   8   26.77    2.88
  -7  -3   7   -0.21    0.92
  -7  -3   6   59.70    4.11
  -7  -3   5   66.51    4.30
  -7  -3   5   70.09    4.79
  -7  -3   4    1.52    0.98
  -7  -3   4    0.86    1.08
  -7  -3   3    2.53    1.39
  -7  -3   3    0.50    0.99
  -7  -3   2   74.95    4.61
  -7  -3   2   77.59    4.89
  -7  -3   1   48.64    3.64
  -7  -3   1   49.45    3.84
  -7  -3   0    0.54    0.93
  -7  -3  -1   70.33    4.51
  -7  -3  -2   49.31    3.77
  -7  -3  -3   11.40    1.90
  -7  -3  -4    6.80    1.52
  -7  -3  -5   47.98    3.54
  -7  -3  -6   48.02    3.57
   7   3   7    4.53    1.48
  -7  -3  -7    4.57    1.30
  -7  -3  -8   40.72    3.16
  -7  -3  -9   25.42    2.45
  -7  -4   9    6.57    1.56
  -7  -4   8    0.08    1.04
  -7  -4   7    1.27    1.16
  -7  -4   6   15.92    2.11
  -7  -4   5    2.85    1.16
  -7  -4   4    1.07    1.40
  -7  -4   4   -0.90    1.03
  -7  -4   3    4.27    1.25
  -7  -4   3    6.90    1.68
  -7  -4   2   -1.30    1.16
  -7  -4   2   -0.54    1.00
  -7  -4   1    1.36    1.06
  -7  -4   1    1.84    1.20
  -7  -4   0    6.84    1.48
  -7  -4   0    7.18    1.61
  -7  -4  -1    4.86    1.55
  -7  -4  -2   14.95    2.16
  -7  -4  -3    0.31    0.94
  -7  -4  -4    2.10    1.11
  -7  -4  -5    4.08    1.24
  -7  -4  -6    9.51    1.78
  -7  -4  -7    0.76    1.06
  -7  -4  -8    7.86    1.62
  -7  -4  -9    1.53    1.11
  -7  -4 -10    8.58    1.64
  -7  -5   5   56.32    3.69
  -7  -5   4    1.05    0.82
  -7  -5   3    5.96    1.39
  -7  -5   2   67.38    4.03
  -7  -5   2   68.23    4.68
  -7  -5   1   35.54    2.93
  -7  -5   1   39.80    3.58
  -7  -5   0    5.46    1.31
  -7  -5   0    6.07    1.71
  -7  -5  -1    9.42    1.85
  -7  -5  -2   70.25    4.65
  -7  -5  -3   57.59    4.22
  -7  -5  -4    0.21    0.95
  -7  -5  -5   51.17    3.93
  -7  -5  -6   27.55    2.86
  -7  -5  -7    3.04    1.31
  -7  -5  -8   14.11    2.08
  -7  -5  -9   73.28    4.61
  -7  -5 -10   34.66    3.13
  -7  -5 -11    2.89    1.19
  -7  -6   0    2.19    1.29
  -7  -6  -1   22.37    2.19
  -7  -6  -1   20.92    2.63
  -7  -6  -2    0.87    1.24
  -7  -6  -3   -1.22    1.19
  -7  -6  -4   10.97    1.99
  -7  -6  -5    1.98    1.17
  -7  -6  -6   -0.59    0.94
  -7  -6  -7    1.57    1.13
  -7  -6  -8   28.35    2.98
  -7  -6  -9    0.15    0.96
  -7  -6 -10   -0.22    0.96
  -7  -6 -11    0.37    0.98
   8   0  -1    4.02    1.31
   8   0   0    3.25    1.34
   8   0   1   14.19    2.14
   8   1  -1    9.53    1.85
   8   1   0   21.36    2.49
   8   1   1   14.89    2.13
   8   2  -2    6.47    1.45
   8   2  -1    0.94    0.99
   8   2   0    5.86    1.51
   8   2   1   15.63    2.17
  -8  -2  -2    6.16    1.66
  -8  -2  -3    2.13    1.16
  -8  -2  -4    3.89    1.11
  -8  -2  -5    1.21    1.15
  -8  -3   2    3.01    1.38
  -8  -3   1   31.72    3.20
  -8  -3   0    9.67    2.06
  -8  -3  -4    3.19    1.25
  -8  -3  -5    2.62    1.42
  -8  -3  -6   11.36    1.99
  -8  -4   3    6.64    1.63
  -8  -4   2    0.74    0.97
  -8  -4   1    7.74    1.64
  -8  -4   0    5.83    1.45
   0   0   0    0.00    0.00


TITL C H N O Zn S_auto in P-1
REM P-1 (#2 in standard setting)
CELL 0.71073   6.082602   9.840883  15.432603  79.6188  86.2095  78.3508
ZERR    4.00   0.000242   0.000431   0.000656   0.0036   0.0034   0.0035
LATT  1
SFAC C H N O
UNIT 44.00 40.00 4.00 4.00
REM  CrysAlisPro recorded range (K): Min=149.9; max=150.0; aver:150.0
TEMP -123
TREF
HKLF 4
END
_computing_structure_solution     'SHELXT 2018/2 (Sheldrick, 2018)'
;
_shelx_hkl_checksum   55984

