 
data_mo_CCU_TS2_0m_a
 
_audit_creation_method            'SHELXL-2018/3'
_shelx_SHELXL_version_number      '2018/3'
_chemical_name_systematic         ?
_chemical_name_common             ?
_chemical_melting_point           ?
_chemical_formula_moiety          ?
_chemical_formula_sum
 'C12 H12 N6 O3' 
_chemical_formula_weight          288.28

loop_
 _atom_type_symbol
 _atom_type_description
 _atom_type_scat_dispersion_real
 _atom_type_scat_dispersion_imag
 _atom_type_scat_source
 'C'  'C'   0.0033   0.0016
 'International Tables Vol C Tables 4.2.6.8 and 6.1.1.4'
 'H'  'H'   0.0000   0.0000
 'International Tables Vol C Tables 4.2.6.8 and 6.1.1.4'
 'N'  'N'   0.0061   0.0033
 'International Tables Vol C Tables 4.2.6.8 and 6.1.1.4'
 'O'  'O'   0.0106   0.0060
 'International Tables Vol C Tables 4.2.6.8 and 6.1.1.4'
 
_space_group_crystal_system       monoclinic
_space_group_IT_number            15
_space_group_name_H-M_alt         'C 2/c'
_space_group_name_Hall            '-C 2yc'
 
_shelx_space_group_comment
;
The symmetry employed for this shelxl refinement is uniquely defined
by the following loop, which should always be used as a source of
symmetry information in preference to the above space-group names.
They are only intended as comments.
;
 
loop_
 _space_group_symop_operation_xyz
 'x, y, z'
 '-x, y, -z+1/2'
 'x+1/2, y+1/2, z'
 '-x+1/2, y+1/2, -z+1/2'
 '-x, -y, -z'
 'x, -y, z-1/2'
 '-x+1/2, -y+1/2, -z'
 'x+1/2, -y+1/2, z-1/2'
 
_cell_length_a                    17.4730(15)
_cell_length_b                    10.8420(9)
_cell_length_c                    7.1712(7)
_cell_angle_alpha                 90
_cell_angle_beta                  112.237(3)
_cell_angle_gamma                 90
_cell_volume                      1257.5(2)
_cell_formula_units_Z             4
_cell_measurement_temperature     150(2)
_cell_measurement_reflns_used     1886
_cell_measurement_theta_min       2.2615
_cell_measurement_theta_max       24.335
 
_exptl_crystal_description        needle
_exptl_crystal_colour             yellow
_exptl_crystal_density_meas       ?
_exptl_crystal_density_method     ?
_exptl_crystal_density_diffrn     1.523          
_exptl_crystal_F_000              600
_exptl_transmission_factor_min    ?
_exptl_transmission_factor_max    ?
_exptl_crystal_size_max           0.221
_exptl_crystal_size_mid           0.037
_exptl_crystal_size_min           0.008
_exptl_absorpt_coefficient_mu     0.115
_shelx_estimated_absorpt_T_min    ?
_shelx_estimated_absorpt_T_max    ? 
_exptl_absorpt_correction_T_min   0.6683
_exptl_absorpt_correction_T_max   0.7451
_exptl_absorpt_correction_type    multi-scan
_exptl_absorpt_process_details
;
 SADABS 2016/2: Krause, L., Herbst-Irmer, R., Sheldrick G.M. & Stalke D.,
 J. Appl. Cryst. 48 (2015) 3-10
;
_exptl_absorpt_special_details    ?
_diffrn_ambient_temperature       150(2)
_diffrn_radiation_wavelength      0.71073
_diffrn_radiation_type            'MoK\a'
_diffrn_source                    'Incoatec IuS3.0 microfocus X-ray tube'
_diffrn_radiation_monochromator   'Incoatec HELIOS multilayer mirrors'
_diffrn_measurement_device_type   'Bruker D8 Venture diffractometer'
_diffrn_measurement_device        'three-circle diffractometer'
_diffrn_measurement_method        '\w and \f scans'
_diffrn_detector_type             'Bruker PHOTON III area detector'
_diffrn_detector                  PIXEL
_diffrn_detector_area_resol_mean  7.41
_diffrn_reflns_number             5873
_diffrn_reflns_av_unetI/netI      0.0246
_diffrn_reflns_av_R_equivalents   0.0384
_diffrn_reflns_limit_h_min        -20
_diffrn_reflns_limit_h_max        20
_diffrn_reflns_limit_k_min        -12
_diffrn_reflns_limit_k_max        12
_diffrn_reflns_limit_l_min        -8
_diffrn_reflns_limit_l_max        8
_diffrn_reflns_theta_min          2.261
_diffrn_reflns_theta_max          24.422
_diffrn_reflns_theta_full         24.422
_diffrn_measured_fraction_theta_max   1.000
_diffrn_measured_fraction_theta_full  1.000
_diffrn_reflns_Laue_measured_fraction_max    1.000
_diffrn_reflns_Laue_measured_fraction_full   1.000
_diffrn_reflns_point_group_measured_fraction_max   1.000
_diffrn_reflns_point_group_measured_fraction_full  1.000
_reflns_number_total              1042
_reflns_number_gt                 833
_reflns_threshold_expression      'I > 2\s(I)'
_reflns_Friedel_coverage          0.000
_reflns_Friedel_fraction_max      .
_reflns_Friedel_fraction_full     .
 
_reflns_special_details
;
 Reflections were merged by SHELXL according to the crystal
 class for the calculation of statistics and refinement.
 
 _reflns_Friedel_fraction is defined as the number of unique
 Friedel pairs measured divided by the number that would be
 possible theoretically, ignoring centric projections and
 systematic absences.
;
 
_computing_cell_refinement        'SAINT (Bruker-AXS, 2016)'
_computing_data_collection        'APEX3 (Bruker-AXS, 2016)'
_computing_data_reduction         'SAINT (Bruker-AXS, 2016)'
_computing_structure_solution     'SHELXT 2018/2 (Sheldrick, 2018)'
_computing_structure_refinement 'SHELXL-2018/3 (Sheldrick, 2018)'
_computing_molecular_graphics     ?
_computing_publication_material   ?
_refine_special_details           ?
_refine_ls_structure_factor_coef  Fsqd
_refine_ls_matrix_type            full
_refine_ls_weighting_scheme       calc
_refine_ls_weighting_details
'w=1/[\s^2^(Fo^2^)+(0.0656P)^2^+3.0128P] where P=(Fo^2^+2Fc^2^)/3'
_atom_sites_solution_primary      ?
_atom_sites_solution_secondary    ?
_atom_sites_solution_hydrogens    mixed
_refine_ls_hydrogen_treatment     mixed
_refine_ls_extinction_method      none
_refine_ls_extinction_coef        .
_refine_ls_number_reflns          1041
_refine_ls_number_parameters      99
_refine_ls_number_restraints      0
_refine_ls_R_factor_all           0.0689
_refine_ls_R_factor_gt            0.0563
_refine_ls_wR_factor_ref          0.1530
_refine_ls_wR_factor_gt           0.1445
_refine_ls_goodness_of_fit_ref    1.093
_refine_ls_restrained_S_all       1.093
_refine_ls_shift/su_max           0.000
_refine_ls_shift/su_mean          0.000
 
loop_
 _atom_site_label
 _atom_site_type_symbol
 _atom_site_fract_x
 _atom_site_fract_y
 _atom_site_fract_z
 _atom_site_U_iso_or_equiv
 _atom_site_adp_type
 _atom_site_occupancy
 _atom_site_site_symmetry_order  
 _atom_site_calc_flag
 _atom_site_refinement_flags_posn
 _atom_site_refinement_flags_adp
 _atom_site_refinement_flags_occupancy
 _atom_site_disorder_assembly
 _atom_site_disorder_group
O1 O 0.55478(19) 0.9468(3) 0.6636(7) 0.1079(15) Uani 1 1 d . . . . .
O2 O 0.500000 0.3279(2) 0.250000 0.0341(7) Uani 1 2 d S T P . .
N1 N 0.56623(14) 0.3989(2) 0.3679(3) 0.0310(6) Uani 1 1 d . . . . .
N3 N 0.66650(14) 0.6272(2) 0.5452(3) 0.0313(6) Uani 1 1 d . . . . .
N4 N 0.79600(15) 0.5766(3) 0.7027(4) 0.0404(7) Uani 1 1 d . . . . .
C1 C 0.72385(17) 0.5469(3) 0.5653(4) 0.0327(7) Uani 1 1 d . . . . .
H1 H 0.714615 0.473315 0.487989 0.039 Uiso 1 1 calc R U . . .
C2 C 0.78088(18) 0.6877(3) 0.7768(5) 0.0402(8) Uani 1 1 d . . . . .
H2 H 0.820910 0.733853 0.881000 0.048 Uiso 1 1 calc R U . . .
C3 C 0.70076(18) 0.7216(3) 0.6796(4) 0.0370(8) Uani 1 1 d . . . . .
H3 H 0.674284 0.794052 0.699826 0.044 Uiso 1 1 calc R U . . .
C4 C 0.58349(16) 0.6274(3) 0.3969(4) 0.0275(7) Uani 1 1 d . . . . .
C5 C 0.54128(16) 0.5137(2) 0.3229(4) 0.0254(6) Uani 1 1 d . . . . .
C6 C 0.54126(17) 0.7327(3) 0.3224(4) 0.0329(7) Uani 1 1 d . . . . .
H6 H 0.567787 0.809569 0.368622 0.039 Uiso 1 1 calc R U . . .
H7 H 0.5373(14) 1.021(2) 0.535(4) 0.049 Uiso 1 1 d . U . . .
H4 H 0.605748 1.004035 0.719496 0.049 Uiso 1 1 d R U . . .
 
loop_
 _atom_site_aniso_label
 _atom_site_aniso_U_11
 _atom_site_aniso_U_22
 _atom_site_aniso_U_33
 _atom_site_aniso_U_23
 _atom_site_aniso_U_13
 _atom_site_aniso_U_12
O1 0.068(2) 0.083(2) 0.182(4) -0.055(3) 0.057(2) -0.0302(18)
O2 0.0311(15) 0.0233(14) 0.0426(17) 0.000 0.0079(13) 0.000
N1 0.0284(12) 0.0285(13) 0.0349(13) -0.0011(11) 0.0106(10) -0.0005(10)
N3 0.0359(14) 0.0282(13) 0.0327(13) -0.0059(10) 0.0164(11) -0.0088(11)
N4 0.0307(14) 0.0467(16) 0.0417(15) 0.0001(12) 0.0113(12) -0.0014(12)
C1 0.0279(14) 0.0362(16) 0.0276(15) 0.0020(12) 0.0031(12) -0.0126(13)
C2 0.0339(16) 0.0447(18) 0.0393(17) -0.0052(15) 0.0106(14) -0.0106(14)
C3 0.0363(17) 0.0351(17) 0.0387(17) -0.0062(13) 0.0132(14) -0.0079(13)
C4 0.0242(14) 0.0309(15) 0.0285(14) -0.0030(12) 0.0113(11) -0.0036(11)
C5 0.0263(14) 0.0276(14) 0.0242(13) 0.0016(11) 0.0119(11) 0.0029(11)
C6 0.0334(15) 0.0271(15) 0.0395(16) -0.0035(13) 0.0153(13) -0.0035(12)
 
_geom_special_details
;
 All esds (except the esd in the dihedral angle between two l.s. planes)
 are estimated using the full covariance matrix.  The cell esds are taken
 into account individually in the estimation of esds in distances, angles
 and torsion angles; correlations between esds in cell parameters are only
 used when they are defined by crystal symmetry.  An approximate (isotropic)
 treatment of cell esds is used for estimating esds involving l.s. planes.
;
 
loop_
 _geom_bond_atom_site_label_1
 _geom_bond_atom_site_label_2
 _geom_bond_distance
 _geom_bond_site_symmetry_2
 _geom_bond_publ_flag
O1 H7 1.17(3) . ?
O1 H4 1.0339 . ?
O2 N1 1.380(3) . ?
O2 N1 1.380(3) 2_655 ?
N1 C5 1.319(3) . ?
N3 C1 1.294(4) . ?
N3 C3 1.378(4) . ?
N3 C4 1.438(4) . ?
N4 C1 1.313(4) . ?
N4 C2 1.382(4) . ?
C1 H1 0.9500 . ?
C2 C3 1.357(4) . ?
C2 H2 0.9500 . ?
C3 H3 0.9500 . ?
C4 C6 1.355(4) . ?
C4 C5 1.431(4) . ?
C5 C5 1.426(5) 2_655 ?
C6 C6 1.423(6) 2_655 ?
C6 H6 0.9500 . ?
 
loop_
 _geom_angle_atom_site_label_1
 _geom_angle_atom_site_label_2
 _geom_angle_atom_site_label_3
 _geom_angle
 _geom_angle_site_symmetry_1
 _geom_angle_site_symmetry_3
 _geom_angle_publ_flag
H7 O1 H4 79.9 . . ?
N1 O2 N1 112.3(3) . 2_655 ?
C5 N1 O2 104.7(2) . . ?
C1 N3 C3 108.0(2) . . ?
C1 N3 C4 127.2(2) . . ?
C3 N3 C4 124.5(2) . . ?
C1 N4 C2 103.5(3) . . ?
N3 C1 N4 113.7(3) . . ?
N3 C1 H1 123.2 . . ?
N4 C1 H1 123.2 . . ?
C3 C2 N4 110.4(3) . . ?
C3 C2 H2 124.8 . . ?
N4 C2 H2 124.8 . . ?
C2 C3 N3 104.4(3) . . ?
C2 C3 H3 127.8 . . ?
N3 C3 H3 127.8 . . ?
C6 C4 C5 116.9(2) . . ?
C6 C4 N3 122.6(2) . . ?
C5 C4 N3 120.5(2) . . ?
N1 C5 C5 109.18(15) . 2_655 ?
N1 C5 C4 130.3(2) . . ?
C5 C5 C4 120.56(15) 2_655 . ?
C4 C6 C6 122.56(16) . 2_655 ?
C4 C6 H6 118.7 . . ?
C6 C6 H6 118.7 2_655 . ?
 
_refine_diff_density_max    0.301
_refine_diff_density_min   -0.374
_refine_diff_density_rms    0.062

_shelx_res_file
;
TITL mo_CCU_TS2_0m_a.res in C2/c
    mo_CCU_TS2_0m_a.res
    created by SHELXL-2018/3 at 18:03:19 on 26-Sep-2022
REM Old TITL mo_CCU_TS2_0m in C2/c
REM SHELXT solution in C2/c: R1 0.155, Rweak 0.006, Alpha 0.024
REM <I/s>   0.468 for   61 systematic absences,  Orientation as input
REM Formula found by SHELXT:  C16 N4 O
CELL  0.71073  17.4730  10.8420   7.1712   90.000  112.237   90.000
ZERR   24.000   0.0015   0.0009   0.0007    0.000    0.003    0.000
LATT  7
SYMM -X, Y, 1/2-Z
SFAC C H N O
UNIT 48 48 24 12
ACTA
TEMP -123.150
OMIT 1 1 0
L.S. 10
BOND $H
LIST 6
FMAP 2
PLAN 20
REM #####
WGHT    0.065600    3.012800
FVAR       0.46273
O1    4    0.554776    0.946791    0.663634    11.00000    0.06780    0.08302 =
         0.18160   -0.05546    0.05693   -0.03022
O2    4    0.500000    0.327922    0.250000    10.50000    0.03106    0.02329 =
         0.04264    0.00000    0.00789    0.00000
N1    3    0.566229    0.398856    0.367898    11.00000    0.02844    0.02849 =
         0.03494   -0.00115    0.01060   -0.00054
N3    3    0.666498    0.627244    0.545174    11.00000    0.03590    0.02823 =
         0.03267   -0.00590    0.01636   -0.00880
N4    3    0.795995    0.576630    0.702656    11.00000    0.03067    0.04672 =
         0.04166    0.00011    0.01128   -0.00137
C1    1    0.723851    0.546907    0.565326    11.00000    0.02792    0.03622 =
         0.02760    0.00195    0.00314   -0.01256
AFIX  43
H1    2    0.714615    0.473315    0.487989    11.00000   -1.20000
AFIX   0
C2    1    0.780876    0.687715    0.776769    11.00000    0.03391    0.04465 =
         0.03928   -0.00516    0.01065   -0.01059
AFIX  43
H2    2    0.820910    0.733853    0.881000    11.00000   -1.20000
AFIX   0
C3    1    0.700761    0.721611    0.679646    11.00000    0.03633    0.03513 =
         0.03867   -0.00621    0.01316   -0.00795
AFIX  43
H3    2    0.674284    0.794052    0.699826    11.00000   -1.20000
AFIX   0
C4    1    0.583494    0.627387    0.396930    11.00000    0.02416    0.03092 =
         0.02851   -0.00296    0.01134   -0.00364
C5    1    0.541282    0.513729    0.322878    11.00000    0.02626    0.02763 =
         0.02421    0.00165    0.01187    0.00292
C6    1    0.541261    0.732728    0.322395    11.00000    0.03336    0.02710 =
         0.03945   -0.00347    0.01527   -0.00354
AFIX  43
H6    2    0.567787    0.809569    0.368622    11.00000   -1.20000
AFIX   0
H7    2    0.537297    1.020620    0.535050    11.00000   -1.50000
AFIX   3
H4    2    0.605748    1.004035    0.719496    11.00000   -1.50000
REM #####
AFIX   0
HKLF 4




REM  mo_CCU_TS2_0m_a.res in C2/c
REM wR2 = 0.1530, GooF = S = 1.093, Restrained GooF = 1.093 for all data
REM R1 = 0.0563 for 832 Fo > 4sig(Fo) and 0.0689 for all 1041 data
REM 99 parameters refined using 0 restraints

END

WGHT      0.0656      3.0123

REM Highest difference peak  0.301,  deepest hole -0.374,  1-sigma level  0.062
Q1    1   0.7106  0.6050  0.6085  11.00000  0.05    0.30
Q2    1   0.5537  0.9655  0.8321  11.00000  0.05    0.17
Q3    1   0.5000  0.9384  0.7500  10.50000  0.05    0.17
Q4    1   0.7558  0.5786  0.5577  11.00000  0.05    0.17
Q5    1   0.6501  0.3766  0.3963  11.00000  0.05    0.16
Q6    1   0.7910  0.5393  0.4778  11.00000  0.05    0.15
Q7    1   0.6683  0.9342  0.9608  11.00000  0.05    0.14
Q8    1   0.5000  0.5225  0.2500  10.50000  0.05    0.14
Q9    1   0.6481  0.8031  0.5829  11.00000  0.05    0.14
Q10   1   0.6113  0.9056  0.5684  11.00000  0.05    0.14
Q11   1   0.6183  0.3368  0.5006  11.00000  0.05    0.13
Q12   1   0.7820  0.6857  0.5824  11.00000  0.05    0.13
Q13   1   0.5715  1.1391  0.4808  11.00000  0.05    0.13
Q14   1   0.4974  0.7386  0.5112  11.00000  0.05    0.13
Q15   1   0.8710  0.6193  1.0330  11.00000  0.05    0.13
Q16   1   0.7750  0.4466  0.7874  11.00000  0.05    0.13
Q17   1   0.8925  0.7405  0.8082  11.00000  0.05    0.12
Q18   1   0.7642  0.4381  0.4934  11.00000  0.05    0.12
Q19   1   0.7508  0.7378  0.9524  11.00000  0.05    0.12
Q20   1   0.9258  0.7619  0.9810  11.00000  0.05    0.12
;
_shelx_res_checksum   20602

_shelx_hkl_file
;
   2   0   0   41.10    1.20
   2   0   0   42.10    1.80
  -2   0   0   42.70    1.70
  -4   0   0 2469.85   51.39
  -4   0   0 2656.13   56.19
  -6   0   0  143.09    5.20
   6   0   0  141.89    5.30
   6   0   0  140.79    3.50
   8   0   0 2654.73   34.90
   8   0   0 2745.83   39.60
  -8   0   0 2772.12   39.40
  10   0   0    3.70    2.20
  10   0   0    1.90    1.10
 -10   0   0    6.60    2.30
  12   0   0  159.78    4.70
 -12   0   0  161.68    7.70
  12   0   0  167.88    8.10
  14   0   0  156.68    8.70
 -14   0   0  154.08    8.30
  14   0   0  161.78    5.00
  16   0   0   29.00    5.40
 -16   0   0   35.40    6.50
  16   0   0   33.80    2.80
  18   0   0   49.10    7.20
  18   0   0   43.30    2.90
  -1  -1   0    1.00    0.40
   3  -1   0   19.30    2.00
  -3  -1   0   14.60    1.90
   3   1   0   13.50    1.40
  -3   1   0   14.70    1.70
   3   1   0   16.90    1.90
   5  -1   0    7.60    1.90
  -5  -1   0    4.60    1.60
   5   1   0    5.30    1.40
   5   1   0    4.90    1.70
  -5   1   0    5.20    1.60
   7  -1   0    8.00    0.90
  -7  -1   0    8.40    2.10
   7  -1   0    9.00    2.30
   7   1   0    7.60    2.10
  -7   1   0    6.80    1.90
   7   1   0    9.90    1.80
   9  -1   0   40.20    4.40
  -9  -1   0   41.00    4.30
   9  -1   0   39.50    1.70
   9   1   0   44.00    4.50
   9   1   0   32.70    2.60
  -9   1   0   35.40    3.90
  11  -1   0    5.80    2.50
  11  -1   0    0.70    0.80
 -11  -1   0    4.00    3.00
 -11   1   0    2.20    2.20
  11   1   0    2.30    1.40
  11   1   0    0.60    2.30
 -13  -1   0  148.69    8.00
  13  -1   0  136.79    7.80
  13  -1   0  133.99    3.50
 -13   1   0  135.69    7.40
  13   1   0  147.89    8.20
  13   1   0  137.29    5.20
  15  -1   0   54.89    6.70
 -15  -1   0   58.09    6.70
  15   1   0   51.69    3.60
  15   1   0   56.69    6.80
 -15   1   0   54.69    6.20
 -17  -1   0    6.80    3.70
  17  -1   0    8.60    4.20
  17   1   0    9.80    2.40
  17   1   0    8.90    4.30
   0  -2   0  286.87    5.70
   0   2   0  269.87    5.40
   0   2   0  289.77    5.70
  -2  -2   0  141.89    4.20
   2  -2   0  150.98    4.10
   2   2   0  147.09    4.20
  -2   2   0  157.68    4.10
  -2   2   0  149.49    3.50
   2   2   0  149.19    4.20
   4  -2   0   19.20    2.40
  -4  -2   0   12.40    2.10
   4   2   0   13.20    2.20
  -4   2   0   15.90    2.20
   4   2   0   12.50    1.90
  -6  -2   0  364.36    9.10
   6  -2   0  373.96    9.00
   6   2   0  371.86    9.30
  -6   2   0  370.76    8.60
   6   2   0  374.66    8.20
   8  -2   0   93.49    5.10
  -8  -2   0   79.29    4.90
   8   2   0   80.39    4.00
   8   2   0   83.29    5.00
  -8   2   0   82.19    4.60
  10  -2   0  133.99    6.70
 -10  -2   0  146.69    7.00
 -10   2   0  130.49    6.30
  10   2   0  132.09    5.20
  10   2   0  134.59    6.90
 -12  -2   0   42.00    5.30
  12  -2   0   39.40    5.20
 -12   2   0   37.00    4.70
  12   2   0   41.10    3.40
  12   2   0   37.80    5.00
  14  -2   0   -3.30    4.50
 -14  -2   0   -1.00    2.70
  14   2   0    0.30    2.80
 -14   2   0    2.20    2.50
  14   2   0   -0.10    1.70
  16  -2   0    2.50    3.50
 -16  -2   0    0.70    3.10
  16   2   0    1.10    5.90
  16   2   0    1.60    2.10
  18  -2   0    2.60    3.70
  18   2   0    5.90    2.60
  18   2   0    4.90    4.20
   1  -3   0 1146.09   17.30
   1  -3   0 1145.09   17.10
  -1  -3   0 1151.68   17.70
   1   3   0 1101.39   17.10
   1   3   0 1133.59   17.40
  -1   3   0 1163.28   17.00
   1   3   0 1153.38   17.70
  -1   3   0 1153.78   16.70
  -1   3   0 1161.78   17.20
  -3  -3   0   33.70    2.80
   3  -3   0   37.10    2.80
   3   3   0   37.50    2.80
  -3   3   0   37.30    2.70
  -3   3   0   34.00    1.90
   3   3   0   37.50    2.80
  -5  -3   0   32.10    3.10
   5  -3   0   39.70    3.20
   5   3   0   37.90    3.00
  -5   3   0   38.80    3.10
  -5   3   0   34.20    1.40
   5   3   0   39.70    3.30
   7  -3   0   94.49    5.00
  -7  -3   0   94.69    5.10
   7   3   0  100.89    4.70
   7   3   0   92.29    5.10
  -7   3   0   95.49    4.70
  -9  -3   0  162.28    7.20
   9  -3   0  155.48    6.90
   9   3   0  153.38    6.00
  -9   3   0  152.88    6.50
  11  -3   0  382.06   11.80
 -11  -3   0  353.76   11.70
 -11   3   0  363.46   11.00
  11   3   0  396.66   12.50
  11   3   0  377.46   10.10
 -13  -3   0   25.10    4.70
  13  -3   0   28.30    5.80
 -13   3   0   16.60    3.70
  13   3   0   22.60    4.50
  13   3   0   23.20    3.40
  15  -3   0   54.29    6.90
 -15  -3   0   55.99    7.40
  15   3   0   45.90    4.60
  15   3   0   57.39    7.20
 -15   3   0   30.50    4.90
  17  -3   0    0.90    3.40
 -17  -3   0    3.30    4.10
  17   3   0   -2.30    2.00
  17   3   0    0.10    4.00
   0  -4   0   10.40    2.10
   0   4   0   11.40    2.10
   0   4   0   11.30    2.10
   0   4   0   11.20    1.90
   2  -4   0   26.00    4.50
  -2  -4   0   24.60    2.80
   2   4   0   25.20    3.10
  -2   4   0   23.60    2.30
  -2   4   0   28.50    3.00
   2   4   0   30.70    3.10
  -2   4   0   22.50    2.50
   2   4   0   23.70    2.80
   4  -4   0  805.52   14.50
  -4  -4   0  781.12   15.00
   4   4   0  783.02   14.70
   4   4   0  794.92   14.80
  -4   4   0  755.72   12.00
  -4   4   0  794.92   14.10
   6  -4   0   11.30    2.70
  -6  -4   0   12.20    2.70
  -6   4   0   10.10    2.40
  -6   4   0    8.20    1.10
   6   4   0    9.30    2.40
   6   4   0   10.10    2.40
   8  -4   0   28.00    3.80
  -8  -4   0   23.90    3.80
   8   4   0   30.00    4.30
   8   4   0   23.20    3.80
  -8   4   0   22.00    3.20
 -10  -4   0   83.79    5.90
  10  -4   0   66.49    5.30
  10   4   0   70.39    4.70
 -10   4   0   64.39    4.90
  10   4   0   63.19    5.50
  12  -4   0  545.15   15.60
 -12  -4   0  580.64   17.70
  12   4   0  588.04   16.60
  12   4   0  551.54   13.60
  14  -4   0  142.49    8.80
 -14  -4   0  149.39    9.10
  14   4   0  146.19    9.10
  14   4   0  146.99    7.00
 -14   4   0  144.19    8.10
 -16  -4   0    8.50    4.40
  16  -4   0   13.90    4.50
  16   4   0    6.60    4.20
  16   4   0    9.10    3.10
   1  -5   0   10.10    2.20
  -1  -5   0    9.30    2.10
   1  -5   0    7.50    2.10
   1   5   0    8.00    2.20
  -1   5   0    4.80    1.60
  -1   5   0   12.40    2.20
   1   5   0    7.10    2.00
  -1   5   0    9.50    2.20
   1   5   0    8.10    2.10
  -3  -5   0  143.09    5.80
   3  -5   0  149.19    5.80
   3   5   0  152.78    6.20
   3   5   0  145.49    5.80
   3   5   0  157.78    6.10
  -3   5   0  138.99    6.20
  -3   5   0  143.19    4.80
  -3   5   0  145.99    5.60
  -5  -5   0  463.55   11.70
   5  -5   0  460.35   11.10
   5   5   0  457.25   11.50
  -5   5   0  456.65    8.50
  -7  -5   0   31.50    4.20
   7  -5   0   29.10    3.80
   7   5   0   30.90    4.30
  -7   5   0   27.30    3.50
   7   5   0   35.50    4.30
  -7   5   0   24.40    1.60
   9  -5   0   73.79    5.60
  -9  -5   0   86.49    6.00
  -9   5   0   66.89    4.70
   9   5   0   80.59    5.30
   9   5   0   76.19    5.70
  11  -5   0   28.70    5.60
 -11  -5   0   31.90    5.00
  11   5   0   43.20    5.90
  11   5   0   33.20    4.60
 -11   5   0   29.80    4.10
  13  -5   0  198.58    9.70
 -13  -5   0  218.18   10.60
  13   5   0  219.38   10.80
  13   5   0  214.28    8.70
 -13   5   0  188.98    8.80
  15  -5   0    4.50    3.70
 -15  -5   0    8.20    4.50
  15   5   0    9.00    3.90
  15   5   0   12.10    4.50
  17  -5   0    0.40    3.90
 -17  -5   0    9.70    8.10
  17   5   0   -0.90    1.90
  17   5   0    6.10    5.50
   0  -6   0  114.99    6.40
   0  -6   0  111.29    5.40
   0   6   0  105.09    5.40
   0   6   0  117.39    5.30
   0   6   0  120.99    5.30
   2  -6   0   73.39    4.60
   2   6   0   64.89    4.30
  -2   6   0   71.79    5.50
  -2   6   0   75.59    4.10
   2   6   0   70.19    4.70
  -2   6   0   78.69    5.00
   4  -6   0   33.40    3.90
  -4  -6   0   26.60    4.60
   4   6   0   31.80    4.10
  -4   6   0   30.50    3.90
  -4   6   0   30.90    3.00
  -4   6   0   33.40    3.70
   4   6   0   32.80    4.10
  -6  -6   0   74.09    5.40
   6  -6   0   75.69    5.10
   6   6   0   73.69    5.30
  -6   6   0   73.59    3.30
   6   6   0   71.69    5.00
   6   6   0   77.99    5.30
  -6   6   0   72.99    4.90
  -6   6   0   71.89    4.60
  -8  -6   0  312.47   11.00
   8  -6   0  316.17   10.40
  -8   6   0  307.17    6.00
   8   6   0  312.27   10.90
   8   6   0  344.27   10.70
  -8   6   0  316.17    9.70
  10  -6   0    0.90    2.60
 -10  -6   0   -0.10    2.60
  10   6   0    0.40    4.30
  10   6   0    1.90    2.10
 -10   6   0    0.20    1.90
  12  -6   0   28.90    5.00
 -12  -6   0   30.80    6.60
  12   6   0   38.30    5.10
  12   6   0   36.20    5.90
 -12   6   0   31.50    4.50
 -14  -6   0    5.50    4.10
  14  -6   0   10.10    4.10
  14   6   0    5.90    2.70
  14   6   0    7.80    4.00
  16  -6   0   12.60    4.70
 -16  -6   0   26.20    6.30
  16   6   0   21.60    5.70
   1  -7   0  166.88    7.10
   1  -7   0  168.78    7.00
  -1   7   0  162.28    7.00
   1   7   0  165.48    7.20
   1   7   0  162.08    6.80
  -1   7   0  160.68    7.50
   1   7   0  178.38    6.90
  -3  -7   0   26.60    4.00
   3  -7   0   29.10    4.00
  -3   7   0   25.70    3.20
  -3   7   0   31.20    3.70
   3   7   0   30.00    4.30
   3   7   0   28.50    3.90
  -3   7   0   23.20    3.60
   3   7   0   26.70    4.00
  -5  -7   0    1.40    2.00
   5  -7   0   -1.10    1.80
   5   7   0    0.10    1.50
  -5   7   0    1.30    1.90
   5   7   0    0.70    2.10
   5   7   0    2.30    2.00
  -5   7   0    1.20    1.90
  -5   7   0    2.10    1.40
  -7  -7   0    0.40    2.40
   7  -7   0    2.00    2.30
  -7   7   0    1.10    1.30
   7   7   0    1.10    1.90
   7   7   0   -1.10    1.80
  -7   7   0   -3.10    1.80
   7   7   0   -1.40    1.90
  -7   7   0    0.30    1.80
   9  -7   0   22.60    4.30
  -9  -7   0   34.60    5.60
  -9   7   0   24.50    2.00
   9   7   0   31.50    4.70
  -9   7   0   23.60    3.90
   9   7   0   24.90    4.40
  11  -7   0    7.20    3.20
 -11  -7   0    9.10    4.00
  11   7   0    7.30    3.20
  11   7   0    7.10    3.60
 -11   7   0    1.50    2.00
  13  -7   0   20.60    4.60
 -13  -7   0   23.80    5.70
  13   7   0   27.40    5.50
 -15  -7   0    3.70    4.60
  15   7   0   11.20    4.70
   0  -8   0   17.20    3.60
   0  -8   0   15.40    3.40
   0   8   0   16.10    3.20
   0   8   0   16.60    3.30
   0   8   0   12.90    3.10
   2  -8   0  137.39    6.90
   2   8   0  138.29    7.20
   2   8   0  148.29    7.10
   2   8   0  144.09    6.90
  -2   8   0  149.19    6.70
  -2   8   0  137.89    6.30
  -2   8   0  140.99    6.90
   4  -8   0  158.28    7.70
  -4  -8   0  167.58    9.70
   4   8   0  149.59    7.50
   4   8   0  156.88    7.50
  -4   8   0  161.28    7.00
  -4   8   0  154.48    7.20
   4   8   0  155.38    8.00
  -6  -8   0    8.80    3.30
   6  -8   0   10.50    3.20
   6   8   0    8.40    3.00
  -6   8   0    5.60    2.00
  -6   8   0    6.00    2.60
   6   8   0    5.20    2.90
   6   8   0   10.10    2.90
  -6   8   0    7.50    2.70
  -8  -8   0   67.49    7.60
   8  -8   0   44.60    5.70
   8   8   0   44.30    5.80
  -8   8   0   36.90    2.80
  -8   8   0   43.70    5.10
   8   8   0   38.70    6.00
   8   8   0   49.40    7.60
  10  -8   0   83.19    6.80
 -10  -8   0   78.19    7.30
 -10   8   0   72.89    2.90
 -10   8   0   73.79    6.30
  10   8   0   67.39    7.50
  10   8   0   65.89    7.60
  12  -8   0   30.90    5.20
 -12  -8   0   56.49    8.50
  12   8   0   43.90    6.70
  14  -8   0   63.89    9.30
 -14  -8   0  125.89   12.00
  14   8   0  106.59   10.60
   1  -9   0  260.27   11.70
   1  -9   0  255.97    9.90
   1   9   0  264.77   10.30
  -1   9   0  254.27    9.30
   1   9   0  259.77    9.60
  -1   9   0  271.67    9.50
   1   9   0  259.57    9.70
  -1   9   0  268.87   10.10
   3  -9   0    8.90    3.00
  -3  -9   0    5.30    2.80
  -3   9   0    6.00    2.50
  -3   9   0    2.40    2.00
   3   9   0    4.60    2.70
   3   9   0    5.80    2.70
  -3   9   0    4.40    2.80
   3   9   0    9.30    3.00
   5  -9   0    1.70    2.50
  -5  -9   0    4.30    3.00
   5   9   0    2.00    2.70
  -5   9   0    0.40    1.90
  -5   9   0    2.20    2.30
   5   9   0   -0.30    2.20
  -5   9   0    1.10    1.70
  -7  -9   0  187.18    9.70
   7  -9   0  195.78    9.40
  -7   9   0  183.48    8.30
   7   9   0  185.48    9.30
  -7   9   0  183.38    6.60
   7   9   0  183.78    9.90
   9  -9   0  170.68    9.20
  -9  -9   0  193.88   10.40
  -9   9   0  176.88    8.80
   9   9   0  173.88    9.70
  -9   9   0  173.28    5.60
   9   9   0  174.28   10.10
  11  -9   0   10.60    4.30
 -11  -9   0   21.50    5.50
  11   9   0    0.50    2.40
 -11   9   0    5.80    3.40
 -13  -9   0   42.70    7.30
  13  -9   0   16.90    4.40
  13   9   0   40.50    7.10
 -13   9   0   29.10    5.30
   0 -10   0    3.50    2.80
   0  10   0    5.10    2.70
   0  10   0    1.70    2.50
   0  10   0   -2.60    1.70
   2 -10   0    2.20    2.70
   2  10   0    1.50    2.40
  -2  10   0    3.10    2.70
   2  10   0    1.70    2.50
  -2  10   0    1.40    2.10
   2  10   0    1.20    2.40
  -2  10   0    3.90    2.60
  -4 -10   0    0.40    2.70
   4 -10   0    5.80    2.90
   4  10   0    0.20    2.50
  -4  10   0    0.00    2.10
  -4  10   0    0.40    1.90
   4  10   0   -1.10    2.10
   4  10   0    3.10    2.50
  -6 -10   0   10.00    4.00
   6 -10   0    8.10    3.50
  -6  10   0    5.50    3.00
   6  10   0   -1.80    2.00
  -6  10   0    5.60    2.40
   6  10   0    9.00    3.60
  -8 -10   0    6.30    3.90
   8 -10   0    7.60    3.70
   8  10   0    5.50    3.50
  -8  10   0    7.60    3.20
  -8  10   0   15.10    2.80
  10 -10   0   -1.20    3.00
 -10 -10   0   -0.50    3.50
  10  10   0   -0.70    3.00
 -10  10   0   -2.80    2.70
 -10  10   0    0.40    1.60
  -1 -11   0    2.10    2.80
   1  11   0    0.00    2.40
  -1  11   0    2.30    2.50
  -1  11   0    5.50    2.60
   1  11   0    1.30    2.30
   3 -11   0  130.19    8.30
  -3  11   0  132.59    7.30
   3  11   0  134.59    8.20
  -3  11   0  128.99    7.50
  -5 -11   0   46.80    7.10
   5 -11   0   47.00    6.10
   5  11   0   58.59    7.50
  -5  11   0   50.39    5.30
  -5  11   0   37.10    5.30
  -7 -11   0   44.60    7.20
   7 -11   0   50.29    6.80
  -7  11   0   34.50    5.10
  -7  11   0   41.40    4.50
   7  11   0   42.30    6.40
  -9 -11   0   20.00    5.50
   9 -11   0   13.20    4.30
  -9  11   0   15.10    4.10
  -9  11   0   13.50    2.70
   9  11   0   19.40    5.30
   0  12   0   16.40    4.20
  -2  12   0   39.30    5.60
  -2  12   0   42.90    5.80
   2  12   0   52.49    6.60
   4 -12   0   16.70    5.20
  -4 -12   0   19.50    5.20
  -4  12   0   18.70    4.10
  -4  12   0   13.20    3.70
   4  12   0   13.10    4.70
  18   0  -1   -3.20    3.10
  18   0  -1    0.00    1.40
 -18   0   1    8.00    4.20
 -16   0   1   -3.50    2.70
  16   0  -1   -1.30    3.10
  16   0  -1    0.90    1.50
  14   0  -1    0.70    1.50
  14   0  -1    3.30    2.90
 -14   0   1    0.10    2.50
  12   0  -1    0.20    2.10
 -12   0   1   -0.10    2.20
  12   0  -1    2.10    1.40
 -10   0   1    2.30    1.90
  10   0  -1    1.10    2.00
  -8   0   1   -0.20    1.60
   8   0  -1    0.40    1.80
  -6   0   1    0.00    1.40
   6   0  -1    0.70    1.50
  -4   0   1   -1.90    2.00
   4   0  -1   -0.50    1.40
  -2   0   1   -0.40    0.60
   2   0  -1    0.10    0.60
   2   0  -1   -0.10    0.80
   0   0  -1    1.00    0.60
   0   0   1    0.50    0.60
   0   0   1    0.40    0.60
   0   0  -1    0.10    0.60
   0   0  -1   -0.60    0.60
   0   0   1   -0.20    0.50
   2   0   1    0.20    0.90
  -2   0  -1    0.80    0.80
  -2   0  -1    1.70    1.00
   2   0   1    1.10    0.80
  -4   0  -1    0.00    1.10
   4   0   1    0.00    1.20
  -4   0  -1    1.50    0.90
   4   0   1    0.30    0.80
  -6   0  -1    0.50    1.40
  -6   0  -1   -1.20    1.00
   6   0   1    0.50    0.90
   6   0   1    1.30    1.50
  -8   0  -1   -0.90    1.00
  -8   0  -1   -1.30    1.70
   8   0   1    0.60    0.90
   8   0   1   -0.40    1.60
 -10   0  -1    0.40    1.90
  10   0   1   -2.00    1.90
  10   0   1    1.40    1.20
 -12   0  -1    1.70    2.50
  12   0   1   -0.10    1.30
  12   0   1    0.10    2.70
  14   0   1   -0.70    3.00
 -14   0  -1    1.00    4.10
  14   0   1   -0.40    1.30
  16   0   1    1.10    1.50
  16   0   1   -0.90    3.10
  19  -1  -1   18.50    5.60
  19   1  -1   17.20    5.60
  17  -1  -1  103.59    8.50
 -17  -1   1  107.89    8.40
 -17   1   1  100.29    8.70
  17   1  -1   98.19    5.00
  17   1  -1   90.39    8.20
  15  -1  -1   49.40    2.50
  15  -1  -1   52.29    2.50
  15  -1  -1   46.50    6.20
 -15  -1   1   54.09    6.40
 -15   1   1   54.09    6.30
  15   1  -1   64.99    7.20
  15   1  -1   52.19    3.80
 -13  -1   1    2.40    2.70
  13  -1  -1    8.60    3.40
  13  -1  -1    3.50    1.20
  13  -1  -1    2.80    1.20
 -13   1   1    2.70    2.40
  13   1  -1    0.70    1.60
  13   1  -1    3.10    2.80
  11  -1  -1  167.18    4.10
  11  -1  -1  164.68    7.70
 -11  -1   1  187.48    8.10
  11   1  -1  165.38    7.60
 -11   1   1  174.98    7.60
   9  -1  -1    2.30    1.00
   9  -1  -1    2.50    2.10
  -9  -1   1    2.90    2.00
   9   1  -1    0.10    1.80
  -9   1   1    1.10    1.90
   7  -1  -1    2.90    0.90
  -7  -1   1    3.00    1.80
   7  -1  -1    2.20    1.90
   7   1  -1    1.40    1.70
  -7   1   1    3.50    1.80
   5  -1  -1   36.30    3.30
  -5  -1   1   31.50    3.40
   5  -1  -1   32.30    1.60
  -5   1   1   33.40    3.00
   5   1  -1   31.30    2.80
   3  -1  -1   13.60    2.00
   3  -1  -1   14.80    1.30
   3   1  -1   12.40    1.70
  -3   1   1   11.60    1.80
  -3   1   1   15.50    1.50
   1  -1  -1  779.92   12.00
   1  -1  -1  759.22   11.00
  -1  -1   1  772.82   10.20
  -1   1   1  763.32   11.80
  -1   1   1  781.62   12.00
   1   1  -1  762.52   10.10
  -1  -1  -1  958.50   13.90
  -1  -1  -1  976.70   14.50
   1   1   1  960.70   13.80
   1   1   1  985.10   14.50
  -1   1  -1  955.40   13.20
   1   1   1  973.70   14.70
  -3  -1  -1   23.80    2.10
   3  -1   1   23.40    2.00
   3  -1   1   23.90    1.50
  -3  -1  -1   26.80    2.40
   3   1   1   26.00    2.50
  -3   1  -1   24.40    2.00
  -3   1  -1   27.00    1.60
   3   1   1   23.90    1.90
   5  -1   1   18.50    2.30
  -5  -1  -1   20.20    2.20
  -5  -1  -1   21.00    2.70
   5  -1   1   15.10    1.40
   5   1   1   16.30    1.90
   5   1   1   19.50    2.50
  -5   1  -1   16.40    2.10
  -5   1  -1   17.40    1.40
   7  -1   1  491.85   11.10
   7  -1   1  486.45    7.90
  -7  -1  -1  489.65    9.80
  -7  -1  -1  467.65   11.20
  -7   1  -1  492.65    8.20
   7   1   1  479.85    9.40
   7   1   1  484.15   11.60
  -7   1  -1  482.45   10.70
   9  -1   1   32.70    2.00
  -9  -1  -1   33.60    4.10
   9  -1   1   34.90    4.10
   9   1   1   35.10    4.20
  -9   1  -1   29.50    3.50
   9   1   1   35.80    2.70
  11  -1   1   90.09    6.00
 -11  -1  -1   92.79    6.10
  11  -1   1   98.09    3.20
 -11   1  -1   94.59    5.90
  11   1   1  100.79    4.40
  11   1   1  106.29    6.60
  13  -1   1   33.80    2.20
  13  -1   1   38.10    5.30
 -13  -1  -1   45.10    5.60
  13   1   1   36.30    5.50
 -13   1  -1   34.90    4.90
  13   1   1   38.40    3.30
  15  -1   1   93.39    7.50
 -15  -1  -1   89.79    7.50
  15   1   1   83.29    7.50
  15   1   1   83.49    4.50
  17  -1   1   -0.90    3.20
  17   1   1    3.20    3.90
  17   1   1    1.30    2.10
 -18  -2   1   50.09    7.60
  18  -2  -1   45.60    7.30
  18   2  -1   52.89    9.40
  18   2  -1   46.20    4.60
 -16  -2   1   19.20    4.80
  16  -2  -1   14.10    4.40
  16   2  -1   15.80    4.60
  16   2  -1   17.50    3.10
 -16   2   1   14.00    4.20
 -14  -2   1    2.00    3.00
  14  -2  -1    2.40    2.90
 -14   2   1    2.70    2.80
  14   2  -1   -0.40    1.90
  14   2  -1    2.50    3.10
 -12  -2   1   55.59    5.90
  12  -2  -1   57.39    6.20
  12   2  -1   47.50    3.70
 -12   2   1   55.59    5.10
  12   2  -1   54.49    6.20
  10  -2  -1  326.87   10.50
 -10  -2   1  325.17   10.20
 -10   2   1  329.57   10.10
  10   2  -1  315.17   10.20
   8  -2  -1    8.90    1.00
   8  -2  -1    9.10    2.60
  -8  -2   1   11.20    2.70
   8   2  -1   17.10    3.10
  -8   2   1   11.00    2.50
   6  -2  -1  232.98    7.30
   6  -2  -1  230.98    4.30
  -6  -2   1  238.18    7.00
   6   2  -1  235.78    6.90
  -6   2   1  243.48    7.30
  -6   2   1  245.68    4.40
   4  -2  -1 2315.47   31.80
   4  -2  -1 2204.58   28.40
  -4   2   1 2271.57   31.50
   4   2  -1 2204.78   30.50
   2  -2  -1 2616.24   60.29
  -2   2   1 2539.65   54.09
   0  -2  -1 1631.44   23.40
   0  -2  -1 1616.34   23.30
   0   2   1 1632.94   23.60
   0   2   1 1616.34   23.20
  -2  -2  -1  146.99    4.60
   2  -2   1  155.88    3.40
  -2  -2  -1  140.09    4.80
  -2   2  -1  147.89    3.50
  -2   2  -1  148.69    3.10
   2   2   1  149.19    5.00
   2   2   1  145.89    4.40
   2   2   1  152.58    5.20
   4  -2   1    4.90    2.30
  -4  -2  -1    3.00    1.70
  -4  -2  -1    4.40    1.50
  -4   2  -1    4.60    0.90
   4   2   1    4.40    1.50
   4   2   1    4.60    1.70
  -4   2  -1    4.10    1.30
   6  -2   1   64.39    3.70
  -6  -2  -1   66.09    3.70
  -6  -2  -1   62.79    4.20
  -6   2  -1   60.99    2.00
  -6   2  -1   70.89    3.70
   6   2   1   63.09    3.50
  -8  -2  -1    3.20    2.00
   8  -2   1    7.50    2.30
  -8   2  -1    1.40    1.60
   8   2   1    3.50    2.20
   8   2   1    4.40    1.60
  10  -2   1  123.29    6.40
 -10  -2  -1  104.69    6.40
 -10   2  -1  109.99    5.70
  10   2   1  119.09    5.00
  10   2   1  122.99    6.80
 -12  -2  -1   -0.30    2.50
  12  -2   1    4.00    2.90
 -12   2  -1    1.80    2.50
  12   2   1    3.20    2.10
  12   2   1    2.50    2.80
  14  -2   1  374.76   13.40
 -14  -2  -1  399.46   14.00
  14   2   1  391.56   10.20
 -14   2  -1  364.66   12.40
  16  -2   1    0.30    3.00
  16   2   1   -0.30    2.10
  16   2   1    2.10    3.80
 -19  -3   1    3.70    4.80
  19  -3  -1   -1.30    3.90
  19   3  -1    1.70    4.30
  19   3  -1   -0.40    2.30
 -17  -3   1  224.28   11.60
  17  -3  -1  207.28   11.50
  17   3  -1  238.28   12.20
  17   3  -1  227.88    8.50
  15  -3  -1  102.79    8.10
 -15  -3   1  113.59    8.10
  15   3  -1  121.39    8.40
  15   3  -1  119.29    6.30
 -15   3   1  104.79    7.60
  13  -3  -1   11.20    3.90
 -13  -3   1    4.10    3.30
 -13   3   1    5.40    2.80
  13   3  -1    2.90    2.10
  13   3  -1    2.10    3.00
 -11  -3   1  193.48    8.40
  11  -3  -1  188.88    8.50
 -11   3   1  193.28    8.20
  11   3  -1  175.18    8.20
   9  -3  -1  276.27    9.40
  -9  -3   1  282.67    9.20
  -9   3   1  277.37    9.00
   9   3  -1  288.57    9.30
   7  -3  -1   25.10    3.70
   7  -3  -1   16.80    1.40
  -7  -3   1   20.10    3.00
  -7   3   1   20.80    3.30
   7   3  -1   17.80    2.90
  -7   3   1   18.80    1.30
  -5  -3   1   94.39    4.20
   5  -3  -1   96.49    4.80
   5  -3  -1   97.59    3.00
  -5   3   1   96.19    4.60
   5   3  -1   96.79    4.30
  -5   3   1   94.89    2.90
  -3  -3   1 1331.27   19.90
   3  -3  -1 1367.16   19.40
   3  -3  -1 1443.46   22.00
  -3   3   1 1408.36   21.80
   3   3  -1 1368.66   20.00
  -3   3   1 1387.16   19.30
  -1  -3   1    2.70    1.10
   1  -3  -1    2.20    1.30
   1  -3  -1    1.40    1.70
   1  -3  -1    2.00    1.60
   1   3  -1    0.70    1.00
   1   3  -1    1.20    1.00
  -1   3   1    2.20    1.60
  -1   3   1    1.50    1.20
  -1   3   1    1.20    1.50
  -1  -3  -1 1832.22   27.40
  -1  -3  -1 1815.82   27.00
   1  -3   1 1832.02   23.70
   1   3   1 1867.11   27.00
   1   3   1 1795.82   25.90
   1   3   1 1832.82   27.40
   3  -3   1  217.48    5.30
  -3  -3  -1  210.28    6.70
  -3   3  -1  214.88    4.70
   3   3   1  201.18    6.80
   3   3   1  217.88    6.20
   3   3   1  215.98    6.70
   5  -3   1  367.36    8.30
  -5  -3  -1  385.86   10.00
  -5  -3  -1  374.96    9.20
  -5   3  -1  377.66    6.20
  -5   3  -1  351.26    7.70
   5   3   1  382.46    9.10
   5   3   1  367.46    9.70
   7  -3   1    8.00    2.30
  -7  -3  -1    9.90    2.60
  -7   3  -1    8.80    2.00
   7   3   1   10.70    2.20
   7   3   1    4.80    2.20
   9  -3   1  277.27    9.10
  -9  -3  -1  283.77   10.00
  -9   3  -1  280.57    8.50
   9   3   1  299.47   10.30
  11  -3   1  164.08    7.80
 -11  -3  -1  156.88    8.30
  11   3   1  162.28    8.40
 -11   3  -1  154.18    7.00
  11   3   1  159.08    6.50
 -13  -3  -1   72.79    6.70
  13  -3   1   61.59    6.70
 -13   3  -1   73.49    5.70
  13   3   1   78.89    7.90
  13   3   1   70.39    4.80
  15  -3   1   -2.00    2.60
 -15  -3  -1    3.80    3.90
  15   3   1    1.50    2.30
  15   3   1    1.00    3.20
  17   3   1   19.50    3.60
  17   3   1   12.70    4.90
  18  -4  -1   31.90    6.60
 -18  -4   1   33.80    6.50
  18   4  -1   36.70    4.90
  18   4  -1   31.10    6.30
  16  -4  -1    5.20    3.50
 -16  -4   1    1.30    3.80
  16   4  -1    3.60    3.80
  16   4  -1    1.60    2.40
  14  -4  -1   84.19    7.30
 -14  -4   1   93.39   12.10
  14   4  -1   75.69    7.70
 -14   4   1   74.69    6.40
  14   4  -1   77.59    5.50
 -12  -4   1    2.60    2.80
  12  -4  -1    1.00    2.50
  12   4  -1    0.50    1.90
 -12   4   1    2.30    2.40
  12   4  -1   -3.10    2.30
 -10  -4   1   57.49    5.00
  10  -4  -1   55.59    5.30
  10   4  -1   48.70    4.70
 -10   4   1   52.29    4.70
   8  -4  -1    3.60    2.30
  -8  -4   1    5.90    2.10
   8   4  -1    5.70    2.20
  -8   4   1    3.50    0.90
  -8   4   1    4.80    2.40
   6  -4  -1   24.70    2.00
   6  -4  -1   31.30    3.90
  -6  -4   1   26.90    3.40
  -6   4   1   26.90    3.50
   6   4  -1   23.10    3.20
  -6   4   1   22.00    1.80
   4  -4  -1   15.50    2.90
   4  -4  -1   16.50    2.10
  -4   4   1   19.40    2.00
  -4   4   1   19.80    3.00
  -4   4   1   20.60    3.10
   4   4  -1   17.50    2.40
  -2  -4   1    9.60    1.80
   2  -4  -1   11.70    1.90
   2  -4  -1   16.80    2.70
  -2   4   1    8.00    2.30
  -2   4   1   12.70    1.90
  -2   4   1   11.30    2.70
   2   4  -1    8.40    1.70
   2   4  -1   11.30    2.20
   0  -4   1  190.18    5.00
   0  -4  -1  190.98    6.60
   0  -4  -1  196.28    6.70
   0  -4   1  196.58    5.00
   0   4   1  199.08    6.60
   0   4  -1  205.58    5.00
   0   4   1  190.78    5.80
   0   4   1  190.48    6.70
   0   4  -1  190.48    4.60
  -2  -4  -1  473.45   10.50
   2  -4   1  478.65    8.80
  -2  -4  -1  459.75   11.00
  -2   4  -1  483.15    8.30
   2   4   1  477.55   11.00
  -2   4  -1  477.35    8.20
   2   4   1  458.35   10.40
   2   4   1  465.95   11.40
   4  -4   1  327.57    7.60
  -4  -4  -1  328.17    9.00
  -4  -4  -1  323.87    9.40
   4   4   1  328.47    9.80
  -4   4  -1  321.37    6.80
   4   4   1  328.47    9.30
   4   4   1  330.87    8.80
   6  -4   1   83.99    4.40
  -6  -4  -1   81.09    5.30
   6   4   1   78.69    5.10
  -6   4  -1   78.29    2.50
  -6   4  -1   75.69    3.70
   6   4   1   75.29    5.20
   8  -4   1   65.89    4.60
  -8  -4  -1   69.59    5.40
   8   4   1   63.59    5.10
   8   4   1   64.59    4.40
  -8   4  -1   67.29    4.10
 -10  -4  -1   36.00    5.20
  10  -4   1   35.70    4.90
  10   4   1   30.30    4.70
 -10   4  -1   26.40    3.60
  10   4   1   25.60    3.50
 -12  -4  -1   -0.20    2.80
  12  -4   1    1.10    2.60
  12   4   1    1.10    2.00
 -12   4  -1    1.80    2.50
  12   4   1    2.90    3.00
 -14  -4  -1    8.90    4.30
  14  -4   1    6.80    3.50
  14   4   1    7.20    2.60
  14   4   1    8.50    4.00
  16  -4   1    7.10    4.00
  16   4   1    7.30    3.10
  16   4   1   16.20    5.20
  17  -5  -1    2.90    3.50
 -17  -5   1   11.20    5.00
  17   5  -1    9.60    4.70
  17   5  -1    8.20    3.40
  15  -5  -1   30.40    6.00
 -15  -5   1   36.40    6.00
  15   5  -1   31.70    6.10
  15   5  -1   19.50    4.00
 -13  -5   1  211.28   10.20
  13  -5  -1  188.78    9.80
 -13   5   1  206.88    9.50
  13   5  -1  225.88   10.50
  13   5  -1  202.18    8.70
 -11  -5   1  116.19    7.20
  11  -5  -1  114.49    7.50
  11   5  -1  101.39    6.10
 -11   5   1  111.09    6.60
  11   5  -1  102.29    6.90
   9  -5  -1   17.70    3.70
  -9  -5   1   17.30    3.60
  -9   5   1   18.30    1.50
   9   5  -1   18.10    3.60
  -9   5   1   12.20    3.00
  -7  -5   1  275.67    9.00
   7  -5  -1  258.67    9.30
   7   5  -1  273.27    9.00
  -7   5   1  278.27    9.10
  -7   5   1  281.07    5.90
   5  -5  -1  971.00   15.70
   5  -5  -1  932.61   18.70
  -5   5   1  975.60   18.60
   5   5  -1  955.00   17.50
  -5   5   1  995.90   18.80
  -5   5   1  944.51   15.20
   3  -5  -1    0.00    1.50
  -3  -5   1    2.00    1.60
  -3   5   1   -0.10    1.20
  -3   5   1    0.70    1.80
   3   5  -1    0.60    1.30
  -3   5   1    2.80    2.00
   3   5  -1   -0.50    1.20
   1  -5  -1   95.99    5.20
  -1  -5   1   92.59    4.00
   1  -5  -1   91.19    4.50
   1   5  -1   87.29    3.70
  -1   5   1   86.09    4.20
  -1   5   1   91.39    4.90
  -1   5   1   87.39    5.10
   1   5  -1   94.49    4.10
  -1  -5  -1   -0.30    1.30
   1  -5   1    1.90    1.30
  -1  -5  -1   -0.30    1.60
  -1  -5  -1    1.10    1.60
   1  -5   1    1.80    1.20
   1   5   1    0.70    1.20
   1   5   1   -0.60    1.50
  -1   5  -1   -0.20    1.30
   1   5   1   -1.50    1.30
  -1   5  -1    1.30    1.20
  -3  -5  -1  232.78    8.20
   3  -5   1  242.18    6.60
   3   5   1  249.97    7.90
  -3   5  -1  236.38    6.00
   3   5   1  236.48    8.50
   3   5   1  252.47    8.30
  -3   5  -1  240.18    6.00
   5  -5   1   58.39    3.80
  -5  -5  -1   57.99    4.70
   5   5   1   61.29    4.20
   5   5   1   60.19    4.80
  -5   5  -1   59.99    3.40
   5   5   1   66.69    4.80
  -7  -5  -1  133.49    7.20
   7  -5   1  130.19    6.00
  -7   5  -1  133.89    5.30
  -7   5  -1  132.49    3.40
   7   5   1  130.89    6.30
   7   5   1  130.59    7.20
   9  -5   1   20.60    3.50
  -9  -5  -1   22.60    4.40
   9   5   1   20.20    3.90
  -9   5  -1   14.90    2.60
   9   5   1   20.00    3.60
 -11  -5  -1   38.50    5.80
  11  -5   1   33.50    4.90
  11   5   1   49.99    5.40
  11   5   1   51.69    6.70
  13  -5   1   15.60    4.20
 -13  -5  -1   20.00    5.40
  13   5   1   23.50    5.40
  13   5   1   15.80    3.40
  15  -5   1   -1.00    2.80
  15   5   1    2.50    3.70
  15   5   1    0.80    2.50
 -16  -6   1    6.70    4.40
  16  -6  -1    6.60    4.10
  16   6  -1    2.10    3.80
 -14  -6   1  162.68   10.00
  14  -6  -1  138.79    9.20
  14   6  -1  165.58    8.60
  14   6  -1  135.39    9.10
 -12  -6   1   25.30    4.90
  12  -6  -1   21.90    4.50
  12   6  -1   29.30    4.60
  12   6  -1   34.30    5.50
 -12   6   1   23.60    4.30
  10  -6  -1   25.40    4.30
 -10  -6   1   35.40    5.30
  10   6  -1   35.60    4.80
  10   6  -1   34.10    4.90
 -10   6   1   25.00    4.20
   8  -6  -1  214.08    9.00
  -8  -6   1  201.98    8.30
  -8   6   1  199.58    5.10
  -8   6   1  213.88    8.60
   8   6  -1  197.98    8.40
   6  -6  -1  137.99    7.10
  -6  -6   1  145.19    6.60
  -6   6   1  145.29    4.80
  -6   6   1  146.79    7.10
  -6   6   1  157.88    7.10
   6   6  -1  150.88    6.50
  -4  -6   1   20.90    3.20
   4  -6  -1   24.40    3.90
  -4   6   1   21.90    3.50
   4   6  -1   23.70    3.30
   4   6  -1   20.80    3.10
  -4   6   1   21.30    3.60
  -4   6   1   18.30    2.50
  -2  -6   1  273.97    7.90
   2  -6  -1  261.47    9.20
  -2   6   1  268.97    8.80
   2   6  -1  275.37    8.10
   2   6  -1  269.07    7.40
  -2   6   1  262.97    7.70
  -2   6   1  259.07    9.00
   0  -6  -1    1.80    1.70
   0  -6  -1   -0.90    1.50
   0  -6   1   -1.60    1.30
   0  -6   1    2.00    1.50
   0   6   1    2.80    1.90
   0   6   1   -0.30    1.20
   0   6  -1    1.70    1.60
   0   6  -1   -0.50    1.20
   0   6   1   -0.50    1.50
   2  -6   1 1015.80   17.60
  -2  -6  -1 1007.80   20.10
  -2   6  -1  985.80   16.20
   2   6   1  996.40   20.70
  -2   6  -1 1017.00   16.70
   2   6   1  979.40   18.90
   2   6   1  991.40   19.70
   4  -6   1   17.20    2.70
  -4  -6  -1   26.00    4.20
  -4   6  -1   22.40    2.80
  -4   6  -1   20.80    2.60
   4   6   1   22.50    3.70
   4   6   1   25.30    4.00
   4   6   1   25.00    4.30
   6  -6   1   31.00    3.80
  -6  -6  -1   50.19    5.70
   6   6   1   35.30    4.20
  -6   6  -1   26.20    2.40
  -6   6  -1   30.90    3.00
   6   6   1   44.10    5.80
   6   6   1   35.30    4.70
  -6   6  -1   36.50    3.60
  -8  -6  -1   -1.80    2.30
   8  -6   1    1.90    2.20
   8   6   1    4.20    2.10
  -8   6  -1   -0.90    1.60
   8   6   1    2.30    2.50
  -8   6  -1    2.10    0.90
   8   6   1    2.50    2.60
  -8   6  -1    0.40    1.00
 -10  -6  -1  648.04   18.30
  10  -6   1  621.44   15.90
  10   6   1  632.44   16.10
  10   6   1  645.04   18.00
 -12  -6  -1    6.70    3.80
  12  -6   1    4.00    3.20
  12   6   1    2.50    2.50
  12   6   1    7.60    3.70
  14  -6   1    3.20    3.20
 -14  -6  -1    5.90    4.40
  14   6   1    4.50    4.00
  15  -7  -1    4.90    3.80
 -15  -7   1    2.90    4.10
  15   7  -1    2.90    3.80
 -13  -7   1   39.80    6.30
  13  -7  -1   35.40    6.00
  13   7  -1   49.30    7.60
 -11  -7   1   27.40    5.10
  11  -7  -1   24.60    5.20
  11   7  -1   24.00    4.80
 -11   7   1   18.10    5.30
   9  -7  -1    3.30    3.20
  -9  -7   1    6.80    3.30
   9   7  -1    3.80    2.60
  -9   7   1    3.00    1.40
  -9   7   1    2.50    2.60
   9   7  -1    5.00    2.70
   7  -7  -1   85.29    6.30
  -7  -7   1   75.19    5.70
   7   7  -1   94.89    6.00
  -7   7   1   85.39    6.00
  -7   7   1   86.59    3.90
  -7   7   1   82.59    5.70
   7   7  -1   80.29    5.70
   7   7  -1   80.49    5.60
   5  -7  -1   78.99    5.90
  -5   7   1   85.19    5.80
  -5   7   1   87.29    4.30
   5   7  -1   85.59    5.20
  -5   7   1   84.39    5.90
   5   7  -1   70.99    5.10
   3  -7  -1   51.19    4.90
  -3  -7   1   52.49    4.30
  -3   7   1   52.69    4.90
   3   7  -1   49.40    4.20
  -3   7   1   52.79    3.80
   3   7  -1   48.80    3.90
  -3   7   1   48.90    4.40
  -1  -7   1   24.20    3.40
   1  -7  -1   27.70    4.20
   1  -7  -1   33.50    5.60
  -1   7   1   21.70    3.60
   1   7  -1   26.20    3.00
  -1   7   1   30.50    4.10
  -1   7   1   33.90    4.80
   1   7  -1   31.00    3.70
   1  -7   1   16.90    2.90
  -1  -7  -1   24.90    4.20
  -1  -7  -1   19.40    3.80
  -1   7  -1   16.60    2.70
   1   7   1   18.60    3.70
   1   7   1   15.50    3.30
  -1   7  -1   16.10    2.40
   1   7   1   20.80    3.60
   3  -7   1  107.99    5.40
  -3  -7  -1  100.89    6.50
  -3   7  -1  105.49    4.80
   3   7   1  104.89    6.70
   3   7   1  104.69    6.20
  -3   7  -1  104.69    4.60
   3   7   1  117.39    6.10
  -5  -7  -1  155.18    8.10
   5  -7   1  176.48    7.00
  -5   7  -1  160.08    6.00
  -5   7  -1  171.38    5.90
   5   7   1  167.68    7.60
   5   7   1  188.38    8.50
   5   7   1  164.98    8.50
  -5   7  -1  177.68    6.30
   7  -7   1   24.60    3.80
  -7  -7  -1   28.30    5.10
   7   7   1   23.40    4.60
   7   7   1   42.90    5.60
   7   7   1   37.40    5.80
  -7   7  -1   27.60    3.50
  -7   7  -1   27.40    2.70
  -7   7  -1   26.70    3.30
  -9  -7  -1   36.00    5.90
   9  -7   1   28.50    4.50
   9   7   1   41.60    9.00
   9   7   1   37.20    5.50
   9   7   1   38.00    5.80
 -11  -7  -1    4.60    3.70
  11  -7   1    1.00    2.70
  11   7   1    4.20    3.40
  11   7   1    1.80    3.10
  11   7   1   -0.80    1.60
  13  -7   1   13.80    3.80
 -13  -7  -1   29.80    6.60
  13   7   1   25.10    5.80
 -14  -8   1   25.70    6.20
  14  -8  -1   20.80    5.20
  14   8  -1   30.90    6.50
 -12  -8   1  146.69    9.50
  12  -8  -1  109.29    8.40
  12   8  -1  127.39    9.00
 -10  -8   1    0.10    3.00
  10  -8  -1   -0.30    3.00
  10   8  -1   -0.70    2.60
 -10   8   1   -2.70    4.90
  10   8  -1   -1.10    1.90
 -10   8   1    2.30    2.70
 -10   8   1    0.50    1.30
  -8  -8   1  194.58    9.20
   8  -8  -1  190.28    9.60
  -8   8   1  192.38    8.90
  -8   8   1  204.58    6.30
   8   8  -1  190.68    9.50
   8   8  -1  207.78    9.20
  -8   8   1  199.18    9.20
   8   8  -1  192.88    9.30
   6  -8  -1   14.10    3.70
  -6   8   1   15.60    2.60
   6   8  -1   13.90    3.30
   6   8  -1   17.80    3.80
   6   8  -1   18.10    3.80
  -6   8   1   10.00    3.10
  -6   8   1    8.30    2.90
  -4  -8   1    6.00    2.60
   4  -8  -1    2.90    2.50
  -4   8   1    0.60    2.50
   4   8  -1   -1.50    1.60
   4   8  -1    0.40    1.90
   4   8  -1    1.10    2.00
  -4   8   1    1.00    1.70
  -4   8   1   -1.00    1.80
   2  -8  -1    2.60    2.40
  -2  -8   1    0.60    1.90
   2   8  -1    4.50    2.00
   2   8  -1    2.00    2.10
  -2   8   1    1.00    2.00
  -2   8   1   -1.90    1.30
  -2   8   1    2.60    2.40
   2   8  -1    2.60    2.10
   0  -8   1  100.99    5.60
   0  -8  -1   88.69    6.20
   0  -8  -1   98.29    6.60
   0   8  -1   98.89    5.80
   0   8  -1   94.19    5.20
   0   8   1   99.89    5.80
   0   8  -1   86.79    4.70
   0   8   1   88.99    6.00
   0   8   1   95.59    6.50
   2  -8   1   64.49    4.60
  -2  -8  -1   59.89    5.70
   2   8   1   56.19    4.80
  -2   8  -1   54.09    4.20
  -2   8  -1   56.49    4.40
   2   8   1   63.89    5.70
  -2   8  -1   61.69    4.10
   2   8   1   63.79    5.40
  -4  -8  -1    9.40    3.40
   4   8   1   10.70    3.30
   4   8   1    6.90    3.00
  -4   8  -1    7.70    2.20
  -4   8  -1    7.20    2.40
  -4   8  -1    6.70    2.20
   4   8   1   10.00    3.20
   6  -8   1   36.20    4.40
  -6  -8  -1   40.30    5.90
  -6   8  -1   36.20    4.00
   6   8   1   42.10    6.00
   6   8   1   44.70    6.50
  -6   8  -1   30.30    3.30
  -6   8  -1   35.40    3.90
   6   8   1   46.80    6.50
  -8  -8  -1   66.69    7.80
   8  -8   1   46.40    5.30
   8   8   1   56.39    6.00
  -8   8  -1   52.49    3.20
  -8   8  -1   45.70    5.00
  -8   8  -1   50.79    4.70
   8   8   1   67.29    7.70
   8   8   1   59.79    7.70
  10  -8   1    3.20    2.80
 -10  -8  -1    4.60    3.80
  10   8   1    8.20    3.60
 -10   8  -1    0.70    2.70
  10   8   1    6.40    3.90
 -12  -8  -1   -0.10    4.00
  12  -8   1    1.90    2.60
  12   8   1   -2.90    2.70
  12   8   1    3.70    3.60
 -13  -9   1    5.40    4.60
  13  -9  -1    0.20    3.30
  13   9  -1   -0.40    3.40
 -13   9   1   -1.60    3.20
  11  -9  -1   18.40    4.90
 -11  -9   1   23.10    5.50
  11   9  -1   13.10    4.40
 -11   9   1   19.60    2.40
 -11   9   1   18.90    4.70
   9  -9  -1   43.40    6.10
  -9  -9   1   42.60    6.20
   9   9  -1   24.70    4.90
  -9   9   1   37.60    5.50
   9   9  -1   47.90    6.30
  -9   9   1   44.00    3.50
   7  -9  -1   17.70    4.30
  -7  -9   1   37.20    5.70
   7   9  -1   27.90    4.70
   7   9  -1   24.30    4.60
  -7   9   1   21.30    4.50
  -7   9   1   30.20    3.70
   5  -9  -1    9.30    3.60
  -5  -9   1   20.80    4.50
  -5   9   1   11.10    2.70
  -5   9   1   16.10    3.90
   5   9  -1   22.60    6.40
   5   9  -1   12.10    3.80
   5   9  -1   15.10    3.50
  -5   9   1   17.40    4.10
  -3  -9   1  274.97   10.10
   3   9  -1  276.27    9.40
  -3   9   1  262.47   10.30
  -3   9   1  271.17   10.90
   3   9  -1  285.47   10.30
   3   9  -1  262.07   10.30
  -3   9   1  279.27    9.30
   1  -9  -1  214.68   10.10
  -1  -9   1  227.98    8.80
   1  -9  -1  227.68   10.20
   1   9  -1  212.78    7.80
  -1   9   1  215.48    9.40
   1   9  -1  217.28    9.00
  -1   9   1  218.58    8.70
  -1   9   1  221.18   10.00
   1   9  -1  222.78    8.70
  -1  -9  -1   -1.40    2.10
   1  -9   1   -0.70    1.90
  -1   9  -1    0.50    2.10
   1   9   1    1.60    2.30
   1   9   1   -0.50    2.40
  -1   9  -1    0.50    1.80
  -1   9  -1    0.50    2.10
   1   9   1   -0.40    1.70
  -3  -9  -1   26.10    5.10
   3  -9   1   27.40    4.00
   3   9   1   31.90    5.30
  -3   9  -1   27.60    3.40
   3   9   1   24.80    4.80
  -3   9  -1   22.00    3.50
  -3   9  -1   27.80    4.40
   3   9   1   38.60    5.80
  -5  -9  -1   97.59    7.60
   5  -9   1  102.99    6.50
   5   9   1  120.39    7.70
  -5   9  -1  111.49    5.60
  -5   9  -1   95.69    5.30
   5   9   1  118.39    8.30
  -5   9  -1  121.49    5.90
   7  -9   1    2.00    2.60
  -7  -9  -1   -1.30    3.00
   7   9   1    2.10    3.10
  -7   9  -1    1.80    1.80
  -7   9  -1    2.90    2.10
  -7   9  -1    0.30    2.20
   7   9   1    4.30    2.90
   9  -9   1   49.10    5.70
  -9  -9  -1   61.19    7.80
  -9   9  -1   51.69    3.20
  -9   9  -1   54.79    4.00
   9   9   1   58.89    7.60
  -9   9  -1   44.20    5.50
 -11  -9  -1   30.50    6.30
  11   9   1   24.50    5.80
 -11   9  -1   18.00    3.90
  11   9   1   33.80    6.30
 -12 -10   1   11.90    4.90
  12 -10  -1   17.50    5.20
 -12  10   1   11.70    4.50
  12  10  -1   14.40    5.20
  10 -10  -1    5.70    3.50
 -10 -10   1    3.20    3.60
 -10  10   1    0.40    3.10
  10  10  -1    6.30    3.70
 -10  10   1    2.60    2.10
   8 -10  -1    3.80    3.30
  -8 -10   1   -3.10    3.20
  -8  10   1    4.10    3.00
   8  10  -1    1.20    2.80
  -8  10   1   -0.60    1.80
   6 -10  -1   19.90    4.70
  -6  10   1   13.50    3.80
   6  10  -1   22.90    4.60
  -6  10   1   19.20    3.30
  -4 -10   1   32.50    5.50
   4 -10  -1   29.40    5.20
  -4  10   1   29.70    4.90
   4  10  -1   31.10    5.30
  -4  10   1   35.70    4.50
   4  10  -1   35.30    4.90
   2 -10  -1  290.77   12.00
  -2 -10   1  286.67   10.80
  -2  10   1  270.47   11.60
   2  10  -1  296.97    9.90
  -2  10   1  276.27   10.10
  -2  10   1  269.57   10.90
   0 -10   1  123.39    7.10
   0 -10  -1  111.99    7.90
   0  10  -1  115.39    6.20
   0  10   1  114.99    8.10
   0  10   1  116.09    7.50
   0  10   1  117.39    8.20
   0  10  -1  108.99    6.80
  -2 -10  -1    0.70    3.10
   2 -10   1    2.60    2.40
  -2  10  -1    0.80    2.00
  -2  10  -1    4.40    2.50
   2  10   1    0.00    2.60
   2  10   1    4.90    2.90
   2  10   1   -0.20    2.20
  -4 -10  -1   64.99    8.10
   4 -10   1   52.69    5.10
  -4  10  -1   54.59    4.60
   4  10   1   60.19    7.20
  -4  10  -1   55.19    5.40
   4  10   1   54.99    7.50
  -4  10  -1   57.09    7.40
   4  10   1   65.69    7.40
   6 -10   1   13.30    3.80
  -6 -10  -1   21.60    5.30
  -6  10  -1   10.70    2.80
   6  10   1   16.60    5.20
   6  10   1   20.30    4.70
  -6  10  -1   10.70    2.80
   8 -10   1   -2.40    2.20
  -8 -10  -1   -3.50    2.90
  -8  10  -1    0.10    2.30
   8  10   1   -0.20    5.20
 -10 -10  -1   17.30    5.60
  10 -10   1    9.70    3.50
 -10  10  -1    9.40    3.30
 -10  10  -1    9.20    2.00
  10  10   1   20.60    5.60
  -9 -11   1    3.60    3.60
  -9  11   1    6.50    3.70
   9  11  -1    4.00    3.70
  -9  11   1    1.80    2.10
  -7 -11   1    0.00    1.60
   7 -11  -1    6.50    3.80
  -7  11   1    8.40    2.70
  -7  11   1    4.40    3.10
   7  11  -1    8.00    6.00
  -5 -11   1   10.30    4.00
   5 -11  -1    3.60    3.30
  -5  11   1   14.40    3.80
   5  11  -1    9.00    3.60
  -5  11   1    4.80    2.70
   3 -11  -1   28.10    5.40
  -3 -11   1   33.90    5.40
   3  11  -1   34.50    5.20
  -3  11   1   27.40    5.30
  -3  11   1   39.80    8.00
   3  11  -1   62.49   11.60
  -1 -11   1   15.70    4.00
  -1  11   1   17.70    4.30
   1  11  -1   13.70    3.40
  -1  11   1   17.70    4.40
   1  11  -1    9.40    3.20
  -1 -11  -1   -1.00    2.60
  -1  11  -1   -0.70    2.40
   1  11   1    0.30    2.40
  -1  11  -1   -1.70    2.20
   1  11   1    1.30    2.80
   3 -11   1   15.60    3.70
  -3 -11  -1   15.80    4.70
  -3  11  -1   22.70    4.10
   3  11   1   24.20    5.30
   5 -11   1   -0.40    2.30
  -5 -11  -1   -1.10    3.10
   5  11   1    3.60    3.30
  -5  11  -1    0.70    2.20
  -5  11  -1    0.70    2.20
   7 -11   1    1.90    2.90
  -7 -11  -1    4.70    3.80
   7  11   1   -2.30    2.80
  -7  11  -1    1.10    2.10
  -7  11  -1   -2.20    2.10
  -6 -12   1    3.60    3.70
   6 -12  -1    3.70    3.60
  -6  12   1    2.40    3.00
   6  12  -1    4.90    3.40
  -6  12   1    2.70    2.50
  -4 -12   1    5.90    3.60
   4 -12  -1    5.00    3.60
  -4  12   1    4.10    3.10
   4  12  -1    1.80    2.90
  -4  12   1    1.40    2.30
  -2 -12   1   59.39    7.20
   2  12  -1   65.99    6.90
   0  12   1    8.30    3.70
   0  12  -1   10.90    3.30
  -2 -12  -1   -0.50    3.00
  -2  12  -1   -1.10    2.20
  -2  12  -1    1.20    2.70
   2  12   1    5.30    3.30
   4 -12   1    5.10    3.00
  -4 -12  -1    2.30    3.60
  -4  12  -1   -0.90    2.20
  -4  12  -1    1.40    2.40
   4  12   1    1.50    3.20
  20   0  -2    5.50    1.90
  20   0  -2    4.30    2.10
  20   0  -2   10.20    5.00
 -18   0   2   11.80    4.40
  18   0  -2    7.70    2.00
  18   0  -2    7.40    2.30
  18   0  -2    4.70    4.00
 -16   0   2   92.79    7.60
  16   0  -2   94.09    8.00
  16   0  -2   91.59    4.30
 -14   0   2    7.40    3.20
  14   0  -2   11.60    2.00
  14   0  -2    3.80    3.00
  12   0  -2  497.55   14.20
 -12   0   2  493.35   13.80
  12   0  -2  502.35   10.60
 -10   0   2    6.40    2.40
  10   0  -2    4.30    2.50
  10   0  -2    8.30    1.70
   8   0  -2  108.59    5.60
   8   0  -2  108.39    4.00
  -8   0   2  113.69    5.50
   6   0  -2   31.40    3.40
   6   0  -2   29.90    2.30
  -6   0   2   39.50    3.80
  -4   0   2 9406.36  138.09
   4   0  -2 9278.47  137.09
  -2   0   2  907.11   14.20
  -2   0   2  907.81   14.00
   2   0  -2  911.61   14.10
   2   0  -2  885.61   14.10
   0   0   2 1897.61   25.40
   0   0  -2 1861.81   25.30
   0   0   2 1843.02   25.60
   0   0  -2 1885.61   25.60
   0   0   2 1878.11   25.70
  -2   0  -2   31.30    2.40
   2   0   2   29.50    2.20
  -2   0  -2   28.30    2.30
   2   0   2   25.30    2.30
  -4   0  -2  364.66    7.70
  -4   0  -2  360.16    8.40
   4   0   2  361.06    8.30
   4   0   2  362.86    7.60
   6   0   2   17.40    2.70
  -6   0  -2   25.80    4.70
  -6   0  -2   23.50    2.50
   6   0   2   27.80    2.60
  -8   0  -2   72.49    3.70
  -8   0  -2   63.29    4.50
   8   0   2   70.59    4.90
   8   0   2   72.69    3.50
 -10   0  -2  215.28    6.60
 -10   0  -2  230.98    8.70
  10   0   2  209.28    6.20
  10   0   2  222.08    8.90
  12   0   2  174.08    5.80
 -12   0  -2  176.68   10.40
  12   0   2  160.68    8.50
  14   0   2   56.99    6.90
  14   0   2   56.39    3.90
  16   0   2    1.60    1.60
  16   0   2    0.70    3.40
  19  -1  -2   16.10    2.00
  19  -1  -2   19.10    2.20
  19  -1  -2   13.10    5.10
 -19  -1   2   15.50    5.20
  19   1  -2   17.10    2.90
  19   1  -2   10.70    2.80
  19   1  -2   12.30    7.80
 -19   1   2    3.40    3.80
  17  -1  -2    7.50    1.80
  17  -1  -2    8.80    4.30
 -17  -1   2    5.80    3.90
  17  -1  -2    6.50    1.80
  17   1  -2   13.30    4.70
  17   1  -2    7.70    2.50
 -17   1   2    4.60    3.80
 -15  -1   2   35.10    5.60
  15  -1  -2   32.40    2.60
  15  -1  -2   35.40    5.70
  15   1  -2   30.20    5.20
 -15   1   2   35.70    5.30
 -13  -1   2  122.09    7.30
  13  -1  -2  124.29    4.20
  13  -1  -2  112.59    7.40
 -13   1   2  137.19   11.10
  13   1  -2  118.09    7.50
  11  -1  -2  123.49    4.20
  11  -1  -2  132.39    7.20
 -11  -1   2  137.79    6.90
  11   1  -2  126.99    7.00
 -11   1   2  134.59    6.90
   9  -1  -2   22.40    3.50
   9  -1  -2   24.90    2.40
  -9  -1   2   18.50    3.00
   9   1  -2   21.10    3.70
  -9   1   2   20.30    3.40
   7  -1  -2 1105.89   16.60
  -7  -1   2 1120.39   19.40
   7  -1  -2 1115.29   19.90
  -7   1   2 1089.79   19.60
   7   1  -2 1108.69   19.30
   5  -1  -2  496.65   11.00
   5  -1  -2  497.05    9.00
   5   1  -2  484.85   10.10
  -5   1   2  510.35    9.10
  -5   1   2  484.85   10.70
   5   1  -2  499.15    9.50
  -3  -1   2 9884.81  138.39
   3  -1  -2 9795.02  148.79
  -3   1   2 9999.00  149.59
   3   1  -2 9646.54  137.29
   1  -1  -2  110.69    4.30
   1  -1  -2  111.89    3.90
  -1  -1   2  105.79    3.20
  -1  -1   2  113.09    3.90
   1   1  -2  107.99    3.00
  -1   1   2  106.99    3.80
  -1   1   2  104.89    4.10
   1   1  -2  117.69    3.90
  -1  -1  -2    4.00    1.40
   1  -1   2    3.00    1.00
   1  -1   2    2.40    1.10
  -1  -1  -2    1.30    1.30
   1  -1   2    2.00    0.90
  -1   1  -2    1.60    0.90
   1   1   2    3.50    1.30
  -1   1  -2    1.90    1.10
   1   1   2    1.40    1.30
   3  -1   2  207.08    5.20
  -3  -1  -2  204.38    6.30
  -3  -1  -2  210.08    5.80
   3  -1   2  204.48    5.20
  -3   1  -2  208.58    5.20
  -3   1  -2  207.28    5.20
   3   1   2  208.78    6.30
   3   1   2  209.78    5.70
  -5  -1  -2 1394.76   21.50
  -5  -1  -2 1396.46   23.00
   5  -1   2 1407.06   21.60
   5  -1   2 1401.56   20.30
   5   1   2 1393.26   21.20
  -5   1  -2 1403.56   20.20
  -5   1  -2 1390.66   21.30
   5   1   2 1409.16   22.80
  -7  -1  -2   84.99    5.10
  -7  -1  -2   86.69    4.30
   7  -1   2   89.89    4.80
   7  -1   2   84.39    3.50
   7   1   2   85.99    4.00
  -7   1  -2   86.09    3.60
   7   1   2   80.49    5.00
  -7   1  -2   80.99    4.40
   9  -1   2   23.70    3.60
  -9  -1  -2   22.00    2.90
  -9  -1  -2   26.10    3.90
   9  -1   2   26.10    2.50
  -9   1  -2   23.20    2.50
  -9   1  -2   20.20    3.20
   9   1   2   28.20    4.20
   9   1   2   20.10    2.70
 -11  -1  -2  103.19    6.70
  11  -1   2  103.99    6.70
  11  -1   2   96.39    4.00
  11   1   2  102.69    7.00
 -11   1  -2  105.99    6.30
  11   1   2   95.19    4.70
 -13  -1  -2   -1.30    2.70
  13  -1   2    8.80    3.70
  13  -1   2    6.40    1.70
  13   1   2    4.50    2.10
 -13   1  -2   -0.90    1.80
  13   1   2    5.90    3.30
  15  -1   2   14.70    4.50
  15  -1   2   15.10    2.10
  15   1   2   11.80    2.60
  15   1   2   11.20    4.30
  18  -2  -2   23.30    6.00
 -18  -2   2   24.70    5.80
  18   2  -2   24.60    5.70
 -18   2   2   28.50    5.70
  18   2  -2   17.50    3.30
  16  -2  -2   89.19    8.00
  16  -2  -2   91.99    3.00
 -16  -2   2   85.99    7.50
 -16   2   2   96.99    7.60
  16   2  -2   98.69    8.10
 -14  -2   2   77.09    6.60
  14  -2  -2   90.99    7.30
  14  -2  -2   84.29    3.20
 -14   2   2   86.79    6.80
  14   2  -2   86.89    7.10
  12  -2  -2   59.59    6.30
 -12  -2   2   55.79    6.00
  12  -2  -2   59.99    2.80
  12   2  -2   61.89    6.20
 -10  -2   2  129.19    6.50
  10  -2  -2  128.49    6.90
  10  -2  -2  132.49    4.00
 -10   2   2  136.39    6.70
  10   2  -2  128.69    6.50
   8  -2  -2  178.88    7.30
   8  -2  -2  171.08    4.60
  -8  -2   2  175.98    6.80
  -8   2   2  175.48    4.70
  -8   2   2  173.78    7.20
   8   2  -2  170.58    6.70
   6  -2  -2    3.50    2.00
   6  -2  -2    2.00    1.30
   6   2  -2    3.40    1.80
  -6   2   2    4.40    2.00
  -6   2   2    2.20    1.10
  -4  -2   2 1512.25   21.50
   4  -2  -2 1487.55   21.20
   4  -2  -2 1535.65   23.90
   4   2  -2 1496.25   21.50
  -4   2   2 1449.15   21.20
  -4   2   2 1473.55   23.70
   2  -2  -2  403.56    8.20
  -2  -2   2  401.36    6.80
   2  -2  -2  402.86    9.50
  -2   2   2  425.26    9.50
  -2   2   2  396.06    9.50
   2   2  -2  402.16    6.70
   2   2  -2  398.46    8.30
  -2   2   2  412.06    8.30
   0  -2  -2  361.16    8.70
   0  -2  -2  360.56    8.00
   0  -2  -2  371.96    8.90
   0   2   2  362.86    8.70
   0   2  -2  356.46    7.50
   0   2   2  364.06    7.90
   0   2   2  371.36    9.40
   2  -2   2   74.69    3.20
  -2  -2  -2   77.89    4.20
  -2  -2  -2   81.09    3.90
   2   2   2   75.69    4.30
   2   2   2   81.39    3.70
   2   2   2   76.19    4.10
  -2   2  -2   76.19    3.10
  -4  -2  -2    2.00    1.70
   4  -2   2    2.30    1.30
   4  -2   2    3.50    1.30
  -4  -2  -2    3.60    1.60
  -4   2  -2    1.80    1.20
   4   2   2    2.60    1.30
   4   2   2    1.40    1.70
  -4   2  -2    2.80    1.20
  -6  -2  -2   17.30    3.20
  -6  -2  -2   15.20    2.60
   6  -2   2   16.40    1.90
   6  -2   2   13.10    2.30
  -6   2  -2   12.30    2.00
   6   2   2   16.20    3.00
   6   2   2    9.40    2.00
  -6   2  -2   18.30    1.90
  -8  -2  -2    8.80    2.80
   8  -2   2    8.30    2.50
  -8  -2  -2    8.50    2.20
   8  -2   2   10.90    1.70
  -8   2  -2    8.10    2.10
  -8   2  -2    9.50    1.60
   8   2   2    8.70    2.00
   8   2   2   12.90    3.20
 -10  -2  -2   -1.20    2.30
 -10  -2  -2    4.00    2.20
  10  -2   2    3.40    2.50
  10  -2   2    5.00    1.40
 -10   2  -2    4.60    1.40
  10   2   2    1.80    2.40
 -10   2  -2    4.30    2.30
  10   2   2    4.40    1.90
  12  -2   2    6.20    1.40
 -12  -2  -2    7.60    3.30
  12  -2   2   12.90    3.70
  12   2   2   11.50    2.70
  12   2   2    3.90    3.10
 -12   2  -2    5.20    2.90
  14  -2   2   -0.20    3.00
  14   2   2    1.80    3.30
  14   2   2    0.60    1.90
  16  -2   2    1.40    3.90
  16   2   2    2.10    2.30
  16   2   2    5.30    4.20
 -19  -3   2    6.60    4.70
  19  -3  -2    4.70    4.60
  19   3  -2    6.50    2.90
  19   3  -2   10.50    5.10
  17  -3  -2   41.00    7.00
 -17  -3   2   51.19    7.20
 -17   3   2   41.80    6.40
  17   3  -2   61.49    7.60
  17   3  -2   42.60    4.70
 -15  -3   2  313.47   12.30
  15  -3  -2  313.67   13.00
  15   3  -2  285.07   12.20
 -15   3   2  278.47   11.90
 -13  -3   2    0.20    2.60
  13  -3  -2    2.60    1.00
  13  -3  -2   10.80    3.90
 -13   3   2    3.10    2.80
  13   3  -2    8.80    3.40
 -11  -3   2    4.40    2.60
  11  -3  -2    4.40    1.20
  11  -3  -2    2.50    2.80
 -11   3   2    7.70    3.40
  11   3  -2    1.60    2.30
   9  -3  -2   17.50    3.60
  -9  -3   2   18.50    3.30
   9  -3  -2   18.60    1.90
   9   3  -2   15.10    3.10
  -9   3   2   20.60    2.10
  -9   3   2   14.70    3.30
   7  -3  -2  267.07    9.00
   7  -3  -2  273.27    6.10
  -7  -3   2  218.68    7.30
   7   3  -2  269.97    8.00
  -7   3   2  288.47    9.00
  -7   3   2  282.57    6.20
   5  -3  -2   65.39    3.10
  -5  -3   2   66.69    3.70
   5  -3  -2   69.19    4.80
  -5   3   2   64.49    3.10
  -5   3   2   70.19    4.70
   5   3  -2   68.49    3.60
  -3  -3   2   76.99    3.10
   3  -3  -2   78.49    4.70
   3  -3  -2   76.59    3.50
  -3   3   2   84.69    4.80
   3   3  -2   78.29    3.10
  -3   3   2   78.39    3.50
  -3   3   2   83.29    4.80
   1  -3  -2    8.90    2.10
   1  -3  -2    7.70    2.20
   1  -3  -2    7.60    2.20
  -1   3   2    6.50    2.10
  -1   3   2    6.50    2.10
  -1   3   2    8.50    1.70
  -1  -3  -2   10.60    2.40
  -1  -3  -2   11.00    2.50
  -1  -3  -2   18.50    2.60
   1   3   2   14.90    2.10
   1   3   2   13.40    2.60
   1   3   2   12.70    2.50
  -1   3  -2   17.20    2.10
  -3  -3  -2  194.88    7.10
  -3  -3  -2  209.08    6.70
   3   3   2  186.08    9.90
  -3   3  -2  198.78    5.20
   3   3   2  210.48    7.60
   3   3   2  198.58    6.40
  -5  -3  -2    0.80    1.70
   5  -3   2    1.20    1.40
  -5  -3  -2   -0.30    1.60
   5   3   2    0.90    1.60
   5   3   2    0.40    1.40
  -5   3  -2    0.30    1.00
  -5   3  -2    2.40    1.20
  -7  -3  -2  216.98    7.70
  -7  -3  -2  236.18    9.00
   7  -3   2  218.68    7.00
   7   3   2  220.68    7.40
  -7   3  -2  215.68    5.10
   7   3   2  212.18    8.50
  -7   3  -2  225.08    6.50
  -9  -3  -2  235.08    8.40
   9  -3   2  222.48    8.10
  -9  -3  -2  229.28    9.60
  -9   3  -2  213.88    7.20
  -9   3  -2  217.98    5.00
   9   3   2  228.08    7.80
   9   3   2  218.68    9.30
  11  -3   2   37.20    4.80
 -11  -3  -2   37.10    5.60
  11   3   2   36.20    4.20
  11   3   2   43.00    6.10
 -13  -3  -2    2.20    3.30
  13  -3   2    0.10    2.70
  13   3   2    1.80    3.10
  13   3   2    1.00    2.10
  15  -3   2   -2.60    2.70
  15   3   2    0.30    2.10
  15   3   2    4.70    3.90
  18  -4  -2   34.50    6.40
 -18  -4   2   32.20    6.30
  18   4  -2   36.90    7.20
  18   4  -2   42.20    7.00
  16  -4  -2  237.68   12.00
 -16  -4   2  245.68   12.70
  16   4  -2  243.98   12.00
 -16   4   2  246.98   14.50
  16   4  -2  243.78    9.70
 -14  -4   2   90.99    7.30
  14  -4  -2   93.69    7.70
 -14   4   2   89.29    7.00
  14   4  -2   84.99    9.50
  12  -4  -2   23.90    1.80
  12  -4  -2   22.50    4.50
 -12  -4   2   33.00    4.90
  12   4  -2   18.80    3.90
 -12   4   2   25.00    4.20
 -10  -4   2   -0.40    2.10
  10  -4  -2    2.40    2.40
  10  -4  -2    1.50    1.10
 -10   4   2    1.50    2.30
  10   4  -2    1.80    2.20
 -10   4   2    0.70    1.10
   8  -4  -2  204.18    5.40
  -8  -4   2  193.58    7.20
   8  -4  -2  192.18    8.30
  -8   4   2  190.98    5.10
  -8   4   2  206.08    8.20
   8   4  -2  192.28    7.40
   6  -4  -2   20.90    2.40
   6  -4  -2   18.40    3.60
  -6  -4   2   17.50    2.80
  -6   4   2   22.80    3.60
   6   4  -2   27.00    3.30
  -6   4   2   22.40    2.30
   4  -4  -2  182.28    7.30
   4  -4  -2  189.38    6.60
  -4  -4   2  173.08    5.30
  -4   4   2  176.98    5.40
  -4   4   2  173.98    7.10
   4   4  -2  174.68    5.30
  -4   4   2  182.38    7.20
   2  -4  -2   64.09    3.70
   2  -4  -2   70.19    4.70
  -2  -4   2   64.69    2.80
  -2   4   2   66.29    4.60
  -2   4   2   60.69    3.50
   2   4  -2   69.89    2.60
   2   4  -2   72.09    2.70
  -2   4   2   69.19    4.70
   0  -4  -2  375.66   10.30
   0  -4  -2  360.66    9.20
   0  -4  -2  373.16   10.40
   0   4   2  373.36    9.10
   0   4   2  361.66   10.00
   0   4   2  386.86   10.70
  -2  -4  -2  185.48    6.60
  -2  -4  -2  180.48    7.30
   2   4   2  192.28    6.60
   2   4   2  176.18    7.40
   2   4   2  189.98    7.30
  -2   4  -2  190.28    5.50
   4  -4   2    4.50    1.40
  -4  -4  -2    4.00    2.00
  -4  -4  -2    3.20    2.10
  -4   4  -2    7.10    1.50
   4   4   2    8.80    2.60
   4   4   2    3.20    1.70
   4   4   2    5.70    2.30
  -6  -4  -2   70.79    5.30
   6  -4   2   64.09    3.90
  -6  -4  -2   60.99    4.50
  -6   4  -2   63.29    2.90
  -6   4  -2   62.39    3.10
   6   4   2   68.39    5.40
   6   4   2   63.29    5.10
   6   4   2   66.59    4.40
  -8  -4  -2  666.93   15.50
  -8  -4  -2  668.33   17.10
   8  -4   2  636.34   13.90
   8   4   2  647.14   16.70
  -8   4  -2  660.43   12.70
   8   4   2  651.13   14.80
  -8   4  -2  640.94   10.30
 -10  -4  -2  171.08    9.20
  10  -4   2  168.98    7.60
  10   4   2  172.98    9.00
  10   4   2  182.58    7.60
 -10   4  -2  186.78    7.00
 -12  -4  -2   17.00    4.70
  12  -4   2    8.50    3.30
  12   4   2    9.50    2.90
  12   4   2    5.80    4.70
  14  -4   2   24.60    4.70
  14   4   2   24.20    5.60
  14   4   2   31.70    4.70
 -17  -5   2  137.99   10.00
  17  -5  -2  151.28   10.60
  17   5  -2  152.38   10.40
  17   5  -2  144.69    8.00
 -15  -5   2    7.00    4.20
  15  -5  -2    3.70    3.70
 -15   5   2    4.40    3.30
  15   5  -2    0.70    2.40
  15   5  -2    6.50    3.90
  13  -5  -2   11.60    4.30
 -13  -5   2   16.20    4.50
  13   5  -2   11.40    3.90
 -13   5   2   13.10    3.70
  11  -5  -2  191.58    5.00
 -11  -5   2  190.98    8.70
  11  -5  -2  184.38    9.30
  11   5  -2  190.38    8.80
 -11   5   2  199.48    4.90
 -11   5   2  177.68    8.80
   9  -5  -2   47.90    2.90
   9  -5  -2   52.79    6.00
  -9  -5   2   47.00    4.90
   9   5  -2   49.80    4.60
  -9   5   2   40.10    4.90
  -9   5   2   44.00    2.70
   7  -5  -2  194.18    8.40
  -7   5   2  193.38    8.20
  -7   5   2  188.38    5.60
   7   5  -2  188.38    7.00
  -5  -5   2   34.90    3.30
   5  -5  -2   38.10    3.10
   5  -5  -2   40.40    5.00
  -5   5   2   37.10    4.50
  -5   5   2   41.90    4.80
  -5   5   2   37.00    2.90
   5   5  -2   35.20    3.10
   3  -5  -2   87.39    5.60
  -3  -5   2   84.69    3.70
   3  -5  -2   82.49    4.40
   3   5  -2   77.69    3.50
  -3   5   2   73.69    5.30
  -3   5   2   87.39    4.20
   3   5  -2   86.49    3.70
  -3   5   2   83.59    5.40
  -1  -5   2  422.86    8.10
   1  -5  -2  433.36   10.50
   1  -5  -2  425.66   11.80
  -1   5   2  428.56   11.70
  -1   5   2  427.36   10.30
  -1   5   2  434.36   12.10
  -1  -5  -2  279.77    8.60
  -1  -5  -2  277.67    9.60
  -1  -5  -2  275.87    9.70
   1   5   2  279.87    9.30
   1   5   2  272.17    9.00
   1   5   2  291.87   10.00
  -3  -5  -2  131.99    6.80
  -3  -5  -2  116.69    5.90
   3   5   2  127.19    6.90
   3   5   2  118.89    7.60
   3   5   2  128.19    5.80
  -3   5  -2  132.19    4.70
  -5  -5  -2  184.08    8.20
  -5  -5  -2  180.48    7.50
   5  -5   2  182.08    5.70
  -5   5  -2  176.98    5.20
   5   5   2  170.58    7.00
   5   5   2  174.88    8.40
   5   5   2  170.78    7.90
  -7  -5  -2   67.99    5.40
   7  -5   2   65.19    4.40
  -7  -5  -2   63.09    5.80
   7   5   2   72.29    6.20
   7   5   2   68.09    4.90
   7   5   2   71.29    5.80
  -7   5  -2   68.99    3.50
  -7   5  -2   64.19    3.00
  -9  -5  -2  232.78   10.50
   9  -5   2  229.98    8.40
   9   5   2  232.98    8.90
   9   5   2  234.88   10.30
  -9   5  -2  225.28    7.10
 -11  -5  -2   11.10    4.20
  11  -5   2   14.90    3.90
  11   5   2    8.60    3.60
  11   5   2    5.40    3.00
 -13  -5  -2   35.60    6.70
  13  -5   2   30.10    5.00
  13   5   2   29.20    4.40
  13   5   2   40.90    6.60
  16  -6  -2    4.10    3.90
 -16  -6   2    8.50    4.60
  16   6  -2    2.40    3.90
 -14  -6   2    1.00    3.40
  14  -6  -2    2.10    3.40
 -14   6   2    5.00    3.30
  14   6  -2    2.70    3.50
 -12  -6   2   72.39    7.10
  12  -6  -2   70.79    6.90
 -12   6   2   60.59    2.80
 -12   6   2   45.00    5.80
  12   6  -2   65.39    6.30
  10  -6  -2    7.10    1.90
 -10  -6   2   14.00    3.70
  10  -6  -2    5.70    3.20
 -10   6   2   15.30    2.10
 -10   6   2   13.00    3.50
  10   6  -2   10.90    3.40
   8  -6  -2  172.38    8.70
   8  -6  -2  183.78    6.00
   8   6  -2  193.48    7.90
  -8   6   2  187.88    8.60
  -8   6   2  182.08    5.70
   6  -6  -2   -0.10    2.10
  -6  -6   2   -1.20    1.60
   6  -6  -2    2.30    1.70
  -6   6   2   -0.10    1.40
  -6   6   2   -1.40    2.20
   6   6  -2    0.00    1.70
  -6   6   2    5.40    2.60
   4  -6  -2    6.40    2.70
   4  -6  -2    9.90    2.40
  -4  -6   2    6.90    2.20
  -4   6   2   10.60    2.30
  -4   6   2    9.10    2.90
   4   6  -2    8.80    2.10
  -4   6   2   10.60    3.10
   4   6  -2    9.00    2.00
  -2  -6   2    5.80    1.80
   2  -6  -2    3.60    2.20
   2  -6  -2    7.50    2.40
   2   6  -2    3.90    1.50
  -2   6   2    4.30    2.40
   2   6  -2    5.70    1.60
  -2   6   2    4.10    2.50
  -2   6   2    5.30    1.90
   0  -6  -2    5.80    2.60
   0  -6  -2    4.20    2.10
   0  -6   2    4.90    1.50
   0  -6  -2    8.40    2.70
   0   6   2    2.20    2.30
   0   6   2    6.00    2.60
   0   6   2    5.90    2.10
  -2  -6  -2   75.79    5.70
  -2  -6  -2   72.49    5.10
   2  -6   2   74.59    3.40
   2   6   2   79.09    4.90
   2   6   2   73.69    5.80
   2   6   2   72.09    5.30
   4  -6   2   56.39    3.50
  -4  -6  -2   56.59    4.90
  -4  -6  -2   53.79    5.20
   4   6   2   55.09    5.10
  -4   6  -2   57.79    3.50
   4   6   2   56.59    5.40
   4   6   2   51.39    4.30
  -6  -6  -2   30.30    4.50
   6  -6   2   26.60    3.20
  -6  -6  -2   30.20    4.90
   6   6   2   30.60    4.80
   6   6   2   27.60    4.90
   6   6   2   29.10    4.30
   8  -6   2   44.20    4.70
  -8  -6  -2   62.99    7.20
  -8   6  -2   48.50    2.70
   8   6   2   44.50    6.20
   8   6   2   65.09    6.50
  -8   6  -2   42.90    3.30
   8   6   2   39.30    5.60
  10  -6   2   -0.70    2.40
 -10  -6  -2    4.90    3.60
  10   6   2    0.10    2.40
 -10   6  -2   -0.40    1.70
  10   6   2   -0.60    2.10
  10   6   2    0.90    2.70
 -12  -6  -2    3.00    3.80
  12  -6   2   -0.10    2.50
  12   6   2   -1.30    2.90
  12   6   2    5.50    3.80
  14  -6   2    0.50    2.80
  14   6   2    5.70    4.40
 -15  -7   2   54.99    8.00
  15  -7  -2   51.39    7.60
  15   7  -2   39.00    6.80
 -13  -7   2    1.30    3.50
  13  -7  -2    7.90    3.80
 -13   7   2    5.00    3.10
  13   7  -2    4.80    3.50
 -11  -7   2   13.90    4.00
  11  -7  -2    8.60    3.80
 -11   7   2   15.70    2.10
 -11   7   2    9.00    3.60
  11   7  -2   20.40    4.30
   9  -7  -2    0.80    2.80
  -9  -7   2    1.40    2.20
  -9   7   2    2.60    1.60
   9   7  -2    0.80    2.00
  -9   7   2   -1.00    2.20
  -9   7   2    3.30    2.90
   7  -7  -2   74.79    4.60
   7  -7  -2   74.49    6.40
  -7  -7   2   66.69    5.20
   7   7  -2   73.79    5.40
  -7   7   2   81.09    4.30
  -7   7   2   69.69    6.00
  -7   7   2   67.09    5.90
   5  -7  -2   76.29    6.20
   5  -7  -2   71.59    4.60
  -5  -7   2   74.69    4.90
   5   7  -2   65.99    4.50
   5   7  -2   64.49    4.40
  -5   7   2   64.69    5.60
  -5   7   2   65.29    4.10
  -5   7   2   71.79    6.00
   3  -7  -2    1.10    2.10
   3  -7  -2    0.10    1.80
  -3  -7   2    3.40    2.10
  -3   7   2    0.50    1.50
  -3   7   2   -0.20    2.10
   3   7  -2   -0.20    1.50
   3   7  -2    1.90    1.70
  -3   7   2    0.10    2.10
   1  -7  -2   81.19    5.30
   1  -7  -2   70.19    5.80
   1  -7  -2   73.79    5.80
  -1  -7   2   80.59    4.30
   1   7  -2   74.79    3.40
  -1   7   2   72.69    5.90
   1   7  -2   74.99    3.70
  -1   7   2   75.59    5.70
  -1   7   2   74.49    4.80
  -1  -7  -2   14.30    3.60
  -1  -7  -2   21.70    3.80
   1   7   2   16.30    3.70
   1   7   2   24.50    3.90
   1   7   2   25.60    4.50
  -3  -7  -2   88.99    6.00
  -3  -7  -2   82.79    6.50
   3  -7   2   77.59    4.20
   3   7   2   92.99    6.40
   3   7   2   85.19    6.70
   3   7   2   81.89    5.50
  -5  -7  -2   -1.50    2.20
  -5   7  -2    2.90    1.60
   5   7   2    1.60    2.60
   5   7   2    2.70    2.00
   5   7   2   -0.70    2.30
   7  -7   2   17.10    3.20
  -7  -7  -2   12.30    4.10
  -7   7  -2   13.50    2.10
   7   7   2   13.00    3.70
   7   7   2   15.40    4.50
  -9  -7  -2   94.29    8.20
   9  -7   2  100.59    6.10
  -9   7  -2   90.19    3.40
  -9   7  -2   98.39    4.60
  -9   7  -2  100.09    3.50
  -9   7  -2  100.19    5.10
   9   7   2   98.89    7.80
   9   7   2  103.29    8.30
  11  -7   2   97.29    6.70
 -11  -7  -2  115.09    9.20
  11   7   2  113.49    9.40
  11   7   2  119.89    9.10
 -13  -7  -2   -0.50    3.90
  13  -7   2   -2.90    2.30
  13   7   2   -1.00    3.40
  13   7   2   -2.50    3.30
 -14  -8   2   38.20    6.50
  14  -8  -2   24.10    5.40
  14   8  -2   32.20    6.00
 -12  -8   2   96.79    7.80
  12  -8  -2  111.89    8.80
 -12   8   2  102.39    4.10
 -12   8   2  100.79    8.20
  12   8  -2  115.99    8.10
  10  -8  -2    8.80    4.20
 -10  -8   2   14.10    4.10
  10   8  -2   14.50    3.90
 -10   8   2   10.30    3.60
 -10   8   2   13.30    5.20
 -10   8   2    8.30    2.20
  -8  -8   2   -0.30    3.00
   8  -8  -2    0.00    3.10
   8   8  -2    3.50    2.20
  -8   8   2   -1.90    2.30
   8   8  -2    0.90    3.80
  -8   8   2    1.10    2.00
  -8   8   2    1.90    3.10
   6  -8  -2   21.30    4.50
  -6  -8   2   28.20    4.20
  -6   8   2   18.00    3.10
  -6   8   2   20.10    4.30
  -6   8   2   14.90    3.90
   6   8  -2   16.90    3.30
   6   8  -2   19.60    3.60
   4  -8  -2  243.88   10.80
  -4  -8   2  257.67    8.80
   4   8  -2  243.98    8.00
   4   8  -2  251.57    8.60
  -4   8   2  241.28   10.20
  -4   8   2  253.77    8.60
  -4   8   2  239.68   10.50
  -2  -8   2  135.69    6.00
   2  -8  -2  138.99    8.20
   2  -8  -2  145.39    7.20
  -2   8   2  143.59    7.90
   2   8  -2  143.29    5.90
  -2   8   2  136.49    8.10
  -2   8   2  144.19    6.70
   2   8  -2  150.18    5.50
   0  -8  -2  137.99    8.20
   0  -8  -2  129.49    8.00
   0   8   2  146.69    8.50
   0   8   2  131.09    7.60
   0   8  -2  137.29    4.70
   0   8  -2  138.99    5.10
   0   8   2  140.29    6.90
   2  -8   2    0.70    2.70
  -2  -8  -2   -0.80    2.40
   2   8   2    1.50    2.80
   2   8   2    2.40    2.40
   2   8   2    4.70    2.70
  -4  -8  -2  196.38   10.00
   4  -8   2  193.88    6.90
   4   8   2  184.38    9.40
   4   8   2  173.38    9.90
  -6  -8  -2  125.69    9.00
   6  -8   2  114.89    5.90
   6   8   2  129.19    8.30
   6   8   2  132.69    8.90
   6   8   2  100.89    6.60
  -6   8  -2  117.19    5.20
  -8  -8  -2   17.20    5.00
   8  -8   2    9.20    3.00
  -8   8  -2   13.70    2.30
   8   8   2   14.70    4.60
   8   8   2   13.80    4.40
  -8   8  -2   13.90    2.20
  10  -8   2   22.50    4.00
 -10  -8  -2   31.60    6.90
  10   8   2   33.30    6.00
  10   8   2   35.80    6.60
 -13  -9   2   49.40    7.10
  13  -9  -2   39.50    6.60
  13   9  -2   49.50    7.10
 -13   9   2   44.90    7.10
 -13   9   2   38.30    2.90
 -11  -9   2  121.39   10.50
  11  -9  -2  118.59    9.30
  11   9  -2  132.09    8.60
 -11   9   2  128.59    5.30
 -11   9   2  127.69    9.10
   9  -9  -2   -1.60    2.90
  -9   9   2    1.60    2.30
  -9   9   2    1.00    3.20
  -9   9   2    1.20    1.90
   7  -9  -2  131.69    8.90
  -7  -9   2  119.79    7.30
   7   9  -2  119.99    7.00
  -7   9   2  123.09    6.00
  -7   9   2  121.59    8.10
   7   9  -2  110.79    7.00
   5  -9  -2  194.88   13.00
  -5  -9   2  183.88    8.20
  -5   9   2  183.48    9.80
   5   9  -2  191.48    8.00
  -5   9   2  188.08    9.50
  -5   9   2  174.78    7.40
   3  -9  -2   69.39    8.00
  -3  -9   2   56.29    4.90
  -3   9   2   51.39    4.70
   3   9  -2   51.49    4.20
  -3   9   2   51.99    6.40
  -3   9   2   67.69    7.70
   1  -9  -2   34.90    5.80
   1  -9  -2   30.50    5.70
  -1  -9   2   33.90    6.20
   1   9  -2   28.70    3.60
  -1   9   2   27.60    5.40
   1   9  -2   23.20    2.90
  -1   9   2   25.80    4.70
  -1   9   2   29.40    4.30
  -1  -9  -2   -1.30    2.40
   1   9   2   -0.80    1.90
   1   9   2    1.10    2.40
   1   9   2   -0.30    2.50
  -3  -9  -2  116.19   11.10
   3  -9   2   70.39    4.70
   3   9   2   73.09    6.10
   3   9   2   75.39    6.60
   3   9   2   79.89    8.80
   5  -9   2   33.40    4.00
  -5  -9  -2   41.80    6.80
   5   9   2   40.20    6.20
  -5   9  -2   21.70    3.40
   5   9   2   33.40    6.20
  -7  -9  -2   89.89    9.50
   7  -9   2   78.19    5.50
  -7   9  -2   93.89    4.80
   7   9   2   93.39    7.70
  -7   9  -2   70.09    5.00
   7   9   2   90.19    8.20
   9  -9   2    4.70    2.90
  -9  -9  -2    4.00    4.20
  -9   9  -2    1.60    1.50
   9   9   2    3.80    3.80
   9   9   2    4.40    3.50
  -9   9  -2    0.50    1.50
  12 -10  -2   21.60    5.80
 -12 -10   2   35.70    6.40
  12  10  -2   46.50    6.90
 -12  10   2   25.90    5.80
 -12  10   2   41.10    3.70
  10 -10  -2    3.00    4.00
 -10 -10   2    1.10    1.80
 -10  10   2    1.80    2.10
 -10  10   2    2.80    3.30
  -8 -10   2    0.00    2.60
   8 -10  -2   -2.10    2.80
  -8  10   2    0.70    3.10
   8  10  -2   -2.00    2.60
  -8  10   2   -1.60    1.90
  -6 -10   2    7.10    3.20
   6 -10  -2    8.70    4.00
  -6  10   2    8.70    2.70
  -6  10   2   13.00    4.00
   6  10  -2   14.60    3.70
  -4 -10   2   62.59    6.50
   4 -10  -2   55.49    7.30
  -4  10   2   54.09    7.10
  -4  10   2   60.69    6.10
   4  10  -2   52.09    4.70
  -4  10   2   67.69    7.70
   2 -10  -2   -0.70    2.50
  -2  10   2    1.80    3.00
   2  10  -2    2.50    2.20
  -2  10   2    2.80    2.40
   2  10  -2    1.20    2.10
   0 -10  -2   27.10    5.70
   0  10  -2   26.00    3.50
   0  10   2   22.90    4.70
   0  10   2   34.20    4.80
   0  10  -2   29.00    3.40
  -2 -10  -2  108.79    8.50
   2  10   2  107.69    8.00
   2  10   2  118.19    7.60
  -2  10  -2  107.39    6.60
  -4 -10  -2    7.10    4.60
   4 -10   2    2.40    2.20
   4  10   2    8.30    4.20
  -4  10  -2    2.30    2.30
   4  10   2    5.80    3.70
  -6 -10  -2   55.09    8.40
   6 -10   2   30.60    4.20
  -6  10  -2   34.70    4.00
   6  10   2   37.70    6.40
   6  10   2   50.79    7.90
   8 -10   2    2.00    2.70
  -8 -10  -2   -1.90    3.50
   8  10   2    2.50    3.30
  -8  10  -2   -1.90    1.70
  -8  10  -2    1.40    3.10
   9 -11  -2    6.60    4.30
  -9 -11   2    4.90    3.80
  -9  11   2    3.30    2.60
   9  11  -2    5.30    3.90
  -9  11   2    8.00    3.70
  -7 -11   2   27.70    5.40
   7 -11  -2   33.60    6.20
   7  11  -2   34.50    5.50
  -7  11   2   32.70    4.50
  -7  11   2   27.10    5.30
  -5 -11   2    2.00    3.00
   5 -11  -2    1.10    2.90
   5  11  -2    0.00    2.80
  -5  11   2    5.80    3.10
  -5  11   2    6.20    3.40
   3 -11  -2    6.90    3.90
   3  11  -2   10.10    3.60
  -3  11   2    5.60    3.30
  -3  11   2    8.10    3.10
   1  11  -2   30.70    4.90
   1  11  -2   49.00    4.30
  -1  11   2   47.10    6.60
  -1 -11  -2    2.30    3.50
  -1  11  -2    2.60    2.80
   1  11   2    1.70    3.20
  -3 -11  -2   32.00    6.30
   3  11   2   29.80    5.90
  -3  11  -2   27.70    4.50
  -5 -11  -2   -2.30    3.40
   5 -11   2    2.00    2.90
  -5  11  -2    0.20    2.10
   5  11   2   -0.40    3.00
   4 -12  -2    1.60    3.20
  -4  12   2    6.80    3.90
   4  12  -2    3.60    3.50
   2 -12  -2    4.20    3.90
  -2 -12   2   11.60    3.70
   2  12  -2    8.80    3.00
  -2  12   2    6.90    3.80
   0  12  -2   56.69    4.70
   0  12   2   82.19    9.30
  20   0  -3    0.70    1.80
  20   0  -3   -2.40    5.20
  20   0  -3    0.10    2.10
  18   0  -3    1.00    1.80
  18   0  -3   -2.10    3.50
 -18   0   3    1.40    3.90
  16   0  -3   -0.10    1.60
 -16   0   3    0.10    3.10
  16   0  -3    1.80    3.30
 -14   0   3   -2.40    2.40
  14   0  -3    0.20    1.60
  14   0  -3    4.60    3.40
  12   0  -3    3.40    2.60
  12   0  -3   -0.60    1.40
 -12   0   3   -0.60    2.10
  10   0  -3    0.60    1.40
  10   0  -3    1.70    2.40
 -10   0   3    5.00    2.50
   8   0  -3    0.40    1.90
   8   0  -3    0.50    1.20
  -8   0   3    1.10    2.00
   6   0  -3    0.70    1.90
  -6   0   3   -0.10    1.20
   6   0  -3    0.80    1.20
  -6   0   3   -1.50    1.50
  -4   0   3   -0.30    1.20
   4   0  -3    0.70    1.50
   4   0  -3    1.60    1.30
   2   0  -3    2.50    1.40
  -2   0   3    0.30    1.30
  -2   0   3    1.80    1.50
  -2   0   3    1.10    1.30
   2   0  -3    1.50    1.60
   0   0   3    1.10    1.40
   0   0   3   -0.70    1.40
   0   0   3   -0.30    1.20
   0   0  -3    0.60    1.40
   2   0   3    0.00    1.10
  -2   0  -3   -0.30    1.30
   2   0   3    2.10    1.60
  -2   0  -3    0.20    1.50
   2   0   3    1.50    1.50
   4   0   3    1.10    1.30
  -4   0  -3    1.00    1.50
  -4   0  -3    1.10    1.50
   4   0   3   -1.00    1.40
   6   0   3    0.90    1.80
  -6   0  -3    1.10    1.60
   6   0   3    1.70    1.50
  -6   0  -3   -1.30    1.30
  -8   0  -3   -0.10    1.70
   8   0   3    0.80    1.40
  -8   0  -3   -0.40    1.80
   8   0   3    0.00    1.90
  10   0   3   -1.00    1.80
 -10   0  -3    3.20    2.10
  10   0   3    1.70    2.50
 -10   0  -3   -2.40    3.70
  12   0   3    5.30    3.10
 -12   0  -3    1.70    2.30
  12   0   3    2.30    1.90
  14   0   3   -0.50    1.70
  14   0   3    4.00    3.40
  19  -1  -3   46.50    3.60
  19  -1  -3   40.50    7.40
 -19  -1   3   46.10    7.30
 -19   1   3   45.20    7.10
  19   1  -3   43.70    7.40
  19   1  -3   49.99    4.30
  17  -1  -3   -2.90    3.20
  17  -1  -3    4.60    2.00
 -17  -1   3    9.80    4.20
  17   1  -3    2.10    3.80
  17   1  -3    4.40    2.20
 -17   1   3    5.30    3.70
  15  -1  -3   85.19    7.50
  15  -1  -3   86.39    4.40
 -15  -1   3   76.89    7.00
  15   1  -3   75.49    4.70
  15   1  -3   79.29    7.20
 -15   1   3   75.69    7.00
 -13  -1   3   51.99    5.90
  13  -1  -3   47.80    6.00
  13  -1  -3   48.00    3.40
 -13   1   3   51.49    6.00
  13   1  -3   40.80    5.40
  13   1  -3   51.79    3.90
 -11  -1   3    5.10    2.70
  11  -1  -3    1.60    2.40
  11  -1  -3    0.10    1.30
 -11   1   3    4.80    3.00
  11   1  -3    4.00    1.70
  11   1  -3    4.00    2.60
  -9  -1   3   60.99    4.60
   9  -1  -3   56.59    4.90
   9  -1  -3   62.59    3.60
  -9   1   3   53.99    4.80
   9   1  -3   55.49    4.70
   9   1  -3   58.89    3.80
   7  -1  -3    1.40    1.30
   7  -1  -3    1.70    2.10
  -7  -1   3    0.20    1.00
   7   1  -3    0.50    1.90
  -7   1   3    0.40    1.80
  -7   1   3    0.90    1.20
   7   1  -3    1.10    1.50
   5  -1  -3  604.94   11.80
  -5  -1   3  611.24   12.20
   5  -1  -3  607.44   13.30
  -5   1   3  605.94   13.10
   5   1  -3  621.94   12.30
   5   1  -3  621.24   12.10
  -5   1   3  608.74   11.80
   3  -1  -3  174.18    5.70
  -3  -1   3  181.78    5.80
  -3  -1   3  174.28    5.30
   3  -1  -3  186.28    6.40
   3   1  -3  188.28    5.40
  -3   1   3  171.08    5.60
   3   1  -3  176.98    5.70
  -1  -1   3   14.80    1.90
   1  -1  -3   22.50    2.70
  -1  -1   3   15.50    2.00
  -1  -1   3   15.30    2.10
   1  -1  -3   12.10    2.20
   1   1  -3   11.20    1.60
  -1   1   3   21.70    2.80
   1   1  -3   18.30    2.40
  -1   1   3   17.10    2.60
  -1  -1  -3   70.69    3.90
   1  -1   3   63.99    3.60
   1  -1   3   66.89    3.20
   1  -1   3   68.79    3.40
  -1  -1  -3   65.79    3.90
  -1   1  -3   63.29    3.60
   1   1   3   64.39    4.10
   1   1   3   68.69    3.80
   1   1   3   67.29    4.00
  -3  -1  -3  276.67    7.70
  -3  -1  -3  266.57    9.40
   3  -1   3  260.27    7.10
   3  -1   3  261.77    6.70
  -3   1  -3  271.47    7.10
   3   1   3  279.17    8.50
   3   1   3  274.77    7.60
   3   1   3  254.87    7.80
   5  -1   3    0.40    1.50
  -5  -1  -3    0.80    1.70
   5  -1   3    2.20    1.40
  -5  -1  -3   -1.20    1.30
   5   1   3    1.90    1.60
  -5   1  -3    2.20    1.60
   5   1   3    3.90    2.10
  -5   1  -3    3.10    1.50
   7  -1   3  196.08    6.30
  -7  -1  -3  199.48    7.10
  -7  -1  -3  201.98    8.00
   7  -1   3  200.68    7.40
   7   1   3  200.58    7.00
  -7   1  -3  190.78    7.00
  -7   1  -3  206.68    6.40
   7   1   3  181.38    7.60
   9  -1   3    0.40    1.50
  -9  -1  -3    2.50    2.00
   9  -1   3    2.00    2.50
  -9  -1  -3   -2.70    2.10
   9   1   3   -0.30    1.70
  -9   1  -3    0.80    2.00
  -9   1  -3   -0.50    1.60
 -11  -1  -3  217.38   10.00
  11  -1   3  270.97   10.40
  11  -1   3  245.48    7.30
 -11  -1  -3  240.88    8.50
  11   1   3  251.27   10.60
 -11   1  -3  237.68    7.50
  11   1   3  251.67    8.20
  13  -1   3    3.50    3.40
  13  -1   3    1.10    1.60
  13   1   3    6.30    3.60
  13   1   3    1.60    2.10
  20  -2  -3   72.39    9.30
 -20  -2   3   98.09   10.20
  20   2  -3  106.09   10.30
  20   2  -3   91.29    6.30
  20   2  -3  102.39    6.30
 -18  -2   3   12.30    5.00
  18  -2  -3    5.00    4.40
  18   2  -3   12.10    4.90
  18   2  -3    8.70    3.00
 -18   2   3    3.70    3.80
 -16  -2   3    7.50    4.30
  16  -2  -3    4.70    3.90
  16  -2  -3    8.00    2.00
  16   2  -3    4.10    3.70
 -16   2   3    4.90    3.70
 -14  -2   3   16.20    4.20
  14  -2  -3   14.80    4.40
  14  -2  -3   19.10    2.50
  14   2  -3   16.40    4.20
 -14   2   3    7.10    3.50
 -12  -2   3   94.89    6.40
  12  -2  -3   87.39    6.80
  12  -2  -3   86.69    4.10
 -12   2   3   82.79    6.30
  12   2  -3   95.39    6.60
 -10  -2   3   59.69    4.90
  10  -2  -3   70.59    3.70
  10  -2  -3   72.29    5.80
  10   2  -3   73.39    5.50
 -10   2   3   73.69    5.60
   8  -2  -3  163.68    5.50
   8  -2  -3  173.98    7.70
   8   2  -3  171.58    6.20
   8   2  -3  173.98    6.90
  -8   2   3  167.48    7.30
  -8   2   3  159.58    5.40
   6  -2  -3   21.50    3.50
  -6  -2   3   13.70    2.50
   6  -2  -3   24.40    2.80
  -6   2   3   23.70    2.80
   6   2  -3   16.30    2.70
  -6   2   3   16.90    3.10
   6   2  -3   11.60    2.20
   4  -2  -3   74.79    4.00
  -4  -2   3   80.29    3.80
   4  -2  -3   73.99    4.80
   4   2  -3   79.69    3.70
   4   2  -3   78.59    4.10
  -4   2   3   74.09    3.80
  -4   2   3   77.79    4.90
  -2  -2   3  403.36    7.50
   2  -2  -3  385.86   10.30
   2  -2  -3  396.46    9.20
  -2   2   3  388.36   10.40
  -2   2   3  390.16   10.10
   2   2  -3  401.96    9.20
  -2   2   3  400.76    9.20
   0  -2   3    8.20    1.70
   0  -2  -3    7.10    1.80
   0  -2  -3    6.50    2.10
   0  -2  -3    9.00    2.30
   0   2   3   10.30    2.30
   0   2  -3    9.60    1.90
   0   2   3    7.40    2.30
   0   2   3    6.60    1.80
   2  -2   3   85.29    3.10
  -2  -2  -3   88.99    5.00
  -2  -2  -3   87.69    4.60
   2  -2   3   92.89    4.20
   2  -2   3   88.99    3.40
  -2   2  -3   80.49    3.90
   2   2   3   80.69    4.40
   2   2   3   87.39    5.00
   2   2   3   89.59    5.20
   4  -2   3   69.89    3.50
   4  -2   3   69.79    3.70
  -4  -2  -3   66.49    4.80
  -4  -2  -3   65.49    4.30
   4   2   3   68.49    4.70
  -4   2  -3   69.89    3.20
  -4   2  -3   68.99    3.70
   4   2   3   71.49    5.00
   6  -2   3   62.69    3.60
  -6  -2  -3   56.59    4.40
  -6  -2  -3   56.49    4.90
   6  -2   3   58.59    4.00
   6   2   3   57.59    5.10
   6   2   3   63.69    4.20
   6   2   3   61.49    4.80
  -6   2  -3   59.19    3.50
  -6   2  -3   60.39    3.60
   8  -2   3    5.10    1.70
  -8  -2  -3    5.40    2.60
  -8  -2  -3    3.30    2.20
  -8   2  -3    1.10    1.80
  -8   2  -3    1.60    1.60
   8   2   3    5.10    2.60
   8   2   3    0.50    1.90
 -10  -2  -3  304.97    9.80
  10  -2   3  277.07   10.00
  10  -2   3  282.37    7.40
 -10  -2  -3  295.87   12.20
  10   2   3  285.87    9.10
 -10   2  -3  285.27    7.60
  10   2   3  304.57   11.50
  12  -2   3    7.60    3.30
 -12  -2  -3    6.50    2.90
  12  -2   3   10.80    2.20
  12   2   3    7.60    3.00
 -12   2  -3    7.90    2.20
  12   2   3    8.10    3.80
  14  -2   3   19.50    5.90
  14   2   3   14.20    4.60
  14   2   3   18.50    3.60
 -19  -3   3    9.70    5.10
  19  -3  -3    0.20    4.40
  19   3  -3    2.00    4.40
 -17  -3   3    6.20    6.70
  17  -3  -3    8.50    1.70
  17  -3  -3    8.60    4.20
 -17   3   3    9.10    4.20
  17   3  -3    8.80    4.60
  15  -3  -3   30.20    3.20
  15  -3  -3   34.50    5.80
 -15  -3   3   29.20    5.40
 -15   3   3   26.00    5.20
  15   3  -3   25.00    5.20
  13  -3  -3   10.50    4.00
  13  -3  -3    4.90    1.90
 -13  -3   3    2.50    2.80
 -13   3   3    1.60    2.70
  13   3  -3    4.60    3.20
 -11  -3   3    9.70    3.00
  11  -3  -3    9.90    3.70
  11  -3  -3    8.70    2.00
  11   3  -3    8.90    3.20
 -11   3   3    7.90    1.80
 -11   3   3    8.30    3.10
  -9  -3   3   15.50    3.00
   9  -3  -3   28.70    6.30
   9  -3  -3   23.80    2.70
  -9   3   3   22.60    2.60
   9   3  -3   22.80    3.60
  -9   3   3   15.70    3.30
  -7  -3   3  226.28    7.30
   7  -3  -3  225.18    8.90
   7  -3  -3  230.28    6.60
   7   3  -3  237.08    7.60
  -7   3   3  227.58    8.70
  -7   3   3  230.98    6.60
  -5  -3   3  301.37    7.40
   5  -3  -3  291.47    9.60
   5  -3  -3  298.47    7.80
  -5   3   3  313.87    9.80
  -5   3   3  287.27    7.70
   5   3  -3  304.27    7.40
   3  -3  -3  407.26   11.40
   3  -3  -3  409.76    9.60
  -3  -3   3  421.76    7.80
  -3   3   3  416.26   13.00
  -3   3   3  426.16   11.50
  -3   3   3  401.26    9.50
   3   3  -3  413.16    9.80
   1  -3  -3    3.40    2.00
   1  -3  -3    1.90    1.50
   1  -3  -3    0.20    1.70
  -1   3   3    1.10    1.90
  -1   3   3    2.70    1.50
   1   3  -3    1.00    1.30
  -1   3   3   -0.40    1.90
  -1  -3  -3  136.79    6.30
  -1  -3  -3  138.19    5.70
  -1   3  -3  126.99    4.90
   1   3   3  136.89    6.70
   1   3   3  109.09    6.50
   1   3   3  135.89    6.20
  -3  -3  -3   58.89    4.20
  -3  -3  -3   58.09    6.20
  -3   3  -3   62.79    3.50
   3   3   3   55.29    4.60
   3   3   3   61.19    4.10
   3   3   3   58.79    4.90
  -5  -3  -3  214.08    7.80
   5  -3   3  205.58    6.00
  -5  -3  -3  201.58    8.30
   5   3   3  200.38    8.30
  -5   3  -3  201.18    6.00
   5   3   3  208.48    7.40
   5   3   3  198.38    8.80
  -7  -3  -3    0.20    2.40
  -7  -3  -3    3.10    2.30
   7  -3   3    1.40    1.90
  -7   3  -3    0.30    1.50
   7   3   3    2.00    2.20
   7   3   3    0.30    1.60
  -7   3  -3    0.80    1.40
   7   3   3    0.60    2.20
  -9  -3  -3    2.40    2.70
   9  -3   3   -0.30    2.10
  -9  -3  -3   -0.10    2.10
   9   3   3    1.40    1.90
  -9   3  -3    1.40    1.50
   9   3   3    0.50    2.50
  11  -3   3   16.60    3.50
 -11  -3  -3   24.80    4.90
 -11  -3  -3   23.10    5.00
  11   3   3   29.90    5.20
  11   3   3   25.00    3.90
  13  -3   3    0.60    2.80
  13   3   3   -2.10    3.10
  13   3   3   -0.90    2.00
  18  -4  -3   51.49    7.70
 -18  -4   3   59.49    7.90
  18   4  -3   53.59    7.50
 -16  -4   3   27.80    6.10
  16  -4  -3   17.50    5.30
  16  -4  -3   17.30    2.00
  16   4  -3   13.70    4.80
 -16   4   3    9.00    4.00
  14  -4  -3  239.78   11.70
  14  -4  -3  244.48    6.40
 -14  -4   3  263.97   11.10
 -14   4   3  258.87   11.40
  14   4  -3  261.77   11.40
  12  -4  -3   56.49    6.50
  12  -4  -3   51.09    3.20
 -12  -4   3   54.89    6.00
 -12   4   3   44.90    5.70
  12   4  -3   63.49    6.60
 -12   4   3   54.69    3.30
  10  -4  -3    0.60    1.40
  10  -4  -3    0.30    2.50
 -10  -4   3   -0.30    1.90
 -10   4   3    0.20    2.30
  10   4  -3    1.70    2.30
 -10   4   3    0.60    1.40
   8  -4  -3  282.47   10.60
   8  -4  -3  277.47    7.50
  -8  -4   3  278.97    8.70
  -8   4   3  288.07    7.60
   8   4  -3  294.07    9.10
  -8   4   3  277.87   10.30
   6  -4  -3  779.92   18.00
  -6  -4   3  805.22   14.90
   6  -4  -3  816.42   15.00
  -6   4   3  808.12   14.80
   6   4  -3  814.02   14.90
  -6   4   3  799.02   18.20
   4  -4  -3  278.17    9.80
  -4  -4   3  276.57    6.60
   4  -4  -3  287.57    8.10
  -4   4   3  280.77    9.80
  -4   4   3  280.97    9.70
  -4   4   3  271.07    7.80
   4   4  -3  277.57    6.30
   2  -4  -3  267.87    9.50
   2  -4  -3  263.07    7.90
  -2   4   3  270.97    9.30
  -2   4   3  264.57    9.40
   2   4  -3  266.87    7.90
  -2   4   3  272.47    9.20
   0  -4  -3  332.17   10.50
   0  -4  -3  317.07   10.50
   0  -4  -3  337.97    9.40
   0   4   3  326.67   10.70
   0   4   3  313.07   10.10
   0   4  -3  327.37    8.60
   0   4   3  319.67    9.00
  -2  -4  -3  124.89    6.00
  -2  -4  -3  133.89    7.00
  -2   4  -3  126.39    5.00
   2   4   3  126.69    5.80
   2   4   3  124.39    6.60
   2   4   3  138.89    7.30
  -4  -4  -3   77.79    5.20
  -4  -4  -3   71.89    5.70
   4   4   3   77.59    5.60
   4   4   3   79.99    6.10
  -4   4  -3   82.39    4.00
   4   4   3   80.59    5.00
  -6  -4  -3  142.39    7.00
  -6  -4  -3  137.09    7.70
   6  -4   3  132.69    5.20
   6   4   3  143.99    8.20
   6   4   3  120.29    6.20
   6   4   3  127.49    7.30
  -6   4  -3  139.09    5.00
  -8  -4  -3   14.40    3.40
  -8  -4  -3   18.70    4.50
   8  -4   3   16.90    3.20
   8   4   3   16.20    3.90
   8   4   3   22.20    4.60
  -8   4  -3   14.20    2.40
   8   4   3   22.60    3.70
  -8   4  -3   14.00    2.20
 -10  -4  -3   25.80    4.50
 -10  -4  -3   13.90    4.50
  10  -4   3   18.40    3.60
 -10   4  -3    8.20    2.50
  10   4   3   13.30    4.20
  10   4   3   11.30    3.00
  10   4   3    9.00    3.50
 -10   4  -3   10.00    1.90
  12  -4   3   -0.40    2.40
  12   4   3    6.40    3.20
  12   4   3    5.90    3.80
  17  -5  -3   14.50    4.90
 -17  -5   3   43.90    6.60
  17   5  -3   28.10    7.40
 -15  -5   3   20.60    5.10
  15  -5  -3    7.30    7.00
  15  -5  -3   10.90    1.90
  15   5  -3   15.40    4.50
 -15   5   3    7.40    3.80
 -13  -5   3    4.50    3.30
  13  -5  -3    5.60    2.50
  13  -5  -3    0.50    3.10
 -13   5   3   -0.40    3.00
  13   5  -3    2.80    3.20
  11  -5  -3    6.20    3.70
  11  -5  -3    9.60    2.10
 -11  -5   3    2.50    2.80
 -11   5   3    2.70    1.50
 -11   5   3    3.60    3.00
  11   5  -3    3.00    2.70
   9  -5  -3  147.59    8.30
   9  -5  -3  138.99    5.40
  -9  -5   3  138.49    6.80
  -9   5   3  144.99    5.40
  -9   5   3  135.99    8.10
   9   5  -3  151.08    7.00
   7  -5  -3  125.79    5.40
  -7  -5   3  123.99    5.70
   7  -5  -3  122.19    7.40
   7   5  -3  134.29    5.80
  -7   5   3  135.29    7.50
  -7   5   3  133.79    7.50
  -7   5   3  124.49    5.20
  -5  -5   3  149.99    5.30
   5  -5  -3  147.09    6.00
   5  -5  -3  149.59    7.90
   5   5  -3  153.28    5.20
  -5   5   3  153.78    6.90
  -5   5   3  155.98    7.80
  -5   5   3  155.38    7.70
  -3  -5   3  143.79    4.40
   3  -5  -3  145.49    7.80
   3  -5  -3  154.18    6.30
  -3   5   3  149.39    6.00
  -3   5   3  158.48    9.00
  -3   5   3  154.48    7.80
   1  -5  -3  570.34   14.80
   1  -5  -3  548.85   13.10
   1  -5  -3  526.25   14.50
  -1   5   3  534.55   14.70
  -1   5   3  550.94   14.40
  -1   5   3  537.35   12.50
  -1  -5  -3   24.20    3.50
  -1  -5  -3   27.90    4.40
   1   5   3   26.50    4.10
   1   5   3   19.30    3.00
  -1   5  -3   25.70    3.10
   1   5   3   17.40    3.70
  -3  -5  -3   13.90    3.20
   3   5   3   10.90    3.30
   3   5   3    6.60    2.40
   3   5   3    8.00    3.00
  -3   5  -3    6.00    1.80
  -5  -5  -3    6.70    3.00
  -5  -5  -3    3.70    2.50
   5   5   3    2.90    2.50
   5   5   3   12.60    3.70
   5   5   3    7.60    2.60
  -5   5  -3    4.90    1.70
   7  -5   3  344.27    9.10
  -7  -5  -3  354.46   13.00
  -7  -5  -3  355.06   13.00
   7   5   3  343.67   12.40
   7   5   3  347.97   11.10
  -7   5  -3  347.87    8.20
   7   5   3  349.87   13.40
   9  -5   3   48.00    4.40
  -9  -5  -3   50.69    6.10
  -9  -5  -3   45.90    6.60
  -9   5  -3   49.30    5.10
   9   5   3   30.70    7.20
   9   5   3   40.90    5.80
   9   5   3   42.10    6.70
 -11  -5  -3   10.90    4.20
  11  -5   3    5.60    3.00
  11   5   3    9.50    4.40
  11   5   3   -0.50    1.70
  11   5   3    4.60    3.60
  13  -5   3   28.50    4.90
  13   5   3   29.50    6.20
  13   5   3   23.50    5.80
 -16  -6   3   17.90    5.00
  16  -6  -3   14.40    4.80
  16   6  -3   12.20    4.80
 -14  -6   3   -0.20    3.40
  14  -6  -3    3.50    1.90
  14  -6  -3    6.80    4.10
 -14   6   3    5.70    3.40
  14   6  -3    6.20    3.90
  12  -6  -3    6.80    2.00
 -12  -6   3    7.00    4.30
  12  -6  -3    5.10    3.90
 -12   6   3    7.80    2.00
  12   6  -3    9.70    3.50
 -12   6   3    7.10    3.50
  10  -6  -3    1.90    2.90
  10  -6  -3    7.70    2.30
 -10   6   3    1.40    2.60
  10   6  -3    6.60    3.00
 -10   6   3   10.50    2.20
   8  -6  -3   83.29    4.90
  -8  -6   3   99.39    5.80
   8  -6  -3  103.99    7.40
  -8   6   3  101.29    7.10
  -8   6   3   87.29    5.40
   8   6  -3   99.89    5.70
  -8   6   3   91.59    7.00
   6  -6  -3   10.40    2.50
   6  -6  -3   14.00    3.80
  -6  -6   3   12.20    2.50
  -6   6   3   18.90    2.80
  -6   6   3   17.30    4.00
   6   6  -3   13.20    2.60
   4  -6  -3   19.50    3.30
  -4  -6   3   18.00    2.50
   4  -6  -3   15.50    3.70
  -4   6   3   21.90    4.40
   4   6  -3   12.70    2.00
   4   6  -3   18.30    2.40
  -4   6   3   22.30    3.20
  -4   6   3   17.50    3.70
   2  -6  -3  132.19    6.40
   2  -6  -3  128.09    7.40
  -2   6   3  123.79    7.40
  -2   6   3  134.19    7.70
  -2   6   3  132.09    6.10
   0  -6  -3   15.50    3.30
   0  -6  -3    7.00    3.10
   0  -6  -3   12.00    3.20
   0   6   3   13.80    3.40
   0   6   3   16.60    3.00
   0   6   3   10.30    3.50
  -2  -6  -3   20.50    4.30
  -2  -6  -3   15.50    3.40
   2   6   3   22.40    4.50
   2   6   3   18.30    3.80
   2   6   3   26.30    4.10
  -2   6  -3   18.30    2.80
  -4  -6  -3   11.70    3.90
   4   6   3   12.80    3.50
   4   6   3    9.50    2.50
   4   6   3    9.30    3.40
  -4   6  -3    7.70    2.00
  -6  -6  -3  222.48    9.60
  -6  -6  -3  195.88   10.20
   6   6   3  191.88    9.70
   6   6   3  216.68   10.80
   6   6   3  201.88    8.70
  -6   6  -3  200.08    6.40
   8  -6   3    5.00    2.40
  -8  -6  -3    3.30    3.50
  -8  -6  -3    2.90    2.90
   8   6   3    0.60    2.20
   8   6   3    7.30    3.30
   8   6   3    2.90    3.20
  -8   6  -3    5.10    1.80
 -10  -6  -3   12.30    7.60
  10  -6   3    1.50    2.50
  10   6   3    9.40    6.70
 -10   6  -3    3.00    1.40
  10   6   3   10.60    4.20
  12  -6   3   -0.90    2.60
  12   6   3    0.30    3.70
  12   6   3   -0.20    3.40
  15  -7  -3   61.39    8.10
 -15  -7   3   87.19    9.00
  15   7  -3   93.79    9.20
 -13  -7   3   -0.40    3.20
  13  -7  -3   -2.10    1.60
  13  -7  -3   -2.00    3.20
 -13   7   3    0.80    1.50
  13   7  -3   -0.70    2.90
 -13   7   3    0.30    3.00
  11  -7  -3  220.88   11.60
  11  -7  -3  233.18    7.50
 -11   7   3  224.68    7.10
  11   7  -3  225.98    9.90
 -11   7   3  229.38   11.00
   9  -7  -3   62.59    4.50
  -9  -7   3   56.29    5.30
   9  -7  -3   53.89    7.00
  -9   7   3   47.60    6.20
  -9   7   3   50.49    6.20
  -9   7   3   59.09    4.20
   9   7  -3   58.89    5.30
  -7  -7   3   35.10    4.40
   7  -7  -3   43.00    4.50
   7  -7  -3   21.70    4.80
  -7   7   3   31.20    5.30
   7   7  -3   26.60    3.70
  -7   7   3   28.50    3.60
  -7   7   3   30.50    4.90
   5  -7  -3    0.40    2.10
   5  -7  -3   -0.70    2.30
  -5  -7   3   -0.50    1.80
   5   7  -3    0.60    1.50
   5   7  -3    0.60    1.70
  -5   7   3    3.90    3.00
  -5   7   3   -0.20    2.50
  -5   7   3    0.60    1.80
  -3  -7   3   26.60    3.10
   3  -7  -3   29.50    4.00
   3  -7  -3   23.80    4.60
  -3   7   3   30.90    3.90
  -3   7   3   29.20    4.90
  -3   7   3   27.90    4.60
   1  -7  -3   25.40    4.70
   1  -7  -3   31.20    4.40
   1  -7  -3   32.30    5.20
  -1   7   3   28.20    4.00
  -1   7   3   38.20    5.70
  -1   7   3   29.00    5.20
  -1  -7  -3   13.60    4.00
  -1  -7  -3   11.30    3.60
   1   7   3   19.10    4.10
   1   7   3   12.20    3.50
  -3  -7  -3  177.58    8.60
  -3  -7  -3  167.98    9.50
   3   7   3  168.78    8.00
   3   7   3  165.78    8.90
   3   7   3  166.48   14.70
  -3   7  -3  154.28    6.40
  -5  -7  -3    3.00    2.90
  -5  -7  -3    1.80    3.20
   5   7   3    3.10    3.30
   5   7   3   -0.20    2.50
   5   7   3    0.00    2.00
  -5   7  -3    4.20    2.00
  -7  -7  -3  121.09    7.90
  -7  -7  -3  104.39    8.50
   7   7   3  112.69    8.90
  -7   7  -3  110.29    4.90
   7   7   3  112.49    8.10
   9  -7   3   14.70    3.20
  -9  -7  -3   27.50    6.20
   9   7   3   21.80    5.60
   9   7   3   29.00    6.10
  -9   7  -3   18.60    2.70
  11  -7   3   -2.50    2.30
  11   7   3    3.90    3.60
  11   7   3    3.20    4.00
 -14  -8   3   -0.90    3.30
  14  -8  -3    7.70    4.80
 -14   8   3    3.50    1.90
  14   8  -3    4.30    3.80
  12  -8  -3   32.10    6.30
 -12   8   3   41.80    6.50
 -12   8   3   31.30    6.00
  12   8  -3   45.50    6.30
  10  -8  -3    5.50    3.90
  10  -8  -3    6.90    2.60
 -10  -8   3    4.30    3.20
  10   8  -3    9.40    3.70
 -10   8   3    9.40    3.70
 -10   8   3    4.90    2.30
 -10   8   3    2.80    3.50
   8  -8  -3   -2.40    1.80
   8  -8  -3   -0.80    3.10
  -8  -8   3    2.60    2.80
   8   8  -3   -2.00    2.30
  -8   8   3    3.70    3.20
  -8   8   3    0.00    1.70
  -8   8   3   -1.70    2.90
   6  -8  -3    4.40    2.60
   6  -8  -3    4.00    3.10
  -6  -8   3    3.30    2.40
  -6   8   3    2.80    3.20
   6   8  -3    3.20    2.40
  -6   8   3    8.60    2.80
  -6   8   3    0.50    3.00
   6   8  -3    2.90    2.30
   4  -8  -3   47.40    5.50
   4  -8  -3   55.79    7.00
  -4  -8   3   46.20    4.20
  -4   8   3   53.19    6.60
  -4   8   3   55.89    5.70
   4   8  -3   38.00    3.40
   4   8  -3   40.80    3.40
  -4   8   3   49.99    6.50
  -2  -8   3  106.29    5.00
   2  -8  -3  102.19    7.60
  -2   8   3  122.79    8.40
  -2   8   3  108.09    6.30
   0  -8  -3    2.90    2.50
   0  -8  -3    4.70    3.20
   0  -8  -3    0.50    2.80
   0   8   3    0.60    3.00
   0   8   3    2.50    2.10
   0   8   3    5.00    3.10
  -2  -8  -3  119.89   10.70
  -2  -8  -3  122.69    7.60
   2   8   3  111.79    8.30
   2   8   3  115.99    7.90
  -4  -8  -3    8.70    4.10
  -4  -8  -3   14.90    3.90
  -4   8  -3   20.50    3.40
   4   8   3    9.40    3.60
   4   8   3   12.90    4.30
  -6  -8  -3   -2.90    3.40
   6   8   3   -2.30    3.00
  -6   8  -3    4.00    2.10
   6   8   3    1.90    3.00
  -8  -8  -3    2.40    3.90
  -8   8  -3    6.10    2.00
   8   8   3    6.40    4.00
   8   8   3    9.70    4.60
  10  -8   3    8.60    3.00
 -10  -8  -3    8.50    5.10
  10   8   3   13.00    4.90
  10   8   3   13.00    5.10
  13  -9  -3    0.80    3.80
 -13  -9   3    6.60    4.00
  13   9  -3    3.20    3.90
 -13   9   3    1.10    4.00
 -13   9   3    1.60    2.70
 -11  -9   3    2.30    3.50
  11  -9  -3    1.50    3.80
 -11   9   3    3.70    2.30
  11   9  -3    0.60    3.30
 -11   9   3    8.10    4.30
  -9  -9   3   -0.10    2.90
   9  -9  -3    4.10    4.10
  -9   9   3    0.10    3.30
  -9   9   3    2.60    3.50
   9   9  -3    4.30    3.20
  -9   9   3    1.80    2.30
   7  -9  -3   78.79    9.00
   7  -9  -3   85.69    6.20
  -7  -9   3   86.29    6.30
  -7   9   3   85.89    7.60
  -7   9   3   79.69    7.60
  -7   9   3   83.79    5.70
   7   9  -3   89.79    6.00
  -5  -9   3  154.38    7.60
   5  -9  -3  143.29    9.50
   5   9  -3  146.89    6.50
  -5   9   3  142.89    7.10
  -5   9   3  155.38    9.30
  -5   9   3  132.49    9.00
   5   9  -3  150.28    6.60
   3  -9  -3   76.99    6.20
  -3  -9   3   77.59    5.10
   3  -9  -3   81.19    7.40
  -3   9   3   79.09    7.40
  -3   9   3   72.49    6.90
  -3   9   3   80.19    5.80
   1  -9  -3    1.70    2.90
   1  -9  -3    2.20    2.70
  -1   9   3    6.10    2.90
  -1   9   3    2.70    2.60
  -1   9   3    3.60    3.50
  -1  -9  -3   -0.90    2.80
  -1  -9  -3    1.10    2.80
   1   9   3    2.80    2.70
   1   9   3    1.00    2.10
   1   9   3    1.10    3.30
  -3  -9  -3   28.60    5.90
   3   9   3   26.50    5.30
  -3   9  -3   31.90    4.10
   3   9   3   25.40    5.80
  -5  -9  -3   34.70    6.60
  -5   9  -3   25.40    3.60
   5   9   3   26.10    6.20
   5   9   3   33.70    6.20
  -7  -9  -3   25.90    6.50
   7   9   3   22.40    6.00
  -7   9  -3   21.90    3.10
   7   9   3   20.30    5.50
  12 -10  -3    1.60    4.40
  12  10  -3    2.50    4.10
 -12  10   3   -0.40    3.50
 -12  10   3    1.40    2.20
  10 -10  -3    7.60    4.30
 -10 -10   3    7.90    3.90
  10  10  -3    9.30    4.00
 -10  10   3    5.60    2.70
 -10  10   3    2.20    3.60
  -8 -10   3    5.30    3.10
   8 -10  -3    2.90    3.70
  -8  10   3    5.40    2.70
  -8  10   3    2.20    3.20
   8  10  -3    8.50    3.50
   6 -10  -3  292.77   13.80
  -6 -10   3  305.57   14.70
  -6  10   3  308.97   12.40
  -6  10   3  312.57   13.50
   6  10  -3  290.47   14.60
  -4 -10   3   84.99    5.90
   4 -10  -3   84.99    7.90
  -4  10   3   86.09    8.10
   4  10  -3   85.39    5.00
  -4  10   3   94.69    6.40
  -4  10   3   80.39    7.50
   2 -10  -3   -3.50    2.60
  -2 -10   3   -0.10    2.10
  -2  10   3    3.80    3.00
  -2  10   3    4.10    2.70
   0 -10  -3   32.70    6.30
   0  10   3   27.60    7.30
   0  10   3   25.70    5.20
  -2 -10  -3   55.39    8.10
   2  10   3   54.69    7.60
   2  10   3   45.50    9.40
  -4 -10  -3   -0.40    3.70
  -4  10  -3    1.50    2.50
   4  10   3    1.80    3.00
   4  10   3   -0.90    5.90
  -6 -10  -3    1.30    3.90
  -6  10  -3    3.60    2.50
   6  10   3    0.70    3.30
   6  10   3    1.60    3.90
  -9  11   3   -1.80    4.00
   7 -11  -3    1.70    3.50
  -7 -11   3   -3.30    4.90
  -7  11   3   -0.70    2.40
   7  11  -3    2.10    3.70
  -7  11   3    6.20    3.70
  -5 -11   3    4.00    3.00
   5 -11  -3    1.00    3.30
  -5  11   3    1.20    3.10
  -5  11   3    2.80    2.80
   5  11  -3    4.70    2.80
   3 -11  -3    2.50    3.10
  -3 -11   3    4.50    2.90
  -3  11   3    6.10    3.80
  -1  11   3    1.90    3.30
  -1 -11  -3   27.90    8.20
   1  11   3   23.00    5.40
  -3 -11  -3    9.90    5.10
   3  11   3    9.00    4.40
 -20   0   4   -1.30    4.40
  20   0  -4    2.30    4.90
  20   0  -4    0.80    2.20
 -18   0   4   -1.00    3.80
  18   0  -4    0.10    1.90
  18   0  -4    3.20    4.40
  16   0  -4  237.28    8.20
  16   0  -4  254.07   12.30
 -16   0   4  263.87   12.00
  14   0  -4    7.70    4.00
  14   0  -4    7.50    2.40
 -14   0   4    2.80    3.10
 -12   0   4    3.80    2.80
  12   0  -4    2.30    2.90
  12   0  -4    2.60    1.70
  10   0  -4  440.96   10.80
 -10   0   4  414.56   12.40
  10   0  -4  395.06   12.50
  -8   0   4 1388.06   24.90
   8   0  -4 1363.56   25.00
   8   0  -4 1419.36   23.30
   6   0  -4 1727.63   28.20
   6   0  -4 1724.03   27.10
  -6   0   4 1714.83   29.70
  -4   0   4   73.29    4.70
   4   0  -4   67.39    4.30
   2   0  -4   54.39    4.00
  -2   0   4   55.89    4.00
   2   0  -4   50.69    3.60
  -2   0   4   59.79    4.20
  -2   0   4   61.89    4.70
   0   0   4   29.00    3.40
   0   0  -4   33.80    3.50
   0   0   4   36.90    3.40
   0   0   4   36.20    3.80
  -2   0  -4  640.44   13.50
   2   0   4  631.04   13.30
  -2   0  -4  623.24   13.20
   2   0   4  650.63   14.20
   2   0   4  617.74   13.60
   4   0   4   77.69    4.70
  -4   0  -4   78.09    4.80
   4   0   4   74.69    4.70
   4   0   4   84.19    5.40
  -4   0  -4   81.89    4.80
  -6   0  -4   10.80    2.80
  -6   0  -4    8.30    2.60
   6   0   4    4.90    2.70
   6   0   4    2.30    2.80
   6   0   4    7.70    2.30
   8   0   4    2.30    2.40
   8   0   4    3.20    2.10
  -8   0  -4   -1.00    1.50
  -8   0  -4   -0.40    2.10
  10   0   4    5.60    3.10
 -10   0  -4    2.30    2.30
  10   0   4   -0.60    1.80
 -12   0  -4    2.70    2.40
  12   0   4    2.90    2.30
  12   0   4    2.30    3.30
 -19  -1   4   53.19    7.70
  19  -1  -4   61.89    4.60
  19  -1  -4   45.30    7.50
  19   1  -4   57.89    5.00
 -19   1   4   41.30    6.90
  19   1  -4   54.19    7.90
  17  -1  -4   50.29    4.30
  17  -1  -4   40.70    6.60
 -17  -1   4   46.60    7.00
  17   1  -4   54.39    7.60
 -17   1   4   50.59    6.70
  17   1  -4   37.90    4.30
 -15  -1   4   72.19    6.90
  15  -1  -4   68.39    7.50
  15  -1  -4   71.59    4.60
  15   1  -4   69.59    5.00
 -15   1   4   69.79    7.80
  15   1  -4   61.09    7.10
 -13  -1   4    9.70    3.40
  13  -1  -4    8.00    2.30
  13  -1  -4   11.40    3.90
 -13   1   4    5.90    3.30
  13   1  -4    4.80    3.40
  13   1  -4    5.90    2.30
 -11  -1   4   65.89    5.50
  11  -1  -4   51.19    5.90
  11  -1  -4   55.39    4.10
  11   1  -4   64.79    5.70
 -11   1   4   63.79    5.90
  11   1  -4   57.19    4.40
   9  -1  -4  190.08    8.40
   9  -1  -4  179.78    6.60
  -9  -1   4  177.68    7.60
   9   1  -4  190.48    7.00
   9   1  -4  180.08    7.80
  -9   1   4  176.78    8.00
  -9   1   4  182.08    7.00
   7  -1  -4  820.42   15.60
   7  -1  -4  761.22   17.10
  -7  -1   4  778.72   16.10
  -7   1   4  771.42   18.30
   7   1  -4  793.62   16.20
   7   1  -4  776.62   15.60
   5  -1  -4  296.77    9.40
  -5  -1   4  286.17    8.30
  -5  -1   4  286.97    8.50
   5  -1  -4  281.17    8.30
  -5   1   4  288.17    9.90
   5   1  -4  285.47    8.30
   5   1  -4  294.17    8.50
  -3  -1   4   42.40    3.50
  -3  -1   4   42.60    5.10
   3  -1  -4   30.30    3.60
   3  -1  -4   36.40    3.80
   3   1  -4   44.90    4.30
   3   1  -4   41.40    3.20
  -3   1   4   39.40    3.40
  -3   1   4   33.60    3.90
   1  -1  -4   -1.30    1.60
  -1  -1   4   -1.00    1.50
   1  -1  -4    0.90    1.50
  -1  -1   4    0.30    1.60
  -1  -1   4   -0.80    1.40
   1   1  -4    2.00    1.60
  -1   1   4   -0.20    1.20
  -1   1   4    1.90    1.90
  -1   1   4   -0.40    1.70
   1  -1   4  251.17    7.40
  -1  -1  -4  272.87    8.30
   1  -1   4  262.27    8.20
  -1  -1  -4  250.37    8.20
   1  -1   4  251.17    7.00
  -1   1  -4  252.47    7.80
   1   1   4  256.17    8.30
   1   1   4  266.07    8.30
   1   1   4  249.48    8.70
  -3  -1  -4    3.40    2.00
   3  -1   4   10.00    2.40
  -3  -1  -4    6.30    2.20
   3  -1   4    6.80    2.00
   3  -1   4    7.90    2.20
  -3   1  -4    6.20    2.10
  -3   1  -4    2.90    1.70
   3   1   4    6.80    2.40
   3   1   4    5.60    1.90
   3   1   4    8.30    2.70
  -5  -1  -4   10.00    2.90
  -5  -1  -4   10.40    2.70
   5  -1   4    9.70    2.40
   5  -1   4    9.00    2.40
   5  -1   4   10.10    2.90
   5   1   4   11.40    2.70
   5   1   4    6.40    2.90
  -5   1  -4    9.80    2.50
   5   1   4    7.00    2.50
  -5   1  -4    8.30    2.40
   7  -1   4   44.00    3.90
   7  -1   4   50.39    4.60
  -7  -1  -4   49.10    4.90
  -7  -1  -4   45.30    5.00
   7   1   4   41.10    5.30
  -7   1  -4   44.80    4.10
  -7   1  -4   37.40    4.20
   7   1   4   40.80    4.40
   7   1   4   50.19    5.30
   9  -1   4   38.30    4.20
   9  -1   4   35.40    4.70
  -9  -1  -4   38.00    4.60
  -9   1  -4   37.90    4.20
   9   1   4   35.10    4.30
   9   1   4   35.30    5.20
 -11  -1  -4   26.40    4.20
  11  -1   4   22.70    3.40
  11  -1   4   19.90    4.00
  11   1   4   30.70    4.30
 -11   1  -4   20.10    3.30
  11   1   4   23.90    4.80
  18  -2  -4   58.99    4.30
  18  -2  -4   63.29    8.50
 -18  -2   4   61.09   11.60
  18   2  -4   61.79    5.40
 -18   2   4   54.09    7.30
  18   2  -4   52.59    7.60
  16  -2  -4    4.20    4.00
  16  -2  -4    7.00    2.30
 -16  -2   4    6.10    4.10
  16   2  -4    4.80    2.80
  16   2  -4    7.10    4.10
 -16   2   4    3.50    3.40
 -14  -2   4   17.30    4.30
  14  -2  -4   15.20    4.80
  14  -2  -4   19.90    3.10
 -14   2   4   15.20    4.40
  14   2  -4   13.80    2.90
  14   2  -4   13.80    4.10
 -12  -2   4    3.60    3.00
  12  -2  -4    0.90    1.70
 -12   2   4    0.30    2.80
  12   2  -4    7.90    3.30
  12   2  -4    0.80    2.00
  10  -2  -4  166.18    6.20
 -10  -2   4  123.89    6.60
  10  -2  -4  152.38    8.10
  10   2  -4  141.59    6.40
 -10   2   4  154.18    8.00
  10   2  -4  170.68    7.70
 -10   2   4  141.69    7.00
  -8  -2   4  227.68    8.00
   8  -2  -4  228.98    7.40
   8  -2  -4  222.58    9.30
  -8   2   4  227.58    9.10
   8   2  -4  223.98    7.80
   8   2  -4  216.78    8.30
  -8   2   4  212.98    8.50
   6  -2  -4  399.46   11.90
   6  -2  -4  407.66   10.30
  -6  -2   4  409.06   10.20
   6   2  -4  397.06   10.50
  -6   2   4  417.06   12.10
   6   2  -4  399.96   10.00
  -6   2   4  426.56   10.60
   4  -2  -4  566.04   13.90
  -4  -2   4  549.45   11.20
   4  -2  -4  562.54   12.50
  -4   2   4  553.24   12.50
   4   2  -4  565.64   12.60
   4   2  -4  557.54   10.90
  -4   2   4  545.75   13.70
  -4   2   4  551.64   13.90
   2  -2  -4    8.30    2.40
  -2  -2   4    8.10    2.00
  -2  -2   4    9.90    2.40
  -2  -2   4    7.40    1.80
   2  -2  -4    9.40    2.20
  -2   2   4   10.00    2.70
  -2   2   4    5.40    1.70
  -2   2   4    5.40    2.30
   2   2  -4   12.10    2.40
   0  -2   4   50.59    2.90
   0  -2   4   48.90    3.80
   0  -2   4   50.99    3.10
   0  -2  -4   57.59    4.40
   0  -2  -4   46.30    4.00
   0   2   4   46.50    3.80
   0   2   4   53.19    4.50
   0   2  -4   40.60    3.60
   2  -2   4  148.39    4.80
  -2  -2  -4  155.28    7.00
  -2  -2  -4  157.38    6.70
   2  -2   4  150.98    6.10
  -2   2  -4  155.98    6.10
   2   2   4  159.38    7.10
   2   2   4  161.28    6.70
   4  -2   4   64.49    4.30
   4  -2   4   64.09    3.90
  -4  -2  -4   70.19    5.00
  -4  -2  -4   74.79    5.40
   4   2   4   64.59    4.70
  -4   2  -4   66.19    4.30
  -4   2  -4   60.09    3.50
   4   2   4   70.29    5.20
  -6  -2  -4  121.09    7.10
   6  -2   4  119.49    5.70
  -6  -2  -4  127.69    6.60
   6  -2   4  126.49    5.70
   6   2   4  113.49    6.10
  -6   2  -4  114.79    5.20
   6   2   4  116.99   10.30
  -6   2  -4  121.59    5.60
   8  -2   4   48.80    4.00
  -8  -2  -4   43.40    5.00
  -8  -2  -4   57.49    6.20
   8  -2   4   45.20    4.60
  -8   2  -4   48.50    4.00
   8   2   4   41.90    5.30
   8   2   4   52.19    5.50
  -8   2  -4   52.59    4.40
 -10  -2  -4   19.10    3.90
  10  -2   4   22.00    3.20
  10  -2   4   20.10    3.90
  10   2   4   13.40    4.40
 -10   2  -4   17.20    3.10
  10   2   4   15.80    3.30
  10   2   4   17.50    4.50
 -12  -2  -4    0.80    2.70
  12  -2   4   -1.00    1.60
  12  -2   4    4.40    3.10
 -12   2  -4    1.10    2.10
  12   2   4    2.70    3.60
  12   2   4    1.10    3.40
 -19  -3   4   46.40    7.40
  19  -3  -4   47.30    3.60
  19  -3  -4   43.50    7.60
 -19   3   4   40.30    7.70
  19   3  -4   41.10    5.10
  19   3  -4   37.90    7.30
  17  -3  -4    6.00    4.20
  17  -3  -4    5.40    2.10
 -17  -3   4    6.90    4.40
  17   3  -4   12.80    3.80
  17   3  -4   11.40    4.80
 -17   3   4   14.10    4.80
 -15  -3   4   -3.70    2.80
  15  -3  -4    0.70    1.90
  15  -3  -4    3.10    3.40
 -15   3   4   -0.90    3.10
  15   3  -4   -1.20    3.40
 -13  -3   4    8.40    3.60
  13  -3  -4    7.40    2.20
  13  -3  -4    6.40    3.80
  13   3  -4    5.30    3.20
 -13   3   4    4.30    3.40
  13   3  -4    8.60    2.70
  11  -3  -4    1.00    1.70
 -11  -3   4   -1.20    2.00
  11   3  -4   -0.40    2.40
  11   3  -4   -2.80    1.60
 -11   3   4   -0.20    1.60
 -11   3   4    4.90    3.10
  -9  -3   4    0.40    2.00
   9  -3  -4    2.90    2.90
   9  -3  -4   -0.90    1.60
  -9   3   4   -2.30    1.40
   9   3  -4    3.60    4.10
   9   3  -4    0.10    1.70
  -9   3   4   -3.20    2.30
   7  -3  -4  400.06   10.10
  -7  -3   4  384.56   10.00
   7  -3  -4  373.86   12.30
   7   3  -4  385.76    9.90
   7   3  -4  371.86   10.50
  -7   3   4  378.86   12.20
  -7   3   4  378.86    9.90
   5  -3  -4   30.60    4.30
   5  -3  -4   33.00    4.00
  -5  -3   4   28.70    3.10
   5   3  -4   33.60    3.00
  -5   3   4   25.70    3.10
  -5   3   4   30.40    4.40
  -5   3   4   29.80    4.50
   5   3  -4   31.00    3.60
  -3  -3   4    1.20    1.50
   3  -3  -4    0.20    1.80
   3  -3  -4    0.00    1.60
  -3   3   4    0.90    2.20
   3   3  -4    1.00    1.60
  -3   3   4    0.40    1.40
  -3   3   4    0.40    1.90
   1  -3  -4   -0.30    1.60
   1  -3  -4    0.60    1.80
  -1   3   4    0.00    1.90
  -1   3   4    0.80    2.10
  -1   3   4   -0.20    1.30
   1   3  -4    2.60    1.60
  -1  -3  -4   -2.60    1.50
  -1  -3  -4   -1.20    1.90
   1   3   4   -1.00    1.80
   1   3   4    0.30    1.50
  -1   3  -4   -0.70    1.40
   1   3   4   -3.60    3.80
  -3  -3  -4   47.90    4.80
  -3  -3  -4   38.60    5.00
   3   3   4   46.50    4.30
   3   3   4   36.50    4.80
  -3   3  -4   42.90    3.70
  -5  -3  -4  180.68    8.00
  -5  -3  -4  178.48    8.70
  -5   3  -4  186.18    6.70
   5   3   4  187.38   11.10
   5   3   4  180.28    7.70
   5   3   4  181.38    8.50
   7  -3   4   93.69    5.20
  -7  -3  -4   99.29    7.20
   7   3   4   96.19    6.10
   7   3   4   95.49    7.50
  -7   3  -4   90.29    4.80
   7   3   4   83.79    6.50
   9  -3   4   -0.90    2.10
  -9  -3  -4   -2.10    2.40
  -9   3  -4    0.00    2.30
   9   3   4    1.40    2.80
   9   3   4    5.00    3.00
   9   3   4    0.50    3.20
  -9   3  -4   -0.20    1.80
  11  -3   4   21.10    4.10
 -11  -3  -4   23.80    4.60
  11   3   4   16.20    3.70
  11   3   4   18.90    5.40
 -11   3  -4   17.90    2.90
  11   3   4   28.50    5.50
  18  -4  -4   26.70    6.20
  18  -4  -4   42.60    3.50
 -18  -4   4   32.80    6.40
 -18   4   4   26.90    6.40
  18   4  -4   34.10    4.90
  18   4  -4   35.80    6.90
 -16  -4   4    7.40    4.20
  16  -4  -4   11.30    4.50
  16  -4  -4   16.50    2.80
  16   4  -4   11.60    4.70
 -16   4   4   14.70    4.80
  14  -4  -4   39.80    3.80
 -14  -4   4   39.70    5.70
  14  -4  -4   36.60    6.00
 -14   4   4   31.40    5.70
  14   4  -4   43.00    6.10
  12  -4  -4    6.70    3.80
 -12  -4   4    4.10    3.00
  12  -4  -4   10.20    2.40
  12   4  -4    5.60    3.20
 -12   4   4    8.10    2.40
 -12   4   4    6.40    3.50
  10  -4  -4  144.19    6.10
  10  -4  -4  144.49    8.70
 -10  -4   4  148.99    7.30
 -10   4   4  146.69    8.40
  10   4  -4  145.09    8.10
 -10   4   4  143.49    6.00
  -8  -4   4   -2.40    1.80
   8  -4  -4   -1.60    2.50
   8  -4  -4   -0.50    1.50
   8   4  -4   -1.70    1.60
   8   4  -4    0.00    2.00
  -8   4   4   -0.30    1.50
  -8   4   4   -0.20    2.50
   6  -4  -4   90.69    6.60
  -6  -4   4   79.29    4.40
   6  -4  -4   89.59    5.10
   6   4  -4   83.39    5.30
  -6   4   4   88.89    6.50
  -6   4   4   87.29    4.80
   6   4  -4   95.89    4.50
  -6   4   4   75.19    6.20
   4  -4  -4  332.47   11.70
  -4  -4   4  376.06   10.40
   4  -4  -4  345.57   10.10
  -4   4   4  340.57    9.80
  -4   4   4  365.26   11.90
   4   4  -4  354.96   10.20
  -4   4   4  345.37   11.80
   2  -4  -4    9.30    2.80
   2  -4  -4    9.60    2.50
   2   4  -4   12.50    2.80
  -2   4   4   10.40    3.40
  -2   4   4    7.30    2.80
  -2   4   4    9.70    2.50
   0  -4  -4   -0.40    2.20
   0  -4  -4    2.50    2.20
   0  -4  -4   -1.80    1.60
   0   4  -4    0.80    1.60
   0   4   4    5.80    3.00
   0   4   4    1.40    2.10
   0   4   4    2.40    1.90
  -2  -4  -4   23.80    3.80
  -2  -4  -4   23.10    4.20
  -2   4  -4   25.00    3.20
   2   4   4   26.00    3.90
   2   4   4   27.00    4.20
   2   4   4   24.00    4.40
  -4  -4  -4  454.75   14.30
  -4  -4  -4  453.75   13.20
   4   4   4  446.26   12.50
   4   4   4  466.45   14.00
   4   4   4  468.85   15.10
  -4   4  -4  450.25   10.90
  -6  -4  -4  225.08   10.40
   6  -4   4  213.28    6.70
  -6  -4  -4  228.78    9.30
  -6   4  -4  219.78    7.20
   6   4   4  241.28   11.30
   6   4   4  223.48   12.90
   6   4   4  217.68    8.80
  -8  -4  -4   23.50    4.90
   8  -4   4   23.20    3.50
  -8  -4  -4   18.90    4.00
  -8   4  -4   21.90    3.00
   8   4   4   23.40    5.40
   8   4   4   32.70    5.20
   8   4   4   32.50    5.00
  10  -4   4   18.70    3.80
 -10  -4  -4   14.50    3.90
 -10   4  -4   16.80    2.70
  10   4   4   18.90    5.50
  10   4   4   19.60    4.70
 -17  -5   4   19.90    5.50
  17  -5  -4   12.00    2.40
  17  -5  -4   16.20    5.60
 -17   5   4    6.50    4.30
  17   5  -4   12.70    5.00
 -15  -5   4   77.89    7.30
  15  -5  -4   59.69    7.80
  15  -5  -4   85.89    4.70
 -15   5   4   87.69    8.30
  15   5  -4   87.09    7.90
 -13  -5   4    5.40    3.30
  13  -5  -4   11.50    2.60
  13  -5  -4    4.90    3.90
 -13   5   4    5.80    2.30
 -13   5   4    7.30    3.90
  13   5  -4    5.00    3.50
 -11  -5   4  146.29    7.70
  11  -5  -4  146.59    6.30
  11  -5  -4  150.48    9.30
 -11   5   4  155.48    9.10
  11   5  -4  153.88    8.00
 -11   5   4  152.08    6.30
   9  -5  -4   -1.70    2.50
   9  -5  -4   -0.30    1.80
  -9  -5   4    3.80    2.60
  -9   5   4   -0.70    2.50
  -9   5   4    2.80    2.20
   9   5  -4    2.90    2.40
   7  -5  -4   32.20    5.20
   7  -5  -4   36.90    4.20
  -7  -5   4   40.50    4.10
  -7   5   4   36.30    5.40
  -7   5   4   40.90    4.10
  -7   5   4   40.60    5.60
   7   5  -4   40.40    4.00
   5  -5  -4   27.40    5.00
   5  -5  -4   35.00    4.20
  -5  -5   4   34.10    3.70
  -5   5   4   31.90    5.10
  -5   5   4   27.50    4.60
   5   5  -4   23.30    3.30
  -5   5   4   31.50    3.90
   3  -5  -4   65.99    5.80
   3  -5  -4   76.79    5.30
  -3   5   4   81.19    6.50
  -3   5   4   80.89    5.20
   3   5  -4   76.99    5.10
  -3   5   4   84.59    6.40
   1  -5  -4  125.69    6.60
   1  -5  -4  127.69    7.50
  -1   5   4  131.79    7.50
   1   5  -4  122.29    6.10
  -1   5   4  133.29    6.50
  -1   5   4  123.89    7.70
  -1  -5  -4   55.69    5.90
  -1  -5  -4   51.79    6.20
  -1   5  -4   47.30    4.00
   1   5   4   46.70    5.60
   1   5   4   49.90    4.50
   1   5   4   46.10    5.90
  -3  -5  -4   15.90    3.70
  -3  -5  -4    8.20    3.40
   3   5   4    6.40    3.10
   3   5   4    8.90    2.60
  -3   5  -4    7.40    2.20
   3   5   4    7.00    3.20
  -5  -5  -4  175.68    8.60
  -5  -5  -4  171.28    9.50
   5   5   4  163.38    9.70
   5   5   4  163.38    8.90
   5   5   4  158.38    9.30
  -5   5  -4  162.48    6.40
  -7  -5  -4   17.70    3.90
   7  -5   4   11.90    2.50
   7   5   4   11.10    4.20
  -7   5  -4   11.70    2.70
   7   5   4   13.30    3.30
   7   5   4   16.50    4.20
   9  -5   4   16.00    3.50
  -9  -5  -4   10.10    3.40
   9   5   4   16.30    4.60
   9   5   4   13.70    4.90
  -9   5  -4   22.10    3.10
 -11  -5  -4   -0.70    2.60
  11  -5   4   -0.10    2.70
 -11   5  -4    1.20    1.70
  11   5   4   -1.90    3.20
  11   5   4    0.80    3.70
 -16  -6   4   -1.40    3.70
  16  -6  -4    2.10    2.00
  16  -6  -4   -4.30    3.60
  16   6  -4    3.30    4.20
 -16   6   4   -0.50    3.40
  14  -6  -4   30.80    6.30
 -14  -6   4   25.70    5.30
  14  -6  -4   37.90    4.10
 -14   6   4   17.00    5.00
  14   6  -4   29.70    5.50
 -14   6   4   29.20    3.60
 -12  -6   4   11.30    3.90
  12  -6  -4   10.50    4.50
  12  -6  -4    6.50    2.50
 -12   6   4    8.20    2.40
 -12   6   4    7.20    3.80
  12   6  -4   13.90    4.10
 -10  -6   4    1.40    2.60
  10  -6  -4   -0.70    3.30
  10  -6  -4   -0.90    2.00
 -10   6   4    5.40    3.40
 -10   6   4    4.70    2.10
  10   6  -4    3.30    2.90
  -8  -6   4   49.20    4.50
   8  -6  -4   52.49    5.00
   8  -6  -4   44.80    6.20
   8   6  -4   51.39    4.60
  -8   6   4   56.99    7.10
  -8   6   4   52.19    5.10
  -8   6   4   44.60    6.10
   6  -6  -4   10.00    3.80
  -6  -6   4    7.60    3.70
   6  -6  -4   13.10    2.90
  -6   6   4   14.60    4.00
   6   6  -4    6.90    2.20
  -6   6   4   15.40    3.20
  -6   6   4   13.70    4.10
  -4  -6   4  102.79    4.10
   4  -6  -4  108.89    7.50
   4  -6  -4  103.29    6.20
  -4   6   4  113.89    7.90
   4   6  -4   92.09    5.90
  -4   6   4  111.19    7.50
  -4   6   4  108.59    6.00
   2  -6  -4    7.60    2.90
   2  -6  -4    9.30    3.30
  -2   6   4    5.40    3.30
  -2   6   4    8.30    3.30
  -2   6   4    7.10    2.50
   2   6  -4   10.30    2.80
   0  -6  -4   74.49    6.70
   0  -6  -4   79.79    9.50
   0  -6  -4   68.99    6.20
   0   6  -4   75.29    5.20
   0   6   4   90.39    6.70
   0   6   4   78.79    7.00
   0   6   4   80.79    5.70
  -2  -6  -4   25.00    4.50
  -2  -6  -4   23.60    5.00
   2   6   4   19.30    3.60
  -2   6  -4   23.10    3.30
   2   6   4   12.20    3.60
   2   6   4   21.50    4.70
  -4  -6  -4    6.90    3.60
  -4  -6  -4    8.00    3.30
   4   6   4    1.70    2.90
   4   6   4    0.50    3.00
  -4   6  -4    6.10    2.20
   4   6   4    4.00    2.70
  -6  -6  -4    9.10    3.40
  -6  -6  -4   10.60    4.40
   6   6   4    6.50    4.00
   6   6   4   13.10    6.60
  -6   6  -4    8.40    2.40
  -8  -6  -4   20.50    4.60
   8   6   4   22.90    5.20
  -8   6  -4   19.60    2.90
   8   6   4   27.10    6.20
  10  -6   4   10.40    3.10
 -10  -6  -4    5.80    3.40
  10   6   4    1.40    3.20
 -10   6  -4    5.00    2.00
  10   6   4    5.00    4.40
  15  -7  -4    2.80    4.20
 -15  -7   4   -1.20    5.40
  15  -7  -4    1.90    2.20
  15   7  -4    0.50    3.70
 -15   7   4    1.00    2.00
  13  -7  -4   -3.10    3.70
  13  -7  -4    0.40    2.20
  13   7  -4    3.10    3.60
 -13   7   4   -0.10    3.30
 -13   7   4    0.80    1.90
 -11  -7   4    9.20    3.80
  11  -7  -4   12.30    4.60
  11  -7  -4    9.40    2.90
  11   7  -4   13.70    3.90
 -11   7   4    9.40    4.10
 -11   7   4   11.40    4.60
 -11   7   4    9.70    2.90
   9  -7  -4    7.60    2.90
  -9  -7   4    7.80    2.90
   9  -7  -4    8.20    4.20
  -9   7   4    6.50    2.60
   9   7  -4    9.00    3.20
  -9   7   4    5.50    3.50
  -9   7   4    2.70    3.60
   7  -7  -4   62.79    5.30
   7  -7  -4   58.49    7.40
  -7   7   4   60.09    7.20
  -7   7   4   65.29    7.60
  -7   7   4   58.59    4.80
   7   7  -4   59.59    4.40
   5  -7  -4   -2.00    2.20
   5  -7  -4   -0.70    2.50
  -5  -7   4    0.60    1.90
  -5   7   4    3.90    3.10
  -5   7   4    1.70    3.00
  -5   7   4    2.40    2.10
   3  -7  -4   74.49    6.40
   3  -7  -4   66.49    7.70
  -3   7   4   78.69    7.30
  -3   7   4   79.89    5.70
  -3   7   4   74.19    6.70
   1  -7  -4   62.89    6.60
   1  -7  -4   38.10    5.90
   1   7  -4   49.20    5.40
  -1   7   4   50.29    7.80
  -1   7   4   40.90    5.70
  -1   7   4   51.49    5.60
  -1  -7  -4   12.30    4.30
  -1  -7  -4   23.20    4.50
   1   7   4   24.50    5.40
   1   7   4   18.00    4.40
  -1   7  -4   21.10    3.30
  -3  -7  -4    4.00    3.30
  -3  -7  -4    0.90    3.30
   3   7   4    1.10    2.80
  -3   7  -4    2.50    2.10
   3   7   4    6.80    3.90
  -5  -7  -4  102.79    7.50
  -5  -7  -4   97.39    8.60
   5   7   4  100.59    8.00
  -5   7  -4   91.19    5.40
  -7  -7  -4   30.20    6.20
  -7  -7  -4   21.60    4.60
  -7   7  -4   25.70    3.50
   7   7   4   35.60    6.90
   7   7   4   41.40    6.70
  -9   7  -4    3.80    2.10
   9   7   4    1.80    4.10
   9   7   4    5.10    3.80
  14  -8  -4   33.30    4.10
  14  -8  -4   20.00    5.80
 -14   8   4   31.50    3.90
  14   8  -4   32.80    5.80
 -14   8   4   25.40    6.10
  12  -8  -4    0.60    2.40
 -12  -8   4    7.40    3.80
  12  -8  -4    3.70    4.30
 -12   8   4    5.00    3.90
 -12   8   4    7.40    4.70
  12   8  -4    4.30    3.60
 -12   8   4    5.10    2.60
  10  -8  -4   21.10    3.90
 -10  -8   4   20.90    4.20
  10  -8  -4   18.30    5.30
  10   8  -4   19.00    4.10
 -10   8   4   20.10    3.70
 -10   8   4   19.40    5.30
 -10   8   4   18.90    5.10
  -8  -8   4  207.68   10.90
   8  -8  -4  205.58   11.60
   8  -8  -4  200.18    8.80
   8   8  -4  217.68    8.10
  -8   8   4  185.48   10.90
  -8   8   4  211.98    8.50
   8   8  -4  185.38    9.30
  -8   8   4  194.98   11.20
  -6  -8   4   90.69    5.50
   6  -8  -4   81.69    7.90
   6  -8  -4   91.89    6.40
  -6   8   4   91.89    6.00
  -6   8   4   87.19    8.10
  -6   8   4   84.39    7.70
   4  -8  -4   -2.90    2.10
   4  -8  -4    0.30    2.70
  -4  -8   4    0.80    1.90
  -4   8   4    2.30    2.20
  -4   8   4    0.30    3.30
  -4   8   4   -0.70    2.70
   2  -8  -4    2.90    2.60
   2  -8  -4    0.70    2.80
  -2   8   4   -1.10    2.00
  -2   8   4    3.50    3.60
  -2   8   4   -0.60    2.60
   0  -8  -4   68.29    6.30
   0  -8  -4   81.29    8.90
   0   8  -4   82.29    6.80
   0   8   4   75.29    6.10
   0   8   4   70.99    6.90
   0   8   4   78.49    8.80
  -2  -8  -4   25.70    4.50
  -2  -8  -4   29.90    5.90
   2   8   4   31.80    6.30
   2   8   4   34.30    5.80
  -2   8  -4   29.30    4.00
  -4  -8  -4   55.39    6.90
  -4  -8  -4   56.79    8.10
   4   8   4   47.40    7.00
   4   8   4   41.90    7.40
  -4   8  -4   53.19    4.60
  -6  -8  -4   -2.40    2.60
  -6  -8  -4    1.30    6.90
  -6   8  -4    0.10    1.90
   6   8   4   -3.30    2.60
   6   8   4    1.00    4.00
 -13  -9   4   -2.40    3.30
  13  -9  -4    0.00    4.20
  13  -9  -4   -0.50    2.50
 -13   9   4    1.00    4.20
 -13   9   4   -1.00    2.10
  13   9  -4   -1.40    3.60
  11  -9  -4    9.80    3.30
  11  -9  -4   14.20    5.50
 -11  -9   4    9.60    3.80
 -11   9   4    4.70    4.10
  11   9  -4    6.40    3.80
 -11   9   4   12.50    3.30
   9  -9  -4   61.09    6.10
   9  -9  -4   55.39    8.30
  -9  -9   4   67.99    7.70
  -9   9   4   39.50    6.50
   9   9  -4   59.09    6.50
  -9   9   4   49.40    7.40
  -9   9   4   64.39    5.60
  -7  -9   4  106.59    6.40
   7  -9  -4   90.69    6.80
  -7   9   4   96.29    8.40
  -7   9   4   96.49    8.70
   7   9  -4   95.59    5.60
   5  -9  -4    0.60    2.50
   5  -9  -4   -0.20    2.90
  -5  -9   4    2.50    2.40
  -5   9   4   -0.50    3.00
  -5   9   4    0.40    2.40
  -5   9   4    2.20    3.40
   3  -9  -4    2.70    2.80
   3  -9  -4    1.10    3.30
  -3   9   4    3.10    3.10
  -3   9   4   -0.60    2.10
  -3   9   4   -2.10    2.80
   1  -9  -4  122.89    9.40
   1  -9  -4  117.09    7.90
   1   9  -4  123.39    7.30
  -1   9   4  120.19    9.50
  -1   9   4  118.39    8.70
  -1  -9  -4   25.30    5.00
  -1  -9  -4   21.10    5.80
   1   9   4   24.50    5.60
   1   9   4   17.50    5.40
  -1   9  -4   20.90    3.70
  -3  -9  -4   93.89    7.80
  -3  -9  -4   95.39    9.10
  -3   9  -4  118.59    6.70
   3   9   4  120.49    9.20
   3   9   4  101.89    9.30
  -5  -9  -4    5.10    4.90
  -5  -9  -4    0.70    2.90
  -5   9  -4    3.10    2.30
   5   9   4    0.20    3.60
   5   9   4    2.40    3.90
  10 -10  -4    2.10    4.00
 -10 -10   4    3.50    3.80
  10 -10  -4    7.40    3.50
 -10  10   4    6.60    3.70
  10  10  -4    3.70    5.60
 -10  10   4    5.10    4.20
  -8 -10   4   34.30    5.00
   8 -10  -4   37.90    5.60
   8 -10  -4   25.50    6.30
  -8  10   4   46.00    6.00
   8  10  -4   38.20    4.90
  -8  10   4   32.10    6.20
  -6 -10   4    1.50    2.70
   6 -10  -4    0.20    2.90
   6 -10  -4   -1.30    3.00
  -6  10   4   -1.80    2.50
  -6  10   4   -2.20    2.80
  -6  10   4   -0.50    3.10
  -4 -10   4   38.30    4.30
   4 -10  -4   31.50    6.20
   4 -10  -4   35.60    5.50
  -4  10   4   32.20    5.80
  -4  10   4   27.10    6.00
   2 -10  -4    8.60    4.50
   2 -10  -4   15.10    4.20
  -2  10   4    7.90    3.70
   0 -10  -4    6.70    3.80
   0  10  -4    0.60    2.60
   0  10   4    3.40    3.00
   0  10   4    1.30    4.10
  -2 -10  -4   10.40    5.10
  -2 -10  -4   15.90    4.30
   2  10   4    5.40    5.30
   2  10   4   13.40    4.80
  -2  10  -4    9.50    3.10
   5 -11  -4    2.50    3.70
  -5 -11   4   -0.60    2.60
   5 -11  -4    3.10    3.40
  -5  11   4   -1.60    3.00
   3 -11  -4    6.40    4.50
   3 -11  -4   11.30    4.10
  -3  11   4    5.00    3.70
 -18   0   5   -2.80    3.80
  18   0  -5    2.90    4.00
  18   0  -5    1.50    3.00
 -16   0   5    0.40    3.70
  16   0  -5   -1.70    2.00
  16   0  -5    0.70    3.80
  14   0  -5    1.20    2.20
  14   0  -5   -0.40    3.50
 -14   0   5    0.20    3.00
  12   0  -5    2.40    2.40
  12   0  -5   -3.40    2.60
 -12   0   5   -2.30    2.60
 -10   0   5    1.60    3.00
  10   0  -5   -0.10    2.50
  10   0  -5    4.20    2.20
   8   0  -5    2.10    2.00
  -8   0   5   -0.70    1.40
   8   0  -5    1.10    2.40
  -6   0   5    0.30    2.20
  -6   0   5    1.20    1.70
   6   0  -5    1.40    2.30
   6   0  -5   -2.90    1.50
  -4   0   5   -0.60    2.10
  -4   0   5    0.20    1.40
   4   0  -5    0.40    1.70
   4   0  -5    0.70    1.80
  -4   0   5    0.40    2.20
  -2   0   5   -2.30    1.30
   2   0  -5   -0.10    1.90
   2   0  -5   -0.20    1.40
  -2   0   5   -0.70    2.00
  -2   0   5   -0.50    1.90
   0   0  -5    3.50    2.20
   0   0   5    0.50    1.90
   0   0   5   -0.50    2.00
   0   0   5    0.20    1.40
  -2   0  -5   -0.70    1.90
   2   0   5   -1.60    2.10
   2   0   5    0.60    1.80
   4   0   5    0.00    2.40
   4   0   5    1.10    2.00
   4   0   5   -0.60    1.90
  -4   0  -5    0.70    2.20
   6   0   5   -2.90    2.20
   6   0   5   -2.40    1.80
  -6   0  -5    0.10    2.40
   6   0   5   -1.00    2.60
   8   0   5    1.50    2.70
   8   0   5    1.70    3.10
   8   0   5    1.80    2.20
  -8   0  -5   -2.40    2.10
  10   0   5    1.40    3.00
 -10   0  -5   -0.40    2.30
  10   0   5    2.40    2.60
  10   0   5    3.40    3.80
 -19  -1   5   15.50    6.10
  19  -1  -5   21.10    6.20
  19  -1  -5   24.40    3.90
 -19   1   5   16.90    5.80
  19   1  -5   11.40    3.40
  19   1  -5   18.10    5.90
  17  -1  -5    3.00    2.60
  17  -1  -5   -1.20    3.90
 -17  -1   5    7.50    4.10
  17   1  -5    6.80    4.30
  17   1  -5    6.50    3.10
 -17   1   5    1.70    4.10
  15  -1  -5   10.20    6.80
  15  -1  -5   -1.00    1.90
 -15  -1   5   -0.90    3.10
 -15   1   5    0.40    3.20
  15   1  -5   -0.30    3.40
 -13  -1   5   34.90    5.20
  13  -1  -5   38.50    4.40
  13  -1  -5   30.30    5.40
  13   1  -5   28.40    5.10
  13   1  -5   33.80    4.50
 -13   1   5   34.90    5.60
  11  -1  -5   -1.70    2.50
  11  -1  -5    0.50    2.00
 -11  -1   5   -1.40    2.40
 -11   1   5   -1.60    2.80
  11   1  -5   -0.50    2.50
  11   1  -5    2.60    2.00
   9  -1  -5   21.10    3.40
   9  -1  -5   16.20    4.00
  -9   1   5   15.10    3.10
  -9   1   5   20.80    4.00
   9   1  -5   18.30    3.40
   9   1  -5   29.10    4.30
   7  -1  -5   -1.00    2.20
   7  -1  -5   -0.90    1.80
  -7  -1   5    2.70    2.40
   7   1  -5    1.00    2.10
   7   1  -5    0.10    1.80
  -7   1   5   -1.00    1.60
  -7   1   5   -0.30    2.20
   5  -1  -5    6.80    2.60
  -5  -1   5    6.70    2.10
  -5  -1   5    9.20    2.60
   5  -1  -5    6.10    2.50
   5   1  -5    9.00    2.60
  -5   1   5   14.30    3.30
  -5   1   5    6.50    2.80
   5   1  -5    4.50    1.90
  -3  -1   5    9.70    2.60
   3  -1  -5    6.40    2.20
   3  -1  -5    8.80    2.50
  -3  -1   5    8.00    2.20
  -3  -1   5   10.10    2.50
  -3   1   5    7.40    2.90
  -3   1   5    5.90    2.20
   3   1  -5    9.10    2.70
  -3   1   5    3.70    2.60
   3   1  -5    4.00    1.80
  -1  -1   5    1.10    2.10
   1  -1  -5    2.90    2.30
  -1  -1   5    2.00    1.60
  -1  -1   5    1.90    1.90
   1   1  -5    5.60    2.30
  -1   1   5    2.80    2.30
  -1   1   5    2.00    2.60
  -1   1   5    2.70    2.00
   1  -1   5   56.49    4.50
   1  -1   5   65.99    4.40
   1  -1   5   63.99    4.90
  -1  -1  -5   59.09    4.90
   1   1   5   60.99    4.70
  -1   1  -5   61.89    4.90
   1   1   5   62.39    5.50
   1   1   5   70.79    5.30
   3  -1   5    5.60    2.60
   3  -1   5   16.60    3.00
   3  -1   5    9.30    3.00
  -3  -1  -5    8.10    2.80
  -3  -1  -5    7.90    2.70
   3   1   5    4.60    2.90
   3   1   5    8.50    2.90
   3   1   5   12.90    3.40
  -3   1  -5   11.20    2.90
   5  -1   5    7.80    3.80
   5  -1   5    5.30    2.40
   5  -1   5    3.60    2.20
  -5  -1  -5    0.00    1.70
   5   1   5    3.40    2.60
   5   1   5    0.70    3.00
  -5   1  -5    6.00    2.60
   5   1   5    2.30    2.10
  -5   1  -5    6.30    2.80
   7  -1   5  215.08    8.50
  -7  -1  -5  213.38    9.00
   7  -1   5  227.98    9.00
   7   1   5  231.58   10.80
   7   1   5  222.88    9.80
   7   1   5  221.08    9.00
  -7   1  -5  218.98    8.60
   9  -1   5   -0.70    2.70
  -9  -1  -5   -3.20    2.30
   9  -1   5    0.40    2.10
   9   1   5    0.60    3.50
   9   1   5    4.60    3.40
   9   1   5    3.20    3.60
 -18  -2   5   18.20    5.70
  18  -2  -5   14.50    5.70
  18  -2  -5   25.60    3.80
  18   2  -5   21.30    6.00
  18   2  -5   20.80    4.00
 -18   2   5   21.60    6.10
  16  -2  -5   -0.90    3.50
  16  -2  -5    0.30    1.90
 -16  -2   5    0.50    3.40
  16   2  -5    0.70    3.90
  16   2  -5    1.60    2.70
 -16   2   5    0.60    3.50
  14  -2  -5   -0.40    3.20
 -14  -2   5   -0.90    3.10
  14  -2  -5    0.50    2.00
 -14   2   5   -0.80    3.60
  14   2  -5   -0.80    3.00
  14   2  -5    3.20    2.50
  12  -2  -5   44.00    4.70
  12  -2  -5   38.80    5.90
 -12  -2   5   41.00    5.40
  12   2  -5   56.49    6.00
 -12   2   5   47.20    6.00
  12   2  -5   50.39    6.10
  10  -2  -5    5.10    2.40
  10  -2  -5   -2.10    2.90
 -10  -2   5    1.80    2.70
 -10   2   5    4.40    3.10
 -10   2   5    2.00    2.10
  10   2  -5    3.30    2.30
   8  -2  -5   17.10    3.80
   8  -2  -5   19.80    3.60
  -8  -2   5   14.90    3.30
   8   2  -5   15.50    3.20
  -8   2   5   21.60    3.40
   8   2  -5   14.80    3.30
  -8   2   5   18.30    4.10
  -6  -2   5  124.29    6.00
   6  -2  -5  128.19    7.30
   6  -2  -5  121.19    6.20
   6   2  -5  119.99    6.20
   6   2  -5  128.39    5.80
  -6   2   5  119.39    7.20
  -6   2   5  109.59    8.60
  -6   2   5  134.19    6.40
   4  -2  -5   13.00    3.10
  -4  -2   5   16.20    2.80
   4  -2  -5   17.40    3.20
  -4   2   5   12.50    3.20
  -4   2   5   13.70    2.90
   4   2  -5   13.10    2.90
   4   2  -5   10.50    2.00
  -4   2   5   14.10    3.30
  -2  -2   5    5.60    2.00
   2  -2  -5   10.00    2.60
  -2  -2   5   12.70    3.10
   2  -2  -5    6.60    2.50
  -2  -2   5   10.70    2.20
  -2   2   5    9.80    2.30
  -2   2   5   10.50    3.10
   2   2  -5   11.60    2.70
   0  -2  -5  119.49    6.50
   0  -2   5  126.79    6.40
   0  -2   5  117.39    5.20
   0  -2   5  128.49    5.10
   0   2   5  129.49    6.80
   0   2   5  124.19    6.40
   0   2  -5  121.39    6.20
   2  -2   5   67.99    4.60
  -2  -2  -5   67.49    5.40
   2  -2   5   72.09    5.10
   2  -2   5   68.09    4.50
  -2  -2  -5   61.89    5.60
  -2   2  -5   52.79    4.80
   2   2   5   63.69    6.00
   2   2   5   68.89    5.10
   4  -2   5   19.40    3.00
   4  -2   5   17.60    3.20
  -4  -2  -5    4.70    4.60
   4  -2   5   16.00    3.20
  -4  -2  -5   21.60    3.90
   4   2   5   19.10    3.40
   4   2   5   15.70    3.70
  -4   2  -5   19.50    3.60
   4   2   5   14.80    4.00
   6  -2   5   42.30    4.50
  -6  -2  -5   44.20    5.40
   6  -2   5   39.00    4.70
   6  -2   5   35.30    4.50
  -6   2  -5   45.00    4.00
   6   2   5   48.60    5.50
   6   2   5   44.90    6.20
  -6   2  -5   46.00    4.70
   6   2   5   37.60    5.00
   8  -2   5   51.59    5.90
   8  -2   5   41.00    4.80
  -8  -2  -5   57.59    6.20
   8  -2   5   51.39    5.40
   8   2   5   50.19    5.40
  -8   2  -5   56.29    5.00
   8   2   5   48.10    6.10
   8   2   5   49.90    7.00
  10  -2   5    6.10    3.40
  10  -2   5    4.30    3.90
 -10  -2  -5    4.90    3.20
  10  -2   5    8.60    2.90
 -10   2  -5   -0.20    2.50
  10   2   5    2.10    4.10
  10   2   5    2.30    3.40
  17  -3  -5    7.30    4.80
  17  -3  -5    5.60    2.40
 -17  -3   5    6.80    4.70
  17   3  -5   10.70    4.90
 -17   3   5   12.00    4.90
  17   3  -5    9.90    3.40
  15  -3  -5   26.60    3.80
  15  -3  -5   18.80    5.20
 -15  -3   5   18.60    4.90
  15   3  -5   28.80    4.40
 -15   3   5   21.60    5.20
  15   3  -5   25.00    5.30
 -13  -3   5   64.59    6.90
  13  -3  -5   59.69    4.90
  13  -3  -5   62.89    7.70
 -13   3   5   63.39    4.90
  13   3  -5   48.50    5.30
 -13   3   5   62.99    7.50
  13   3  -5   54.09    6.40
  11  -3  -5   10.50    2.80
  11  -3  -5    7.10    3.80
 -11  -3   5    9.60    3.40
  11   3  -5   10.30    3.30
  11   3  -5   12.40    3.80
 -11   3   5    7.20    2.40
 -11   3   5   11.90    4.00
   9  -3  -5   87.79    7.20
   9  -3  -5   82.89    5.40
  -9  -3   5   94.09    6.00
   9   3  -5   82.29    5.90
   9   3  -5   85.09    5.70
  -9   3   5   76.39    6.80
  -9   3   5   71.79    5.10
   7  -3  -5    0.30    2.20
   7  -3  -5   -0.90    2.60
  -7  -3   5   -0.80    2.20
  -7   3   5    0.40    2.80
  -7   3   5    1.50    1.80
  -7   3   5   -1.20    2.50
   7   3  -5    0.00    2.10
   7   3  -5   -1.00    2.20
   5  -3  -5  106.29    6.00
   5  -3  -5  110.89    7.20
  -5  -3   5   96.09    5.20
  -5   3   5  100.79    5.90
  -5   3   5  110.29    7.20
  -5   3   5  106.69    7.00
   5   3  -5  105.99    4.40
   5   3  -5  105.99    6.00
  -3  -3   5  108.29    4.60
   3  -3  -5  127.99    6.60
   3  -3  -5  124.99    7.20
  -3  -3   5  123.49    4.80
  -3   3   5  118.69    7.40
  -3   3   5  118.79    7.20
   3   3  -5  121.19    6.30
  -3   3   5  120.59    6.30
   1  -3  -5   16.20    3.50
   1  -3  -5   16.30    3.30
   1   3  -5   15.30    3.10
  -1   3   5   15.70    3.80
  -1   3   5   12.20    3.40
  -1   3   5   26.40    4.30
  -1  -3  -5   13.50    3.60
  -1  -3  -5   14.20    5.30
   1   3   5   14.00    3.00
   1   3   5   14.30    3.70
   1   3   5   10.10    3.30
  -1   3  -5   16.70    3.40
  -3  -3  -5  134.89    8.00
   3  -3   5  128.39    4.80
  -3  -3  -5  121.59    7.00
  -3   3  -5  145.99    6.80
   3   3   5  126.29    8.20
   3   3   5  134.19    7.20
   3   3   5  147.69    7.90
  -5  -3  -5   30.20    4.60
  -5  -3  -5   21.80    4.50
   5  -3   5   28.70    3.30
   5  -3   5   39.50    4.20
   5   3   5   26.80    5.20
  -5   3  -5   32.40    4.10
   5   3   5   34.50    5.50
   5   3   5   29.30    4.90
  -7  -3  -5    3.70    3.00
   7  -3   5    5.00    3.00
   7  -3   5    4.40    2.50
  -7   3  -5    4.00    2.40
   7   3   5    0.00    3.10
   7   3   5   -0.20    2.20
   7   3   5   -1.50    2.50
  -9  -3  -5    8.90    3.50
   9  -3   5    8.50    3.90
   9  -3   5   10.00    4.10
   9   3   5   10.70    4.60
  -9   3  -5   12.60    3.20
   9   3   5   11.20    4.00
 -18  -4   5   25.10    6.20
  18  -4  -5   27.80    3.70
  18  -4  -5   18.20    6.00
  18   4  -5   32.40    4.80
  18   4  -5   36.60    6.90
 -18   4   5   30.20    6.50
 -16  -4   5   -3.50    3.40
  16  -4  -5    3.30    2.30
  16  -4  -5    4.20    4.20
  16   4  -5    5.10    4.20
 -16   4   5    0.90    3.90
  16   4  -5    1.60    2.80
 -14  -4   5   27.00    4.90
  14  -4  -5   31.30    4.40
  14  -4  -5   30.60    6.00
 -14   4   5   22.50    5.30
  14   4  -5   34.30    5.60
  14   4  -5   29.00    4.60
 -14   4   5   26.80    3.80
 -12  -4   5   32.30    5.10
  12  -4  -5   36.20    6.30
  12  -4  -5   34.30    4.30
 -12   4   5   34.60    4.20
 -12   4   5   33.00    6.00
  12   4  -5   38.60    5.50
  12   4  -5   28.70    4.20
 -10  -4   5   29.00    4.30
  10  -4  -5   30.50    4.30
  10  -4  -5   17.90    5.60
  10   4  -5   26.00    4.30
  10   4  -5   29.80    4.50
 -10   4   5   11.50    3.80
 -10   4   5   28.80    3.90
  -8  -4   5  161.18    7.00
   8  -4  -5  163.18    9.40
   8  -4  -5  164.98    7.40
   8   4  -5  171.38    9.20
  -8   4   5  166.28    9.40
   8   4  -5  161.28    6.80
  -8   4   5  164.38    9.30
  -8   4   5  168.68    7.30
   6  -4  -5  100.99    6.00
  -6  -4   5   86.39    5.10
   6  -4  -5   85.09    6.90
  -6   4   5   94.19    5.80
   6   4  -5   92.29    6.10
  -6   4   5   89.29    7.20
   6   4  -5   95.09    4.50
  -6   4   5   94.09    7.20
   4  -4  -5  150.48    7.30
   4  -4  -5  135.59    8.10
  -4  -4   5  146.19    5.10
  -4   4   5  147.59    7.10
  -4   4   5  151.98    8.40
   4   4  -5  150.68    7.20
  -4   4   5  149.88    8.70
   2  -4  -5    1.80    2.20
  -2   4   5    4.20    3.10
   2   4  -5    1.10    1.90
  -2   4   5    2.20    1.90
  -2   4   5    1.80    2.70
   0  -4  -5    5.20    2.50
   0   4   5    1.90    2.60
   0   4  -5    7.10    2.50
   0   4   5   -0.10    2.30
   0   4   5    0.00    1.80
  -2  -4  -5  102.89    7.60
  -2  -4  -5  109.49    6.90
   2   4   5  117.99    8.20
  -2   4  -5  101.29    6.00
   2   4   5  110.29    8.20
  -4  -4  -5   97.09    6.90
  -4  -4  -5   64.59    7.10
  -4   4  -5   77.39    5.40
   4   4   5   58.09    7.40
   4   4   5   77.19    6.70
   4   4   5   81.49    6.20
  -6  -4  -5   82.79    6.80
   6   4   5   87.49    8.20
  -6   4  -5   79.99    5.40
   6   4   5   85.69    7.20
   8  -4   5   16.50    3.20
   8  -4   5   28.40    4.40
  -8  -4  -5   24.50    4.90
  -8   4  -5   25.50    3.80
   8   4   5   22.10    4.90
   8   4   5   22.30    5.70
  17  -5  -5   11.80    6.40
 -17  -5   5   -1.00    4.20
  17  -5  -5    5.90    2.70
  17   5  -5    3.40    3.40
 -17   5   5    1.90    4.10
  17   5  -5    4.90    4.80
 -15  -5   5   19.20    4.80
  15  -5  -5   11.90    5.00
  15  -5  -5   28.30    4.00
 -15   5   5   23.20    3.80
  15   5  -5   18.20    4.90
 -15   5   5   18.70    5.30
  15   5  -5   11.00    3.80
  13  -5  -5    1.90    4.00
 -13  -5   5    1.40    3.20
  13  -5  -5    0.70    2.10
 -13   5   5   -1.90    3.50
  13   5  -5    1.50    2.80
 -13   5   5   -0.80    2.10
  13   5  -5    2.20    3.50
 -11  -5   5  194.38    9.00
  11  -5  -5  192.88    8.00
  11  -5  -5  216.98   11.40
 -11   5   5  200.08    8.10
  11   5  -5  194.28    9.10
  11   5  -5  185.58    8.60
 -11   5   5  193.58   11.00
   9  -5  -5  100.49    6.20
   9  -5  -5   96.59    8.10
  -9  -5   5   96.59    6.10
  -9   5   5   97.39    6.00
  -9   5   5   99.89    8.20
   9   5  -5   98.39    5.90
   9   5  -5   97.99    6.70
  -9   5   5   96.09    7.90
   7  -5  -5  194.08   15.70
   7  -5  -5  152.08    7.50
  -7  -5   5  149.09    6.50
  -7   5   5  140.99    7.10
   7   5  -5  161.28    6.10
   7   5  -5  157.18    7.90
  -7   5   5  145.49    9.10
  -7   5   5  163.58    9.40
  -5  -5   5   65.29    3.80
   5  -5  -5   53.49    6.60
  -5   5   5   55.19    6.90
   5   5  -5   62.09    5.60
  -5   5   5   57.49    7.00
  -5   5   5   63.79    5.10
   3  -5  -5    9.50    3.00
   3  -5  -5    7.70    3.30
   3   5  -5    7.20    3.40
  -3   5   5    3.80    2.50
  -3   5   5    1.20    3.00
  -3   5   5    8.80    3.30
   1  -5  -5   68.39    5.80
   1  -5  -5   54.89    6.70
  -1   5   5   64.39    6.30
   1   5  -5   66.59    5.20
  -1   5   5   44.70    6.40
  -1  -5  -5   14.30    4.10
  -1  -5  -5   15.80    3.70
  -1   5  -5   11.60    2.80
   1   5   5   10.90    3.40
   1   5   5   17.90    4.30
   1   5   5   20.30    4.70
  -3  -5  -5   32.60    5.20
   3   5   5   34.80    5.60
  -3   5  -5   28.50    4.00
   3   5   5   27.80    5.50
  -5  -5  -5   23.40    4.50
   5   5   5   14.60    4.10
   5   5   5    5.80    4.00
  -5   5  -5   12.90    3.00
  -7  -5  -5    4.50    3.20
   7   5   5   -1.10    2.70
  -7   5  -5    2.20    2.30
   7   5   5   -1.10    3.50
  16  -6  -5    3.70    2.60
  16  -6  -5    6.70    5.50
 -16  -6   5    2.40    4.30
  16   6  -5    0.90    3.20
  16   6  -5    6.80    4.70
 -16   6   5    3.30    4.30
 -14  -6   5    4.60    3.90
  14  -6  -5   10.40    3.10
  14  -6  -5    9.40    5.10
  14   6  -5    4.90    3.00
 -14   6   5   11.30    3.10
 -14   6   5   11.20    4.80
  14   6  -5   14.70    4.80
  12  -6  -5  108.19    9.30
 -12  -6   5   99.59    7.10
  12  -6  -5   82.99    5.70
 -12   6   5   88.79    8.50
 -12   6   5   94.39    6.00
  12   6  -5   95.19    7.20
  12   6  -5   96.69    7.20
  10  -6  -5   15.50    3.50
 -10  -6   5   19.00    4.00
  10  -6  -5    5.90    4.20
  10   6  -5   16.20    3.70
 -10   6   5    7.90    4.10
 -10   6   5   15.20    4.70
 -10   6   5   13.90    3.20
  10   6  -5   18.40    3.90
   8  -6  -5   -0.10    2.90
   8  -6  -5    7.70    3.30
  -8  -6   5    3.30    2.60
  -8   6   5    8.90    2.80
   8   6  -5    6.40    3.20
  -8   6   5   16.70    4.90
  -8   6   5   16.30    8.50
   8   6  -5    5.90    4.80
   6  -6  -5  205.78    8.90
  -6  -6   5  210.78    6.60
   6  -6  -5  197.98   10.90
  -6   6   5  207.68   10.90
  -6   6   5  202.48    8.70
  -6   6   5  201.48   11.00
   4  -6  -5   14.80    4.20
   4  -6  -5   17.00    3.80
   4   6  -5   14.60    3.60
  -4   6   5   12.30    4.40
  -4   6   5   16.60    3.70
  -4   6   5    8.10    4.10
   2  -6  -5    4.30    2.70
   2  -6  -5   -0.50    2.60
  -2   6   5   -2.80    2.20
  -2   6   5    0.60    2.10
   2   6  -5   -1.60    1.90
  -2   6   5   -0.90    2.90
   0  -6  -5   37.80    5.30
   0   6   5   31.80    5.90
   0   6   5   27.10    5.00
   0   6  -5   29.30    5.10
  -2  -6  -5   54.49    7.40
  -2  -6  -5   46.70    5.80
   2   6   5   51.49    7.20
   2   6   5   38.00    5.70
  -2   6  -5   41.30    6.00
  -4  -6  -5   71.89    8.50
  -4  -6  -5   84.69    7.10
   4   6   5   83.29    7.60
   4   6   5   85.49    9.50
  -4   6  -5  105.59    6.10
  -6  -6  -5    6.90    3.20
   6   6   5    5.40    3.60
   6   6   5    9.30    4.80
  -6   6  -5    7.60    2.80
 -15  -7   5   24.40    5.50
  15  -7  -5   19.80    3.90
  15  -7  -5   19.30    6.00
 -15   7   5   19.90    3.70
 -15   7   5    7.80    4.60
  15   7  -5   23.60    5.90
  13  -7  -5    3.50    3.00
 -13  -7   5   -0.50    3.30
  13  -7  -5    3.60    4.40
  13   7  -5    1.70    3.80
 -13   7   5    1.50    4.30
 -13   7   5   -0.20    3.40
 -13   7   5   -3.00    2.10
  11  -7  -5    5.60    4.60
 -11  -7   5   -0.90    2.90
  11  -7  -5    1.90    2.60
 -11   7   5   -0.60    3.70
 -11   7   5    0.70    2.30
  11   7  -5    1.20    3.30
 -11   7   5   -3.40    3.10
   9  -7  -5   18.10    3.80
   9  -7  -5    6.90    4.50
  -9  -7   5   20.90    3.60
   9   7  -5   15.40    3.90
  -9   7   5   16.00    3.70
  -9   7   5   13.70    4.60
  -9   7   5   14.00    5.10
   9   7  -5   14.00    3.50
   7  -7  -5    0.80    3.10
   7  -7  -5    2.50    2.70
  -7  -7   5    3.40    2.40
  -7   7   5   -0.80    2.80
   7   7  -5    1.90    2.60
  -7   7   5   -0.10    3.20
   5  -7  -5   10.10    3.90
   5  -7  -5   18.90    4.30
  -5   7   5   19.80    3.90
  -5   7   5   18.50    4.80
   5   7  -5   10.40    3.10
  -5   7   5   18.50    5.40
   3  -7  -5    0.20    2.80
   3  -7  -5    3.70    3.50
   3   7  -5    0.50    2.20
  -3   7   5    0.30    2.80
  -3   7   5    0.40    2.30
   1  -7  -5   63.59    8.00
   1  -7  -5   72.69    6.60
  -1   7   5   74.99    7.10
  -1   7   5   62.89    7.80
   1   7  -5   72.99    6.00
  -1  -7  -5    0.10    2.50
  -1  -7  -5    0.90    3.40
   1   7   5    2.60    3.50
  -1   7  -5    2.90    2.30
   1   7   5    1.30    3.50
  -3  -7  -5   60.69    8.50
  -3  -7  -5   46.80    6.00
   3   7   5   42.70    7.40
   3   7   5   54.99    7.30
  -3   7  -5   41.10    4.70
  -5  -7  -5   -1.10    2.90
  -5   7  -5   -0.30    4.60
   5   7   5    1.80    3.40
   5   7   5    2.50    4.60
  12  -8  -5    1.60    4.10
  12  -8  -5    2.00    2.70
 -12  -8   5    0.00    3.30
 -12   8   5   -2.30    2.40
 -12   8   5    0.00    3.50
  12   8  -5    3.70    3.70
 -12   8   5   -4.80    3.50
  10  -8  -5    1.90    2.70
 -10  -8   5   -2.90    2.60
  10  -8  -5    1.60    3.90
 -10   8   5   -0.30    2.50
  10   8  -5   -3.00    2.80
 -10   8   5   -0.10    3.50
 -10   8   5    4.40    4.30
  -8  -8   5   32.50    4.10
   8  -8  -5   25.60    6.10
   8  -8  -5   27.30    4.70
   8   8  -5   15.20    4.00
  -8   8   5   29.70    6.30
  -8   8   5   23.70    5.70
  -8   8   5   27.60    4.70
   6  -8  -5   -0.20    3.20
   6  -8  -5   -3.00    2.30
  -6  -8   5   -0.10    2.20
  -6   8   5   -0.80    2.50
  -6   8   5    2.00    3.20
  -6   8   5   -1.10    3.30
   6   8  -5    1.10    2.30
   4  -8  -5   11.60    4.50
   4  -8  -5   16.90    4.20
  -4   8   5   14.00    3.80
   4   8  -5   21.60    4.70
  -4   8   5   13.30    4.70
  -4   8   5    9.60    4.20
   2  -8  -5    5.30    3.30
   2  -8  -5    6.90    4.00
  -2   8   5    5.80    4.40
   2   8  -5    6.90    3.00
  -2   8   5    5.00    3.60
   0  -8  -5   81.69    8.40
   0   8  -5   70.89    6.00
   0   8   5   56.79    7.40
   0   8   5   56.49    8.30
  -2  -8  -5    2.50    4.30
  -2  -8  -5    3.10    2.90
  -2   8  -5    0.70    2.20
   2   8   5    1.60    3.40
   2   8   5   -1.10    3.50
  -4  -8  -5    3.60    3.20
   4   8   5    1.90    4.30
  -4   8  -5    2.10    2.40
   4   8   5    2.10    3.60
  11  -9  -5   25.80    6.50
 -11  -9   5   18.70    4.50
  11  -9  -5   28.00    4.70
 -11   9   5   26.30    4.80
 -11   9   5   23.10    6.00
  11   9  -5   25.00    4.80
  -9  -9   5   85.39    6.50
   9  -9  -5  110.09   10.10
   9  -9  -5   81.79    7.00
  -9   9   5   99.59    7.30
  -9   9   5   70.99    8.80
  -9   9   5   86.49   12.30
   9   9  -5   90.09    5.70
   7  -9  -5   37.80    7.40
  -7  -9   5   44.00    4.60
   7  -9  -5   44.90    5.90
  -7   9   5   42.30    7.40
  -7   9   5   41.10    7.10
   5  -9  -5    1.40    3.60
   5  -9  -5    2.40    3.10
  -5   9   5    5.60    4.30
   5   9  -5    3.40    2.90
  -5   9   5    8.00    4.20
   3  -9  -5    2.90    3.50
   3  -9  -5   -0.30    2.80
   3   9  -5    0.40    2.40
  -3   9   5    0.30    3.60
  -3   9   5   -1.20    2.80
   1  -9  -5   37.80    6.10
   1   9  -5   40.20    5.20
  -1   9   5   29.40    6.30
  -1   9   5   33.30    6.20
  -1  -9  -5    5.50    3.60
   1   9   5    4.60    3.50
  -1   9  -5    3.20    2.60
   1   9   5   14.40    5.60
   6 -10  -5   25.30    6.20
   6 -10  -5   27.50    5.10
  -6  10   5   27.30    6.40
  -6  10   5   14.30    5.20
   4 -10  -5    1.40    3.20
   4 -10  -5   -4.10    3.10
  -4  10   5    1.70    3.80
   4  10  -5   -0.90    2.40
  -4  10   5    2.10    3.30
  18   0  -6   13.70    8.00
 -18   0   6    6.80    5.10
  18   0  -6    5.00    3.00
  16   0  -6    4.10    2.70
 -16   0   6    4.60    4.30
  16   0  -6    5.10    4.50
  14   0  -6    0.10    3.50
 -14   0   6    0.00    3.40
  14   0  -6    1.60    2.50
  12   0  -6  551.04   14.70
  12   0  -6  570.44   17.00
 -12   0   6  495.35   17.30
  10   0  -6  331.97   11.20
  10   0  -6  307.37   12.10
  -8   0   6  314.27   11.30
  -8   0   6  295.27   10.60
   8   0  -6  313.87   11.50
   8   0  -6  305.27   10.60
  -6   0   6   14.90    3.60
   6   0  -6   15.40    3.50
   6   0  -6   14.10    3.20
  -6   0   6   17.40    3.70
  -6   0   6   18.90    3.90
  -4   0   6    0.70    2.70
  -4   0   6    0.00    2.50
   4   0  -6    0.20    2.20
  -4   0   6   -2.20    1.60
   4   0  -6    2.50    2.10
  -2   0   6  244.78    9.70
  -2   0   6  251.17    9.60
  -2   0   6  247.08    9.20
   2   0  -6  262.77    9.80
   0   0   6    3.50    2.30
   0   0   6    3.70    2.90
   0   0   6    9.20    2.80
   0   0  -6    5.20    3.00
  -2   0  -6    7.50    3.00
   2   0   6    7.50    3.40
   2   0   6    9.80    4.50
   2   0   6   12.50    3.10
   4   0   6    4.00    3.50
   4   0   6    1.10    2.60
   4   0   6   -0.80    2.40
  -4   0  -6    2.00    2.60
   6   0   6    0.50    2.30
   6   0   6    1.10    2.60
  -6   0  -6    1.40    2.60
  17  -1  -6    0.50    4.50
  17  -1  -6    0.90    2.70
 -17  -1   6    4.50    4.60
  17   1  -6    1.10    4.10
 -17   1   6   -4.00    3.50
  17   1  -6   -0.10    2.60
  15  -1  -6    2.50    2.50
 -15  -1   6    0.70    3.70
  15  -1  -6   -0.50    3.80
  15   1  -6    6.70    4.20
 -15   1   6    4.50    4.00
  15   1  -6   -0.70    2.60
  13  -1  -6  102.09    6.50
 -13  -1   6   83.29    7.50
  13  -1  -6   94.29    8.30
  13   1  -6   81.19    7.70
  13   1  -6  101.79    6.80
 -13   1   6   95.09    8.10
  11  -1  -6   94.39    7.80
  11  -1  -6   91.59    6.40
  11   1  -6   84.89    9.80
 -11   1   6   91.89    7.70
  11   1  -6  108.29    6.80
   9  -1  -6  237.38   10.60
   9  -1  -6  219.68    9.10
  -9  -1   6  227.28    9.80
   9   1  -6  235.68   10.00
  -9   1   6  233.08    9.40
   9   1  -6  221.58    9.30
  -9   1   6  221.38   10.10
  -7  -1   6   14.30    3.60
   7  -1  -6   12.90    3.30
   7  -1  -6   10.40    3.20
   7   1  -6   11.40    2.90
  -7   1   6   15.20    4.30
   7   1  -6   12.60    3.30
  -7   1   6    7.10    2.40
  -5  -1   6    1.20    1.90
  -5  -1   6   -0.60    2.50
  -5  -1   6   -1.90    2.20
   5  -1  -6   -0.10    2.10
   5  -1  -6   -1.10    2.00
  -5   1   6    3.40    3.10
   5   1  -6    4.60    2.80
   5   1  -6   -1.30    1.60
  -5   1   6    0.10    2.00
  -5   1   6    0.20    2.90
   3  -1  -6   14.20    3.30
  -3  -1   6   12.40    2.90
  -3  -1   6   20.10    3.60
  -3  -1   6   22.10    3.90
   3  -1  -6   19.70    3.80
   3   1  -6   19.00    3.80
  -3   1   6   15.30    3.80
  -3   1   6   21.80    4.10
  -3   1   6   18.80    3.20
  -1  -1   6  127.89    7.20
  -1  -1   6  126.09    6.20
   1  -1  -6  126.19    7.10
  -1  -1   6  121.49    7.00
  -1   1   6  134.49    7.30
  -1   1   6  121.89    8.30
  -1   1   6  127.49    7.70
   1   1  -6  124.49    7.10
   1  -1   6   57.89    5.40
   1  -1   6   62.49    5.60
  -1  -1  -6   47.30    5.30
   1  -1   6   62.99    4.70
   1   1   6   63.19    5.70
   1   1   6   59.59    5.50
   1   1   6   66.49    6.40
  -1   1  -6   63.19    5.60
   3  -1   6   10.20    2.90
   3  -1   6   15.50    6.10
  -3  -1  -6    6.00    2.90
   3  -1   6    8.90    3.30
  -3   1  -6   12.20    3.70
   3   1   6   10.20    3.30
   3   1   6    5.30    3.50
   3   1   6    4.30    2.40
   5  -1   6    0.50    2.50
   5  -1   6    0.10    3.50
   5  -1   6    1.40    2.50
  -5  -1  -6    3.30    2.90
  -5   1  -6    1.00    2.80
   5   1   6   -2.60    3.30
   5   1   6    2.70    2.60
  -7  -1  -6    0.00    2.60
   7  -1   6   -3.70    2.40
   7  -1   6    0.00    2.10
   7  -1   6    0.20    3.50
   7   1   6    0.80    2.90
  -7   1  -6   -0.60    2.30
   7   1   6    2.00    4.00
  18  -2  -6   26.10    6.80
 -18  -2   6   29.30    6.70
  18  -2  -6   29.20    4.40
  18   2  -6   36.50    5.20
 -18   2   6   26.80    6.20
  18   2  -6   28.80    6.50
  16  -2  -6    5.50    4.70
  16  -2  -6    1.50    2.80
 -16  -2   6    2.20    4.00
  16   2  -6    4.80    3.00
  16   2  -6    8.10    4.50
 -16   2   6   -2.90    3.90
  14  -2  -6   10.20    3.30
  14  -2  -6    9.20    4.60
 -14  -2   6    7.80    4.00
  14   2  -6    9.20    4.50
  14   2  -6    2.80    2.60
 -14   2   6   10.90    4.70
  12  -2  -6   -0.70    2.30
  12  -2  -6   -4.10    3.10
 -12  -2   6   -2.20    2.70
  12   2  -6   -0.60    2.20
 -12   2   6   -0.90    3.20
 -12   2   6    4.00    2.80
  12   2  -6   -3.60    2.90
  10  -2  -6   14.10    3.60
  10  -2  -6    9.70    4.00
 -10  -2   6   15.80    3.90
 -10   2   6   15.60    4.10
  10   2  -6   14.70    4.20
 -10   2   6   16.30    3.60
  10   2  -6   11.30    3.60
   8  -2  -6   16.50    3.60
   8  -2  -6   11.00    3.60
  -8  -2   6    8.10    3.30
   8   2  -6   15.50    3.40
   8   2  -6   11.50    3.40
  -8   2   6   18.00    4.00
  -8   2   6   15.40    4.60
  -6  -2   6   10.70    3.20
   6  -2  -6    9.00    3.10
   6  -2  -6   14.20    3.50
  -6   2   6   13.10    3.70
  -6   2   6   13.00    3.80
  -6   2   6    8.00    4.50
   6   2  -6   10.30    3.10
   6   2  -6   13.40    2.80
  -4  -2   6   21.70    3.40
   4  -2  -6   35.20    5.10
   4  -2  -6   19.10    3.80
  -4  -2   6   29.60    4.00
  -4   2   6   33.80    5.00
   4   2  -6   18.00    2.50
   4   2  -6   24.40    4.10
  -4   2   6   11.80    2.70
  -2  -2   6   17.60    3.10
  -2  -2   6   20.90    4.30
  -2  -2   6   16.30    3.30
   2  -2  -6   10.00    2.80
   2  -2  -6   21.90    4.20
   2   2  -6   17.00    3.80
  -2   2   6   15.90    4.00
  -2   2   6   18.20    4.10
   0  -2   6    2.40    2.10
   0  -2   6   -1.40    2.30
   0  -2   6   -2.20    2.20
   0  -2  -6    5.70    2.80
   0   2   6   -0.70    2.40
   0   2   6    3.70    3.30
   0   2  -6    0.00    2.20
   0   2   6   -0.40    2.10
   2  -2   6   53.09    4.30
   2  -2   6   38.10    4.30
   2  -2   6   28.20    4.70
  -2  -2  -6   42.90    5.40
   2   2   6   48.60    5.70
   2   2   6   37.90    5.90
  -2   2  -6   48.10    5.50
  -4  -2  -6   11.00    3.60
   4  -2   6   11.70    3.60
   4  -2   6   10.40    4.90
   4  -2   6    8.10    2.70
   4   2   6   16.20    4.60
   4   2   6   11.70    3.50
  -4   2  -6   14.90    3.70
  -6  -2  -6    4.80    3.20
   6  -2   6    6.60    3.70
   6  -2   6   10.50    3.90
   6  -2   6   12.80    3.80
   6   2   6    4.90    3.30
   6   2   6    9.10    4.20
  -6   2  -6    7.90    3.20
  17  -3  -6    6.90    3.20
  17  -3  -6   -3.00    4.00
 -17  -3   6    8.60    4.90
  17   3  -6    3.60    2.90
  17   3  -6    2.50    4.50
 -17   3   6    5.20    4.60
  15  -3  -6    0.30    2.70
 -15  -3   6    1.20    3.50
  15  -3  -6    0.50    4.20
 -15   3   6    2.40    5.00
  15   3  -6   -0.30    2.50
  15   3  -6    0.10    4.00
  13  -3  -6   27.30    6.00
 -13  -3   6   20.40    4.70
  13  -3  -6   22.30    3.90
  13   3  -6   23.50    4.50
 -13   3   6   24.60    5.60
  13   3  -6   33.70    5.60
 -13   3   6   21.80    3.80
  11  -3  -6   92.29    8.30
  11  -3  -6  108.49    6.80
 -11  -3   6  102.89    7.40
  11   3  -6  109.89    7.50
 -11   3   6  109.19    6.80
 -11   3   6   95.99    8.20
  11   3  -6   93.49    6.80
   9  -3  -6   11.30    4.50
  -9  -3   6   10.90    3.30
   9  -3  -6   20.30    4.00
   9   3  -6   11.60    3.50
  -9   3   6   11.60    4.20
  -9   3   6   12.90    5.40
  -9   3   6   15.80    3.60
   9   3  -6   26.10    4.00
   7  -3  -6   -2.80    2.00
   7  -3  -6   -1.00    2.70
   7   3  -6   -1.40    1.70
  -7   3   6    5.90    5.90
   7   3  -6    3.50    2.70
  -7   3   6    1.10    3.20
  -7   3   6   -1.80    2.00
   5  -3  -6    1.20    2.60
   5  -3  -6   -0.20    2.30
  -5  -3   6    0.50    2.50
  -5   3   6    0.10    3.20
  -5   3   6    3.20    3.20
   5   3  -6   -1.30    2.20
   3  -3  -6   -3.90    2.10
   3  -3  -6    0.00    2.30
  -3  -3   6   -3.10    2.00
  -3  -3   6    3.20    2.10
  -3   3   6    0.00    3.00
  -3   3   6   -0.10    2.70
   3   3  -6    0.10    2.40
   1  -3  -6   23.00    4.20
   1   3  -6   19.50    3.90
  -1   3   6    9.90    3.30
  -1   3   6   19.60    4.10
  -1   3   6   24.40    4.20
  -1  -3  -6   31.80    5.00
  -1   3  -6   33.70    4.70
   1   3   6   38.20    5.60
  -3  -3  -6  156.28    8.60
   3  -3   6  149.09    5.80
   3   3   6  146.89    8.70
  -3   3  -6  142.69    7.70
  -5  -3  -6   10.50    3.90
   5  -3   6   12.60    3.50
   5  -3   6    9.20    2.60
  -5   3  -6    8.10    3.10
   5   3   6   18.30    4.80
  16  -4  -6    1.20    4.60
 -16  -4   6   -1.00    3.70
  16  -4  -6    0.60    2.50
  16   4  -6   -0.30    4.50
  16   4  -6    0.70    2.90
 -16   4   6   -2.20    3.70
  14  -4  -6   48.30    5.30
 -14  -4   6   44.20    6.50
  14  -4  -6   43.50    7.10
  14   4  -6   61.29    7.20
 -14   4   6   58.39    6.90
 -14   4   6   42.50    7.10
  14   4  -6   39.40    5.50
  12  -4  -6    5.30    4.40
  12  -4  -6    1.00    2.60
 -12  -4   6    0.20    3.00
 -12   4   6    0.90    2.90
 -12   4   6    1.60    3.40
  12   4  -6    4.10    3.40
  12   4  -6    1.30    2.70
  10  -4  -6   72.29    8.40
  10  -4  -6   64.39    5.70
 -10  -4   6   74.89    6.10
  10   4  -6   71.39    6.20
 -10   4   6   65.79   10.40
 -10   4   6   59.19    7.30
  10   4  -6   85.09    6.30
 -10   4   6   66.19    8.30
   8  -4  -6  128.59    9.00
  -8  -4   6  141.19    7.00
   8  -4  -6  122.39    7.30
  -8   4   6  149.99    9.60
  -8   4   6  141.09   11.10
   8   4  -6  133.79    8.40
   8   4  -6  143.39    7.90
   6  -4  -6    0.70    2.70
  -6  -4   6    3.20    2.40
   6  -4  -6   -0.40    2.10
   6   4  -6    4.10    2.30
  -6   4   6    5.40    2.90
  -6   4   6   -0.30    3.20
  -6   4   6    7.20    7.00
   4  -4  -6   24.40    4.20
   4  -4  -6   16.80    4.10
  -4   4   6   22.70    4.70
   4   4  -6   20.70    3.80
  -4   4   6   19.50    4.90
   2  -4  -6    2.60    2.80
   2  -4  -6    4.00    3.10
  -2   4   6    1.50    3.00
   2   4  -6    4.20    2.70
  -2   4   6    7.80    3.90
   0  -4  -6   99.29    7.10
   0   4   6   85.89    7.20
   0   4  -6   94.29    6.60
   0   4   6   91.69    8.00
  -2  -4  -6  154.18    8.70
   2   4   6  160.28   10.40
  -2   4  -6  157.98    8.00
   2   4   6  149.59    9.20
  -4  -4  -6   48.40    6.10
  -4   4  -6   55.69    5.80
   4   4   6   49.10    6.40
   4   4   6   56.79   10.20
  -6  -4  -6    3.40    3.10
  -6   4  -6    6.70    3.00
   6   4   6   -0.70    6.30
   6   4   6    3.10    4.20
  15  -5  -6   31.30    4.70
  15  -5  -6   27.40    6.60
 -15  -5   6   26.70    5.90
  15   5  -6   19.90    4.30
 -15   5   6   13.20    6.00
  15   5  -6   23.40    5.50
 -15   5   6   22.00    6.20
  13  -5  -6   11.70    3.40
 -13  -5   6    6.80    3.90
  13  -5  -6    5.80    5.00
  13   5  -6    4.90    3.30
  13   5  -6   11.90    4.20
 -13   5   6    9.30    4.20
 -13   5   6    9.00    4.60
  11  -5  -6   -1.70    3.70
 -11  -5   6    2.90    3.20
  11  -5  -6   -2.20    1.90
 -11   5   6    2.30    3.70
 -11   5   6    1.90    4.20
  11   5  -6   -1.30    3.10
  11   5  -6    2.90    3.10
 -11   5   6    1.20    2.50
  -9  -5   6    1.20    2.70
   9  -5  -6   -0.20    3.50
   9  -5  -6   -1.30    2.20
  -9   5   6   -0.30    2.10
  -9   5   6    4.70    4.10
   9   5  -6    1.60    2.90
   9   5  -6    0.90    2.80
  -9   5   6    2.60    4.20
  -7  -5   6  130.99    6.10
   7  -5  -6  124.69    9.10
   7  -5  -6  138.79    7.90
  -7   5   6  118.89    7.40
  -7   5   6  141.69    9.80
   7   5  -6  130.89    7.90
  -7   5   6  131.39   15.30
   5  -5  -6    2.90    3.00
   5  -5  -6    2.10    2.90
  -5   5   6   -3.10    2.00
   5   5  -6    6.50    3.20
  -5   5   6    3.20    3.90
  -5   5   6    0.90    3.10
   3  -5  -6   23.60    4.70
   3  -5  -6   28.00    4.70
  -3   5   6   15.30    4.40
   3   5  -6   24.50    3.90
  -3   5   6   34.20    6.10
   1  -5  -6    3.70    2.90
  -1   5   6    3.60    3.20
  -1   5   6    2.80    3.80
   1   5  -6    3.40    2.70
  -1  -5  -6  154.38    8.90
   1   5   6  147.19   10.10
  -1   5  -6  157.88    8.10
   1   5   6  142.49    9.20
  -3  -5  -6    3.00    3.10
  -3   5  -6    5.30    2.90
   3   5   6    1.10    4.00
   3   5   6    0.10    3.00
  -5   5  -6   27.00    4.40
   5   5   6   21.70    5.80
   5   5   6   34.30    6.20
  14  -6  -6    5.00    4.80
 -14  -6   6   10.10    4.40
  14  -6  -6    3.30    2.80
 -14   6   6    8.20    3.40
  14   6  -6   12.00    4.70
 -14   6   6    5.90    4.80
  12  -6  -6    2.80    4.30
 -12  -6   6    3.40    3.50
  12  -6  -6    4.80    3.20
 -12   6   6    3.60    4.00
  12   6  -6    6.20    3.50
 -12   6   6    0.90    2.80
 -12   6   6    4.90    5.00
  12   6  -6    9.00    3.90
  10  -6  -6   -1.40    2.40
 -10  -6   6    2.20    3.00
  10  -6  -6   -2.20    3.60
 -10   6   6   -1.20    3.50
 -10   6   6    4.40    4.10
  10   6  -6    0.20    2.70
 -10   6   6   -2.70    2.40
  10   6  -6    1.40    2.70
   8  -6  -6    2.10    2.70
   8  -6  -6    8.20    3.90
  -8  -6   6    8.80    2.90
   8   6  -6    2.60    2.90
  -8   6   6   -0.90    3.70
  -8   6   6    4.20    3.20
  -8   6   6    3.20    4.50
   6  -6  -6   -0.60    2.40
   6  -6  -6    2.60    3.10
  -6   6   6   -1.10    2.20
  -6   6   6   -4.70    3.20
  -6   6   6   -0.30    3.60
   6   6  -6    3.40    3.10
   4  -6  -6   87.99    7.00
   4  -6  -6   89.29    8.00
   4   6  -6   87.69    6.70
  -4   6   6   67.09    7.90
  -4   6   6   93.29    8.80
   2  -6  -6    2.60    3.00
   2  -6  -6   -0.20    2.80
  -2   6   6   -1.00    2.90
  -2   6   6   -4.80    3.20
   2   6  -6    1.20    2.50
   0  -6  -6   12.10    4.30
   0   6   6   14.80    5.00
   0   6  -6   19.10    4.10
   0   6   6   17.50    5.20
  -2  -6  -6   -2.00    2.80
   2   6   6    0.20    3.90
  -2   6  -6   -0.30    2.50
   2   6   6    0.90    3.40
  -4   6  -6    8.10    3.20
 -13  -7   6   10.00    4.80
  13  -7  -6   14.00    3.90
  13  -7  -6    7.80    5.70
  13   7  -6    6.70    6.90
 -13   7   6   17.70    8.10
  13   7  -6   11.70    4.10
 -13   7   6    7.10    4.90
 -13   7   6    8.10    4.00
 -11  -7   6  104.09    7.20
  11  -7  -6  101.19    7.20
  11  -7  -6   79.29    9.60
 -11   7   6  113.09   10.40
  11   7  -6   96.39    6.70
 -11   7   6   92.39    7.20
  11   7  -6   84.89    9.60
 -11   7   6   75.79    9.20
   9  -7  -6    1.80    3.80
  -9  -7   6    0.30    2.70
   9  -7  -6    2.80    3.10
  -9   7   6    3.60    4.20
  -9   7   6    0.40    3.90
   9   7  -6   -1.90    2.60
  -9   7   6    5.20    5.40
   7  -7  -6   -0.50    3.40
   7  -7  -6    3.40    2.90
  -7   7   6    0.40    3.70
   7   7  -6    2.50    3.00
  -7   7   6   -1.30    5.60
   5  -7  -6   15.40    4.10
   5  -7  -6    3.40    3.70
  -5   7   6   10.60    5.00
  -5   7   6    9.60    4.10
   5   7  -6    5.10    3.30
   3  -7  -6   31.80    6.10
   3  -7  -6   10.70    4.00
  -3   7   6   28.30    6.70
   3   7  -6   16.80    3.90
  -3   7   6   16.60    5.00
   1  -7  -6    3.90    3.30
   1   7  -6    3.20    2.70
  -1   7   6    2.40    4.10
  -1   7   6    2.70    3.40
  -1  -7  -6   -0.90    2.70
   1   7   6    1.30    4.20
   1   7   6    2.30    3.20
  -1   7  -6   -0.10    2.60
 -10  -8   6  104.09    7.00
  10  -8  -6   66.89    8.90
  10  -8  -6  109.09    7.80
 -10   8   6   69.49    9.20
 -10   8   6   70.69   10.60
  10   8  -6   89.49    7.80
   8  -8  -6   12.40    4.10
   8  -8  -6   -1.20    3.90
  -8  -8   6    3.20    2.60
  -8   8   6    4.20    4.30
   6  -8  -6    2.30    3.30
   6  -8  -6    1.80    3.30
  -6   8   6   -1.70    3.50
   6   8  -6   -1.90    2.80
  -6   8   6   -0.60    3.90
   4  -8  -6   21.40    5.30
   4  -8  -6   20.70    4.70
   4   8  -6   27.20    5.00
  -4   8   6   12.70    5.00
  -4   8   6   16.10    5.70
   2  -8  -6   19.30    5.00
   2   8  -6   15.30    3.80
  -2   8   6   21.20    5.90
  -2   8   6   11.80    4.40
  16   0  -7   -4.50    2.50
  16   0  -7   -1.40    4.50
 -16   0   7    1.60    4.40
 -14   0   7   -0.90    3.50
  14   0  -7   -1.00    4.20
  14   0  -7    1.90    2.90
  12   0  -7    1.00    2.60
  12   0  -7    1.20    4.10
 -12   0   7   -0.80    2.00
 -10   0   7    0.10    3.30
  10   0  -7   -2.00    3.60
  10   0  -7   -4.50    2.20
   8   0  -7   -1.70    2.60
  -8   0   7   -1.50    3.00
  -8   0   7    5.60    3.60
   8   0  -7   -0.90    2.30
   6   0  -7   -1.70    2.00
   6   0  -7   -0.50    2.50
  -6   0   7   -3.40    2.60
  -6   0   7   -0.60    3.10
   4   0  -7   -0.60    2.50
   4   0  -7   -0.80    1.90
  -4   0   7    3.30    3.30
  -4   0   7    1.20    2.70
  -2   0   7    0.80    3.40
  -2   0   7   -1.20    2.50
   2   0  -7    0.60    2.50
   0   0   7    1.70    3.50
   0   0   7    3.90    2.70
   0   0  -7    4.00    3.10
   2   0   7    1.40    3.50
  -2   0  -7    1.20    2.90
   2   0   7    0.80    3.50
  15  -1  -7    4.50    3.10
 -15  -1   7    1.70    5.20
  15  -1  -7    0.90    4.60
  15   1  -7   -0.40    2.80
 -15   1   7    3.70    4.50
  15   1  -7    1.00    4.40
  13  -1  -7    9.30    4.90
  13  -1  -7    4.60    3.10
  13   1  -7   12.70    4.80
 -13   1   7    8.50    4.40
  13   1  -7   15.80    4.20
 -11  -1   7    1.90    3.60
  11  -1  -7    3.90    3.90
  11  -1  -7    7.70    3.20
  11   1  -7   11.60    3.60
 -11   1   7    2.20    3.50
  11   1  -7    1.30    3.80
 -11   1   7    1.40    4.70
   9  -1  -7    1.70    3.90
  -9  -1   7    4.30    3.40
   9  -1  -7    6.10    3.40
  -9   1   7    5.80    3.00
   9   1  -7    2.70    3.00
   9   1  -7    3.60    2.70
  -9   1   7    2.00    3.70
  -7  -1   7    3.90    3.20
   7  -1  -7    0.60    2.70
  -7  -1   7    5.60    3.40
   7  -1  -7    0.70    2.50
  -7   1   7    0.90    3.20
   7   1  -7    2.70    2.60
  -7   1   7    6.90    3.40
   7   1  -7   -1.20    2.50
  -5  -1   7    2.40    4.20
   5  -1  -7    1.90    2.40
   5  -1  -7   -2.30    2.50
  -5  -1   7   -1.70    2.60
   5   1  -7    1.40    2.20
  -5   1   7   -1.00    3.00
   5   1  -7   -4.90    2.10
  -5   1   7    4.00    3.80
  -3  -1   7   54.79    5.20
   3  -1  -7   35.80    5.10
  -3  -1   7   40.00    5.30
   3   1  -7   37.00    5.40
  -3   1   7   40.10    5.40
  -3   1   7   43.60    5.80
  -1  -1   7    2.20    2.60
   1  -1  -7    0.90    2.90
  -1  -1   7    1.50    3.00
  -1   1   7    2.90    3.40
  -1   1   7   -1.50    2.60
   1   1  -7    3.30    2.90
  -1  -1  -7    6.10    3.30
   1  -1   7    6.10    2.80
   1  -1   7    8.60    3.70
   1   1   7    1.90    3.70
   1   1   7    2.30    2.80
  -1   1  -7    6.90    3.70
   3  -1   7   78.89    5.90
   3  -1   7   95.09    7.60
  -3  -1  -7   82.79    7.20
  -3   1  -7   91.09    7.30
   3   1   7   86.09    8.20
   3   1   7   62.09    6.70
  16  -2  -7   33.60    5.00
 -16  -2   7   30.10    6.60
  16  -2  -7   26.20    6.70
 -16   2   7   36.70    7.20
  16   2  -7   42.90    7.40
  16   2  -7   40.90    5.60
  14  -2  -7    2.70    3.30
 -14  -2   7    2.70    4.10
  14  -2  -7    3.40    4.70
  14   2  -7    5.20    3.40
  14   2  -7   14.20    5.00
 -14   2   7    6.70    4.80
  12  -2  -7    2.40    4.10
 -12  -2   7    6.90    4.20
  12  -2  -7    0.10    2.80
  12   2  -7   -0.60    2.40
 -12   2   7    1.00    3.90
  12   2  -7   -3.80    3.50
  10  -2  -7    2.60    3.30
  10  -2  -7   -0.40    2.50
 -10  -2   7    1.30    3.40
  10   2  -7   -1.30    2.50
 -10   2   7    3.60    3.70
  10   2  -7    1.70    3.60
 -10   2   7    0.00    3.50
 -10   2   7   -1.70    3.70
   8  -2  -7   21.40    4.60
  -8  -2   7   30.40    4.80
   8  -2  -7   33.60    5.30
   8   2  -7   24.00    4.30
  -8   2   7   28.70    7.70
  -8   2   7   25.70    5.10
  -8   2   7   25.90    5.20
   8   2  -7   23.20    3.80
  -6  -2   7   14.40    3.70
   6  -2  -7    6.50    3.20
  -6  -2   7   12.40    3.70
   6  -2  -7    5.80    3.30
  -6   2   7    7.00    3.90
   6   2  -7    6.30    3.30
   6   2  -7   11.00    2.80
   4  -2  -7    5.10    2.90
   4  -2  -7    7.20    3.50
  -4  -2   7    7.00    3.30
  -4  -2   7    5.50    3.00
  -4   2   7    9.10    3.90
  -4   2   7   13.60    4.50
   4   2  -7   11.40    3.70
  -2  -2   7   -2.30    2.30
  -2  -2   7    0.90    2.90
   2  -2  -7   -1.40    2.50
   2   2  -7   -0.60    2.50
  -2   2   7    1.00    3.00
   0  -2  -7   14.50    4.10
   0  -2   7   11.10    2.80
   0  -2   7   17.50    3.80
   0   2  -7   11.60    3.80
   0   2   7   12.90    4.50
   0   2   7   14.00    4.20
   2  -2   7   47.40    6.00
  -2  -2  -7   54.99    7.00
   2  -2   7   49.70    5.50
   2   2   7   51.49    7.00
  -2   2  -7   52.89    6.40
  15  -3  -7   12.20    7.90
 -15  -3   7   10.30    4.70
  15  -3  -7   10.70    3.80
 -15   3   7   10.40    5.00
  15   3  -7   13.90    5.40
  15   3  -7   12.90    4.20
 -13  -3   7   -0.40    3.60
  13  -3  -7   -0.90    4.30
  13  -3  -7    4.00    3.00
  13   3  -7    0.60    4.30
  13   3  -7    1.80    2.80
 -13   3   7    2.30    4.10
  11  -3  -7   -0.10    3.30
 -11  -3   7   -1.50    3.10
  11  -3  -7   -0.10    2.60
  11   3  -7   -1.80    3.60
 -11   3   7   -1.20    3.50
  11   3  -7    0.30    2.70
 -11   3   7   -3.80    4.00
   9  -3  -7   48.40    6.70
   9  -3  -7   76.69    6.50
  -9  -3   7   63.99    6.50
   9   3  -7   57.69    6.50
  -9   3   7   61.99    7.60
  -9   3   7   58.09    7.40
  -7  -3   7   23.80    4.10
   7  -3  -7   14.10    4.20
   7  -3  -7   10.60    3.80
  -7   3   7   18.10    5.20
   7   3  -7   16.60    2.80
   7   3  -7   20.80    4.20
  -7   3   7   17.80    5.20
   5  -3  -7   -2.20    2.20
  -5  -3   7   -0.80    2.60
   5  -3  -7    1.90    2.70
  -5  -3   7   -0.30    2.70
  -5   3   7    1.80    3.40
   5   3  -7   -1.80    2.40
  -5   3   7    0.00    3.30
   3  -3  -7    0.20    2.50
  -3  -3   7    0.30    2.60
  -3  -3   7    2.10    2.30
   3   3  -7    5.00    3.10
  -3   3   7   -3.40    2.90
   1  -3  -7   97.59    7.60
   1   3  -7   98.59    7.40
  -1   3   7  103.99    8.10
  -1  -3  -7   25.00    5.00
   1   3   7   26.60    5.90
   1   3   7   22.00    5.10
  -1   3  -7   14.40    3.80
  14  -4  -7   10.30    3.80
  14  -4  -7    6.70    5.40
 -14  -4   7    7.80    4.50
  14   4  -7    2.00    3.10
 -14   4   7    4.30    4.90
  14   4  -7    7.00    4.70
  12  -4  -7    0.50    3.00
 -12  -4   7    1.10    3.80
  12  -4  -7    4.90    5.20
  12   4  -7    1.60    3.10
 -12   4   7    2.30    4.50
  12   4  -7    7.90    4.20
 -12   4   7    3.40    4.50
 -10  -4   7    3.70    3.20
  10  -4  -7    0.00    3.30
  10  -4  -7    2.80    2.90
 -10   4   7    0.90    4.10
  10   4  -7   -2.30    3.10
 -10   4   7   -1.50    4.00
  10   4  -7   -1.80    2.30
   8  -4  -7   20.60    5.30
  -8  -4   7   29.50    4.40
   8  -4  -7   21.90    4.50
  -8   4   7   29.10    6.10
  -8   4   7   20.40    5.50
   8   4  -7   21.20    4.10
   6  -4  -7   -2.10    2.70
  -6  -4   7    2.00    2.60
  -6  -4   7    0.20    2.20
   6  -4  -7   -0.70    2.70
  -6   4   7    0.80    3.70
  -6   4   7    5.50    3.80
   6   4  -7    1.10    2.60
   4  -4  -7   34.70    5.90
   4  -4  -7   37.20    5.40
   4   4  -7   42.70    5.70
  -4   4   7   42.70    6.90
  -4   4   7   44.60    6.60
   2  -4  -7    1.30    3.00
   2   4  -7   -0.10    2.70
  -2   4   7   -2.90    3.00
  -2   4   7   -0.90    4.20
   0  -4  -7    1.50    4.00
   0   4   7    0.50    3.30
   0   4   7    6.40    4.30
   0   4  -7    3.80    3.10
 -13  -5   7    5.80    5.20
  13  -5  -7    1.50    5.00
  13  -5  -7    2.70    3.00
 -13   5   7    3.80    4.70
 -13   5   7    3.80    4.70
  13   5  -7    6.90    6.90
  13   5  -7    3.80    3.40
 -11  -5   7   21.30    4.50
  11  -5  -7   21.10    6.00
  11  -5  -7   16.80    4.20
  11   5  -7   12.50    4.20
 -11   5   7   22.30    6.00
 -11   5   7   11.10    5.10
  -9  -5   7   23.20    4.40
   9  -5  -7   23.00    4.60
   9  -5  -7   23.00    5.70
  -9   5   7   12.00    5.00
  -9   5   7   27.90    6.30
   9   5  -7   21.00    4.20
   7  -5  -7    0.20    3.00
   7  -5  -7   -1.90    2.60
  -7  -5   7    1.50    2.50
  -7   5   7   -1.20    3.80
   7   5  -7   -1.50    2.80
  -7   5   7    3.50    4.00
   5  -5  -7   18.40    4.90
   5  -5  -7   18.30    4.50
  -5   5   7   18.30    5.40
   5   5  -7   14.00    4.20
  -5   5   7   18.70    5.30
   3  -5  -7   15.20    4.10
   3  -5  -7   16.00    4.30
  -3   5   7   16.30    5.40
   3   5  -7   18.30    4.30
  -3   5   7   19.40    5.10
   1  -5  -7    0.10    3.20
  -1   5   7    2.40    4.10
  -1   5   7   -4.80    2.70
   1   5  -7    1.20    2.90
 -10  -6   7  115.19    7.10
  10  -6  -7   96.39    7.70
  10  -6  -7  112.49   10.20
 -10   6   7   78.09    9.60
 -10   6   7   84.69    9.60
  10   6  -7   91.49    7.60
   8  -6  -7    1.60    3.10
   8  -6  -7    2.90    4.10
  -8  -6   7    1.90    2.70
  -8   6   7    4.50    4.30
  -8   6   7   -2.90    3.90
   6  -6  -7    2.60    3.70
   6  -6  -7    3.40    3.80
  -6   6   7    4.20    4.60
  -6   6   7    9.50    4.70
   6   6  -7    2.10    2.80
   4  -6  -7    7.10    4.20
   4  -6  -7    4.50    3.90
  -4   6   7    2.50    3.70
  -4   6   7   -4.10    3.60
   4   6  -7    3.20    3.30
   2  -6  -7   28.80    5.40
   2   6  -7   26.50    5.00
  -2   6   7   24.30    5.60
  -2   6   7   17.20    5.90
 -12   0   8  163.08   10.80
  12   0  -8  165.68   10.20
 -10   0   8   16.80    5.00
  10   0  -8   17.00    4.50
  -8   0   8   10.00    4.40
   8   0  -8    1.80    2.90
  -8   0   8   -2.10    4.40
  -6   0   8   54.49    6.70
   6   0  -8   23.90    4.20
  -4   0   8   50.39    5.90
   4   0  -8   36.00    6.10
  -4   0   8   43.40    6.50
  11  -1  -8    1.40    6.00
 -11  -1   8    8.60    4.60
  11  -1  -8    3.80    3.80
  11   1  -8    0.60    3.20
  11   1  -8    5.10    3.60
 -11   1   8    4.50    5.50
  -9  -1   8    3.20    5.90
   9  -1  -8    1.90    3.10
  -9  -1   8   -3.50    3.30
   9   1  -8    1.90    2.90
  -9   1   8   -0.30    3.80
   9   1  -8   -2.70    4.90
  -9   1   8    3.10    4.30
  -7  -1   8   11.00    6.60
  -7  -1   8    3.10    3.80
   7  -1  -8    4.20    3.30
  -7   1   8   10.10    5.70
   7   1  -8    6.10    2.90
  -7   1   8   13.80    4.60
  -5  -1   8   29.70    5.20
  -5  -1   8   30.60    5.20
   5  -1  -8   31.50    6.10
   5  -1  -8   19.20    4.10
  -5   1   8   30.50    5.80
  -5   1   8   32.10    8.00
   5   1  -8   23.00    5.90
  -3  -1   8    0.20    3.40
   3  -1  -8    2.20    3.40
  -3  -1   8   -1.10    2.80
   3   1  -8    1.40    3.40
  -3   1   8    1.90    3.30
  -3   1   8    1.60    3.90
  10  -2  -8    3.60    6.20
  10  -2  -8   -2.90    3.50
 -10   2   8    2.40    4.30
  10   2  -8   -0.40    3.00
  10   2  -8    3.80    3.50
 -10   2   8    2.40    4.50
   8  -2  -8    7.70    3.90
  -8  -2   8    9.20    4.20
   8  -2  -8    8.60    4.20
  -8  -2   8   15.80    4.10
   8   2  -8   19.10    4.60
  -8   2   8   15.20    5.10
   8   2  -8    5.60    2.70
  -6  -2   8    2.70    3.20
   6  -2  -8    0.10    2.80
   6  -2  -8    3.20    2.60
  -6  -2   8   -3.70    3.30
  -6   2   8   -3.20    3.40
   6   2  -8    1.20    3.30
  -4  -2   8   25.30    4.30
   4  -2  -8    8.70    3.90
  -4  -2   8   15.70    4.30
   4   2  -8   15.80    4.70
  -4   2   8   17.40    5.20
  -4   2   8   14.00    4.50
  -9  -3   8   -1.70    3.10
   9  -3  -8    3.20    3.90
   9  -3  -8    1.70    3.30
  -9  -3   8   -2.60    3.50
  -9   3   8   -2.90    4.00
   9   3  -8   -1.20    2.90
   9   3  -8    3.20    2.30
  -9   3   8   -0.90    3.90
   7  -3  -8   -1.00    2.80
   7  -3  -8   -4.50    4.90
  -7  -3   8    3.00    3.40
  -7  -3   8   -0.40    3.00
  -7   3   8   -2.80    3.40
  -7   3   8    0.00    4.70
   7   3  -8   -0.20    2.90
  -5  -3   8    2.90    3.00
   5  -3  -8   -2.10    2.70
   5  -3  -8    0.00    2.80
  -5  -3   8    1.50    3.40
   5   3  -8   -2.30    2.90
  -5   3   8   -1.80    3.70
   0   0   0    0.00    0.00

_computing_structure_solution     'SHELXT 2018/2 (Sheldrick, 2018)'
;
_shelx_hkl_checksum   45204

