 
data_vvm156_a
 
_audit_creation_method            'SHELXL-2018/3'
_shelx_SHELXL_version_number      '2018/3'
_chemical_name_systematic         ?
_chemical_name_common             ?
_chemical_melting_point           ?
_chemical_formula_moiety          ?
_chemical_formula_sum
 'C12 H8 N6 O' 
_chemical_formula_weight          252.24

loop_
 _atom_type_symbol
 _atom_type_description
 _atom_type_scat_dispersion_real
 _atom_type_scat_dispersion_imag
 _atom_type_scat_source
 'C'  'C'   0.0033   0.0016
 'International Tables Vol C Tables 4.2.6.8 and 6.1.1.4'
 'H'  'H'   0.0000   0.0000
 'International Tables Vol C Tables 4.2.6.8 and 6.1.1.4'
 'N'  'N'   0.0061   0.0033
 'International Tables Vol C Tables 4.2.6.8 and 6.1.1.4'
 'O'  'O'   0.0106   0.0060
 'International Tables Vol C Tables 4.2.6.8 and 6.1.1.4'
 
_space_group_crystal_system       monoclinic
_space_group_IT_number            14
_space_group_name_H-M_alt         'P 21/n'
_space_group_name_Hall            '-P 2yn'
 
_shelx_space_group_comment
;
The symmetry employed for this shelxl refinement is uniquely defined
by the following loop, which should always be used as a source of
symmetry information in preference to the above space-group names.
They are only intended as comments.
;
 
loop_
 _space_group_symop_operation_xyz
 'x, y, z'
 '-x+1/2, y+1/2, -z+1/2'
 '-x, -y, -z'
 'x-1/2, -y-1/2, z-1/2'
 
_cell_length_a                    14.0654(12)
_cell_length_b                    4.2550(4)
_cell_length_c                    18.3060(15)
_cell_angle_alpha                 90
_cell_angle_beta                  96.460(3)
_cell_angle_gamma                 90
_cell_volume                      1088.63(16)
_cell_formula_units_Z             4
_cell_measurement_temperature     150(2)
_cell_measurement_reflns_used     9651
_cell_measurement_theta_min       2.9149
_cell_measurement_theta_max       26.1625
 
_exptl_crystal_description        plate
_exptl_crystal_colour             orange
_exptl_crystal_density_meas       ?
_exptl_crystal_density_method     ?
_exptl_crystal_density_diffrn     1.539          
_exptl_crystal_F_000              520
_exptl_transmission_factor_min    0.6037
_exptl_transmission_factor_max    0.7454
_exptl_crystal_size_max           0.272
_exptl_crystal_size_mid           0.025
_exptl_crystal_size_min           0.010
_exptl_absorpt_coefficient_mu     0.108
_shelx_estimated_absorpt_T_min    ?
_shelx_estimated_absorpt_T_max    ?
_exptl_absorpt_correction_T_min   ?
_exptl_absorpt_correction_T_max   ?
_exptl_absorpt_correction_type    multi-scan
_exptl_absorpt_process_details
;
 SADABS 2016/2: Krause, L., Herbst-Irmer, R., Sheldrick G.M. & Stalke D.,
 J. Appl. Cryst. 48 (2015) 3-10
;
_exptl_absorpt_special_details    ?
_diffrn_ambient_temperature       150(2)
_diffrn_radiation_wavelength      0.71073
_diffrn_radiation_type            'MoK\a'
_diffrn_source                    'Incoatec IuS3.0 microfocus X-ray tube'
_diffrn_radiation_monochromator   'Incoatec HELIOS multilayer mirrors'
_diffrn_measurement_device_type   'Bruker D8 Venture diffractometer'
_diffrn_measurement_device        'three-circle diffractometer'
_diffrn_measurement_method        '\w and \f scans'
_diffrn_detector_type             'Bruker PHOTON III area detector'
_diffrn_detector                  PIXEL
_diffrn_detector_area_resol_mean  7.41
_diffrn_reflns_number             9651
_diffrn_reflns_av_unetI/netI      0.0373
_diffrn_reflns_av_R_equivalents   0.0404
_diffrn_reflns_limit_h_min        -17
_diffrn_reflns_limit_h_max        17
_diffrn_reflns_limit_k_min        -5
_diffrn_reflns_limit_k_max        5
_diffrn_reflns_limit_l_min        -22
_diffrn_reflns_limit_l_max        22
_diffrn_reflns_theta_min          1.735
_diffrn_reflns_theta_max          26.410
_diffrn_reflns_theta_full         25.242
_diffrn_measured_fraction_theta_max   1.000
_diffrn_measured_fraction_theta_full  1.000
_diffrn_reflns_Laue_measured_fraction_max    1.000
_diffrn_reflns_Laue_measured_fraction_full   1.000
_diffrn_reflns_point_group_measured_fraction_max   1.000
_diffrn_reflns_point_group_measured_fraction_full  1.000
_reflns_number_total              2245
_reflns_number_gt                 1607
_reflns_threshold_expression      'I > 2\s(I)'
_reflns_Friedel_coverage          0.000
_reflns_Friedel_fraction_max      .
_reflns_Friedel_fraction_full     .
 
_reflns_special_details
;
 Reflections were merged by SHELXL according to the crystal
 class for the calculation of statistics and refinement.
 
 _reflns_Friedel_fraction is defined as the number of unique
 Friedel pairs measured divided by the number that would be
 possible theoretically, ignoring centric projections and
 systematic absences.
;
 
_computing_data_collection        ?
_computing_cell_refinement        ?
_computing_data_reduction         ?
_computing_structure_solution     'SHELXT 2018/2 (Sheldrick, 2018)'
_computing_structure_refinement 'SHELXL-2018/3 (Sheldrick, 2018)'
_computing_molecular_graphics     ?
_computing_publication_material   ?
_refine_special_details           ?
_refine_ls_structure_factor_coef  Fsqd
_refine_ls_matrix_type            full
_refine_ls_weighting_scheme       calc
_refine_ls_weighting_details
'w=1/[\s^2^(Fo^2^)+(0.0533P)^2^+0.2750P] where P=(Fo^2^+2Fc^2^)/3'
_atom_sites_solution_primary      ?
_atom_sites_solution_secondary    ?
_atom_sites_solution_hydrogens    geom
_refine_ls_hydrogen_treatment     constr
_refine_ls_extinction_method      none
_refine_ls_extinction_coef        .
_refine_ls_number_reflns          2245
_refine_ls_number_parameters      172
_refine_ls_number_restraints      0
_refine_ls_R_factor_all           0.0635
_refine_ls_R_factor_gt            0.0421
_refine_ls_wR_factor_ref          0.1162
_refine_ls_wR_factor_gt           0.1044
_refine_ls_goodness_of_fit_ref    1.032
_refine_ls_restrained_S_all       1.032
_refine_ls_shift/su_max           0.000
_refine_ls_shift/su_mean          0.000
 
loop_
 _atom_site_label
 _atom_site_type_symbol
 _atom_site_fract_x
 _atom_site_fract_y
 _atom_site_fract_z
 _atom_site_U_iso_or_equiv
 _atom_site_adp_type
 _atom_site_occupancy
 _atom_site_site_symmetry_order  
 _atom_site_calc_flag
 _atom_site_refinement_flags_posn
 _atom_site_refinement_flags_adp
 _atom_site_refinement_flags_occupancy
 _atom_site_disorder_assembly
 _atom_site_disorder_group
O2 O 0.88968(9) 0.5174(4) 0.38938(7) 0.0527(4) Uani 1 1 d . . . . .
N2 N 0.80723(11) 0.3476(4) 0.36892(9) 0.0433(4) Uani 1 1 d . . . . .
N3 N 0.80828(10) 0.8899(3) 0.59376(7) 0.0295(4) Uani 1 1 d . . . . .
N4 N 0.88740(11) 0.6708(4) 0.45560(8) 0.0430(4) Uani 1 1 d . . . . .
N5 N 0.61026(10) 0.0834(4) 0.37803(8) 0.0317(4) Uani 1 1 d . . . . .
N6 N 0.51717(10) 0.0080(4) 0.38535(8) 0.0387(4) Uani 1 1 d . . . . .
N7 N 0.76494(10) 0.9646(4) 0.65483(8) 0.0350(4) Uani 1 1 d . . . . .
C1 C 0.63963(13) -0.0477(5) 0.31677(9) 0.0359(4) Uani 1 1 d . . . . .
H1 H 0.701024 -0.026022 0.300383 0.043 Uiso 1 1 calc R U . . .
C2 C 0.56498(14) -0.2155(5) 0.28330(10) 0.0393(5) Uani 1 1 d . . . . .
H2 H 0.563293 -0.336016 0.239484 0.047 Uiso 1 1 calc R U . . .
C3 C 0.49091(14) -0.1720(5) 0.32757(10) 0.0411(5) Uani 1 1 d . . . . .
H3 H 0.428967 -0.261456 0.317285 0.049 Uiso 1 1 calc R U . . .
C4 C 0.66013(12) 0.2786(4) 0.43127(9) 0.0292(4) Uani 1 1 d . . . . .
C5 C 0.62328(12) 0.3679(4) 0.49353(9) 0.0319(4) Uani 1 1 d . . . . .
H5 H 0.561899 0.291655 0.501754 0.038 Uiso 1 1 calc R U . . .
C6 C 0.67227(12) 0.5702(4) 0.54695(9) 0.0314(4) Uani 1 1 d . . . . .
H6 H 0.641641 0.625646 0.588802 0.038 Uiso 1 1 calc R U . . .
C7 C 0.76090(11) 0.6880(4) 0.54097(9) 0.0278(4) Uani 1 1 d . . . . .
C8 C 0.80359(12) 0.5963(4) 0.47674(9) 0.0311(4) Uani 1 1 d . . . . .
C9 C 0.75366(12) 0.3949(4) 0.42258(9) 0.0315(4) Uani 1 1 d . . . . .
C10 C 0.89571(12) 1.0298(4) 0.59525(10) 0.0340(4) Uani 1 1 d . . . . .
H10 H 0.938783 1.011315 0.559052 0.041 Uiso 1 1 calc R U . . .
C11 C 0.90964(13) 1.2010(5) 0.65849(10) 0.0358(4) Uani 1 1 d . . . . .
H11 H 0.963684 1.325689 0.675462 0.043 Uiso 1 1 calc R U . . .
C12 C 0.82675(13) 1.1530(5) 0.69299(10) 0.0361(4) Uani 1 1 d . . . . .
H12 H 0.816166 1.245292 0.738626 0.043 Uiso 1 1 calc R U . . .
 
loop_
 _atom_site_aniso_label
 _atom_site_aniso_U_11
 _atom_site_aniso_U_22
 _atom_site_aniso_U_33
 _atom_site_aniso_U_23
 _atom_site_aniso_U_13
 _atom_site_aniso_U_12
O2 0.0368(7) 0.0792(11) 0.0464(8) -0.0212(8) 0.0239(6) -0.0175(8)
N2 0.0320(8) 0.0593(11) 0.0417(9) -0.0091(8) 0.0176(7) -0.0091(8)
N3 0.0270(7) 0.0343(8) 0.0290(7) 0.0028(6) 0.0114(6) 0.0016(6)
N4 0.0346(9) 0.0616(11) 0.0360(9) -0.0085(8) 0.0181(7) -0.0081(8)
N5 0.0272(8) 0.0366(9) 0.0325(8) 0.0026(7) 0.0086(6) -0.0007(7)
N6 0.0291(8) 0.0486(10) 0.0400(9) 0.0021(8) 0.0108(7) -0.0065(8)
N7 0.0349(8) 0.0434(9) 0.0289(8) 0.0004(7) 0.0135(6) 0.0013(7)
C1 0.0363(10) 0.0417(11) 0.0313(10) 0.0014(8) 0.0105(8) 0.0037(9)
C2 0.0437(11) 0.0421(11) 0.0326(10) 0.0036(9) 0.0057(8) 0.0006(9)
C3 0.0403(11) 0.0457(12) 0.0370(10) 0.0045(9) 0.0034(8) -0.0075(9)
C4 0.0261(9) 0.0311(9) 0.0313(9) 0.0050(8) 0.0076(7) 0.0019(7)
C5 0.0259(9) 0.0366(10) 0.0350(9) 0.0048(8) 0.0113(7) 0.0004(8)
C6 0.0279(9) 0.0378(10) 0.0310(9) 0.0035(8) 0.0140(7) 0.0020(8)
C7 0.0265(9) 0.0299(9) 0.0280(8) 0.0047(7) 0.0084(7) 0.0033(7)
C8 0.0266(9) 0.0377(10) 0.0306(9) 0.0049(8) 0.0099(7) 0.0014(8)
C9 0.0280(9) 0.0382(10) 0.0299(9) 0.0030(8) 0.0110(7) 0.0032(8)
C10 0.0279(9) 0.0384(10) 0.0372(10) 0.0037(8) 0.0108(8) -0.0013(8)
C11 0.0316(10) 0.0408(11) 0.0357(10) 0.0009(9) 0.0063(8) -0.0019(8)
C12 0.0386(10) 0.0400(11) 0.0307(9) 0.0002(8) 0.0090(8) 0.0012(9)
 
_geom_special_details
;
 All esds (except the esd in the dihedral angle between two l.s. planes)
 are estimated using the full covariance matrix.  The cell esds are taken
 into account individually in the estimation of esds in distances, angles
 and torsion angles; correlations between esds in cell parameters are only
 used when they are defined by crystal symmetry.  An approximate (isotropic)
 treatment of cell esds is used for estimating esds involving l.s. planes.
;
 
loop_
 _geom_bond_atom_site_label_1
 _geom_bond_atom_site_label_2
 _geom_bond_distance
 _geom_bond_site_symmetry_2
 _geom_bond_publ_flag
O2 N4 1.380(2) . ?
O2 N2 1.382(2) . ?
N2 C9 1.319(2) . ?
N3 C10 1.364(2) . ?
N3 N7 1.3695(18) . ?
N3 C7 1.404(2) . ?
N4 C8 1.320(2) . ?
N5 C1 1.358(2) . ?
N5 N6 1.3693(19) . ?
N5 C4 1.406(2) . ?
N6 C3 1.324(2) . ?
N7 C12 1.323(2) . ?
C1 C2 1.358(3) . ?
C1 H1 0.9500 . ?
C2 C3 1.402(3) . ?
C2 H2 0.9500 . ?
C3 H3 0.9500 . ?
C4 C5 1.358(2) . ?
C4 C9 1.431(2) . ?
C5 C6 1.421(3) . ?
C5 H5 0.9500 . ?
C6 C7 1.359(2) . ?
C6 H6 0.9500 . ?
C7 C8 1.433(2) . ?
C8 C9 1.433(3) . ?
C10 C11 1.363(3) . ?
C10 H10 0.9500 . ?
C11 C12 1.402(2) . ?
C11 H11 0.9500 . ?
C12 H12 0.9500 . ?
 
loop_
 _geom_angle_atom_site_label_1
 _geom_angle_atom_site_label_2
 _geom_angle_atom_site_label_3
 _geom_angle
 _geom_angle_site_symmetry_1
 _geom_angle_site_symmetry_3
 _geom_angle_publ_flag
N4 O2 N2 112.55(12) . . ?
C9 N2 O2 104.52(15) . . ?
C10 N3 N7 111.45(14) . . ?
C10 N3 C7 129.63(15) . . ?
N7 N3 C7 118.91(14) . . ?
C8 N4 O2 104.70(15) . . ?
C1 N5 N6 111.57(15) . . ?
C1 N5 C4 129.84(15) . . ?
N6 N5 C4 118.59(14) . . ?
C3 N6 N5 103.96(15) . . ?
C12 N7 N3 104.19(14) . . ?
C2 C1 N5 107.29(16) . . ?
C2 C1 H1 126.4 . . ?
N5 C1 H1 126.4 . . ?
C1 C2 C3 104.88(17) . . ?
C1 C2 H2 127.6 . . ?
C3 C2 H2 127.6 . . ?
N6 C3 C2 112.29(17) . . ?
N6 C3 H3 123.9 . . ?
C2 C3 H3 123.9 . . ?
C5 C4 N5 122.62(16) . . ?
C5 C4 C9 116.03(16) . . ?
N5 C4 C9 121.34(15) . . ?
C4 C5 C6 123.06(16) . . ?
C4 C5 H5 118.5 . . ?
C6 C5 H5 118.5 . . ?
C7 C6 C5 123.08(16) . . ?
C7 C6 H6 118.5 . . ?
C5 C6 H6 118.5 . . ?
C6 C7 N3 122.60(15) . . ?
C6 C7 C8 116.00(16) . . ?
N3 C7 C8 121.40(15) . . ?
N4 C8 C9 108.97(15) . . ?
N4 C8 C7 130.21(17) . . ?
C9 C8 C7 120.82(15) . . ?
N2 C9 C4 129.74(17) . . ?
N2 C9 C8 109.26(16) . . ?
C4 C9 C8 120.99(15) . . ?
C11 C10 N3 107.06(15) . . ?
C11 C10 H10 126.5 . . ?
N3 C10 H10 126.5 . . ?
C10 C11 C12 104.90(17) . . ?
C10 C11 H11 127.5 . . ?
C12 C11 H11 127.5 . . ?
N7 C12 C11 112.39(16) . . ?
N7 C12 H12 123.8 . . ?
C11 C12 H12 123.8 . . ?
 
_refine_diff_density_max    0.166
_refine_diff_density_min   -0.228
_refine_diff_density_rms    0.044

_shelx_res_file
;
TITL vvm156_a.res in P2(1)/n
    vvm156_a.res
    created by SHELXL-2018/3 at 18:22:28 on 26-Sep-2022
REM Old TITL vvm156 in P2(1)/n
REM SHELXT solution in P2(1)/n: R1 0.162, Rweak 0.003, Alpha 0.013
REM <I/s>   0.338 for  316 systematic absences,  Orientation as input
REM Formula found by SHELXT:  C16 N3
CELL  0.71073  14.0654   4.2550  18.3060   90.000   96.460   90.000
ZERR   22.000   0.0012   0.0004   0.0015    0.000    0.003    0.000
LATT  1
SYMM 1/2-X, 1/2+Y, 1/2-Z
SFAC C H N O
UNIT 48 32 24 4
ACTA
TEMP -123.150
L.S. 10
BOND $H
LIST 4
FMAP 2
PLAN 20
WGHT    0.053300    0.275000
FVAR       0.75778
O2    4    0.889680    0.517387    0.389378    11.00000    0.03677    0.07921 =
         0.04639   -0.02121    0.02393   -0.01751
N2    3    0.807232    0.347594    0.368923    11.00000    0.03200    0.05931 =
         0.04168   -0.00910    0.01757   -0.00909
N3    3    0.808282    0.889922    0.593760    11.00000    0.02699    0.03431 =
         0.02895    0.00281    0.01139    0.00155
N4    3    0.887398    0.670779    0.455600    11.00000    0.03464    0.06164 =
         0.03603   -0.00848    0.01806   -0.00814
N5    3    0.610263    0.083444    0.378025    11.00000    0.02721    0.03659 =
         0.03246    0.00261    0.00855   -0.00071
N6    3    0.517172    0.007974    0.385347    11.00000    0.02908    0.04860 =
         0.04005    0.00212    0.01076   -0.00649
N7    3    0.764943    0.964563    0.654829    11.00000    0.03492    0.04338 =
         0.02887    0.00038    0.01348    0.00130
C1    1    0.639631   -0.047686    0.316774    11.00000    0.03632    0.04166 =
         0.03131    0.00137    0.01053    0.00371
AFIX  43
H1    2    0.701024   -0.026022    0.300383    11.00000   -1.20000
AFIX   0
C2    1    0.564980   -0.215515    0.283299    11.00000    0.04368    0.04209 =
         0.03257    0.00360    0.00572    0.00061
AFIX  43
H2    2    0.563293   -0.336016    0.239484    11.00000   -1.20000
AFIX   0
C3    1    0.490913   -0.172017    0.327568    11.00000    0.04030    0.04570 =
         0.03700    0.00447    0.00345   -0.00746
AFIX  43
H3    2    0.428967   -0.261456    0.317285    11.00000   -1.20000
AFIX   0
C4    1    0.660132    0.278608    0.431273    11.00000    0.02613    0.03106 =
         0.03133    0.00503    0.00760    0.00185
C5    1    0.623277    0.367925    0.493533    11.00000    0.02593    0.03658 =
         0.03499    0.00476    0.01132    0.00035
AFIX  43
H5    2    0.561899    0.291655    0.501754    11.00000   -1.20000
AFIX   0
C6    1    0.672269    0.570178    0.546951    11.00000    0.02790    0.03783 =
         0.03101    0.00350    0.01403    0.00199
AFIX  43
H6    2    0.641641    0.625646    0.588802    11.00000   -1.20000
AFIX   0
C7    1    0.760902    0.687983    0.540966    11.00000    0.02653    0.02993 =
         0.02803    0.00475    0.00845    0.00331
C8    1    0.803588    0.596324    0.476737    11.00000    0.02660    0.03769 =
         0.03056    0.00494    0.00987    0.00138
C9    1    0.753656    0.394927    0.422579    11.00000    0.02801    0.03821 =
         0.02994    0.00303    0.01100    0.00319
C10   1    0.895713    1.029762    0.595247    11.00000    0.02792    0.03838 =
         0.03725    0.00373    0.01082   -0.00127
AFIX  43
H10   2    0.938783    1.011315    0.559052    11.00000   -1.20000
AFIX   0
C11   1    0.909642    1.201043    0.658487    11.00000    0.03159    0.04077 =
         0.03573    0.00091    0.00632   -0.00193
AFIX  43
H11   2    0.963684    1.325689    0.675462    11.00000   -1.20000
AFIX   0
C12   1    0.826750    1.152963    0.692987    11.00000    0.03862    0.04005 =
         0.03068    0.00022    0.00904    0.00115
AFIX  43
H12   2    0.816166    1.245292    0.738626    11.00000   -1.20000
AFIX   0
HKLF 4




REM  vvm156_a.res in P2(1)/n
REM wR2 = 0.1162, GooF = S = 1.032, Restrained GooF = 1.032 for all data
REM R1 = 0.0421 for 1607 Fo > 4sig(Fo) and 0.0635 for all 2245 data
REM 172 parameters refined using 0 restraints

END

WGHT      0.0533      0.2749

REM Highest difference peak  0.166,  deepest hole -0.228,  1-sigma level  0.044
Q1    1   0.7858  0.6105  0.5130  11.00000  0.05    0.17
Q2    1   0.7670  0.3656  0.5420  11.00000  0.05    0.15
Q3    1   0.5624 -0.3890  0.3408  11.00000  0.05    0.14
Q4    1   0.4000 -0.1351  0.3277  11.00000  0.05    0.13
Q5    1   0.8187  0.9199  0.7044  11.00000  0.05    0.13
Q6    1   0.4436  0.2445  0.2983  11.00000  0.05    0.12
Q7    1   0.7773  0.4980  0.4586  11.00000  0.05    0.12
Q8    1   0.8725  0.6614  0.6081  11.00000  0.05    0.12
Q9    1   0.5660  0.3986  0.3594  11.00000  0.05    0.12
Q10   1   0.7642  1.0998  0.7998  11.00000  0.05    0.12
Q11   1   0.9797  0.7079  0.6196  11.00000  0.05    0.12
Q12   1   0.9172  0.9496  0.5407  11.00000  0.05    0.12
Q13   1   0.7179  0.0833  0.3105  11.00000  0.05    0.12
Q14   1   0.6555 -0.1619  0.3816  11.00000  0.05    0.12
Q15   1   0.9581  0.6453  0.5190  11.00000  0.05    0.12
Q16   1   0.5818  0.2146  0.3000  11.00000  0.05    0.11
Q17   1   0.8756  0.8055  0.3223  11.00000  0.05    0.11
Q18   1   0.5051  0.3445  0.5466  11.00000  0.05    0.11
Q19   1   0.9828  1.3567  0.7172  11.00000  0.05    0.11
Q20   1   0.6931  0.8952  0.6530  11.00000  0.05    0.11
;
_shelx_res_checksum   76167

_shelx_hkl_file
;
  -1   0   0   -0.20    0.40
   2   0   0 2313.37   74.39
   2   0   0 2254.07   74.49
  -2   0   0 2264.37   74.39
  -2   0   0 2248.38   74.49
  -3   0   0    0.20    1.40
   3   0   0   -0.30    1.40
   3   0   0   -1.60    1.20
  -3   0   0   -1.50    1.30
  -4   0   0 1291.57   43.80
   4   0   0 1321.27   43.60
   4   0   0 1231.88   43.70
  -4   0   0 1307.07   43.80
  -5   0   0    6.10    2.00
  -5   0   0    1.20    1.90
   5   0   0    2.10    1.50
   5   0   0    0.10    1.70
   6   0   0   26.60    3.20
  -6   0   0   27.70    3.70
   6   0   0   31.80    4.00
  -6   0   0   28.30    3.70
  -7   0   0    1.90    2.40
  -7   0   0    2.40    2.20
   7   0   0    1.00    1.70
   7   0   0    0.70    1.70
  -8   0   0  422.16   17.40
  -8   0   0  406.76   17.10
   8   0   0  387.06   17.00
  -9   0   0   -3.50    1.80
   9   0   0    4.60    2.50
   9   0   0    0.60    2.00
  -9   0   0    0.20    2.10
 -10   0   0  469.65   20.40
 -10   0   0  474.35   19.90
  10   0   0  463.05   20.40
  11   0   0    0.00    2.50
 -11   0   0   -0.70    2.30
 -11   0   0   -1.20    2.70
 -12   0   0   43.80    6.00
 -12   0   0   39.90    6.30
 -13   0   0    0.40    3.60
 -13   0   0    0.70    3.30
 -14   0   0  332.17   16.70
  14   0   0  332.97   17.00
 -14   0   0  296.47   17.50
  15   0   0   -0.80    2.80
 -15   0   0   -0.90    2.90
  16   0   0  116.29   10.10
 -16   0   0   80.79    9.00
 -17   0   0    2.90    3.70
  17   0   0   -0.80    3.30
   0  -1   0    0.10    1.80
   0   1   0   -1.00    1.70
   0   1   0    1.00    1.30
  -1  -1   0  977.50   33.70
  -1  -1   0  987.40   34.20
   1  -1   0  992.30   33.40
  -1   1   0  982.30   33.60
   1   1   0  977.50   34.40
  -1   1   0  999.60   33.20
   1   1   0  973.30   34.20
  -2  -1   0   75.99    5.60
  -2  -1   0   68.09    4.40
   2  -1   0   76.99    4.00
   2  -1   0   77.89    4.40
  -2   1   0   72.19    4.30
  -2   1   0   80.59    3.80
   2   1   0   74.49    4.60
   2   1   0   66.79    5.30
   3  -1   0  336.77   12.30
  -3  -1   0  356.86   14.60
  -3  -1   0  352.76   13.50
   3  -1   0  341.57   13.20
   3   1   0  342.37   13.60
  -3   1   0  352.46   13.10
  -3   1   0  347.97   12.10
  -4  -1   0   88.09    6.40
   4  -1   0   91.29    5.10
   4  -1   0   92.69    4.20
   4  -1   0   90.69    4.30
  -4   1   0   89.49    5.00
   4   1   0   87.39    5.40
   4   1   0   92.29    6.50
   5  -1   0   21.70    3.00
  -5  -1   0   22.60    4.10
   5  -1   0   28.20    2.80
   5  -1   0   21.50    2.20
   5   1   0   32.70    4.50
  -5   1   0   21.80    2.90
   5   1   0   25.70    3.80
   5   1   0   22.10    4.20
   6  -1   0  222.98    9.80
   6  -1   0  223.88    9.40
  -6  -1   0  229.48   11.70
   6  -1   0  233.48   10.10
  -6   1   0  229.48   10.10
   6   1   0  222.48   10.50
   6   1   0  211.18   11.50
   6   1   0  223.78   10.90
   7  -1   0  167.88    7.10
   7  -1   0  148.79    8.10
   7  -1   0  156.28    7.60
  -7  -1   0  145.79    9.60
   7   1   0  175.38    9.90
   7   1   0  159.58    8.60
  -7   1   0  158.38    8.10
   7   1   0  161.98   10.00
   8  -1   0    9.30    2.10
   8  -1   0   10.70    2.80
  -8  -1   0    8.50    3.30
   8   1   0   11.40    3.50
  -8   1   0   10.60    2.70
   8   1   0    5.20    2.80
   8   1   0   13.10    3.70
   9  -1   0  404.86   16.70
   9  -1   0  425.16   15.90
  -9  -1   0  407.46   19.00
   9  -1   0  405.06   17.20
  -9   1   0  427.96   17.40
   9   1   0  394.76   19.10
   9   1   0  387.26   17.60
 -10  -1   0  399.46   19.40
  10  -1   0  430.06   16.40
  10  -1   0  378.96   17.10
  10   1   0  425.46   18.60
 -10   1   0  434.36   18.30
  11  -1   0    4.00    2.60
  11  -1   0    2.90    2.30
 -11  -1   0   -0.10    3.00
  11   1   0    2.50    2.50
 -11   1   0    5.80    3.30
  12  -1   0    6.60    2.90
 -12  -1   0    7.10    4.00
  12  -1   0    3.50    3.10
  12   1   0    5.10    3.20
 -12   1   0    5.10    3.20
  13  -1   0   41.70    5.20
 -13  -1   0   32.10    6.30
  13  -1   0   27.80    5.40
 -13   1   0   36.30    6.00
  13   1   0   33.20    5.70
 -14  -1   0    7.50    4.20
  14  -1   0    1.90    2.90
  14   1   0    4.90    3.60
 -14   1   0    4.10    3.60
 -15  -1   0   32.90    6.70
  15   1   0   45.80    6.80
 -15   1   0   17.60    5.60
 -16  -1   0   11.00    5.00
  16  -1   0    1.30    3.70
  16   1   0    4.30    4.20
 -16   1   0    6.70    5.00
  17  -1   0   10.50    4.60
 -17  -1   0    0.80    4.30
  17   1   0    9.20    5.00
 -17   1   0    7.20    5.20
   0  -2   0  217.78   10.80
   0  -2   0  215.78   10.20
   0   2   0  229.88   10.70
   0   2   0  218.88   10.50
  -1  -2   0    0.60    2.50
   1  -2   0   -0.40    1.40
  -1  -2   0    0.40    1.90
   1  -2   0   -0.10    1.90
  -1   2   0   -0.50    1.90
  -1   2   0   -1.20    1.20
   1   2   0    1.50    2.40
   1   2   0   -0.40    1.40
   2  -2   0   22.50    3.30
  -2  -2   0   22.00    3.60
   2  -2   0   19.30    3.30
  -2  -2   0   18.20    3.80
   2   2   0   25.50    3.90
  -2   2   0   25.00    3.30
  -2   2   0   27.00    3.30
   2   2   0   21.60    4.30
   3  -2   0  415.06   17.20
   3  -2   0  431.16   16.60
  -3  -2   0  436.76   18.90
  -3  -2   0  415.06   17.40
  -3   2   0  436.66   16.00
  -3   2   0  420.26   17.10
   3   2   0  434.16   17.80
   3   2   0  447.86   18.90
   4  -2   0    1.90    1.80
  -4  -2   0   -0.60    2.40
   4   2   0    8.00    2.90
  -4   2   0    1.20    1.50
  -4   2   0    4.90    2.20
   5  -2   0   41.70    4.50
  -5  -2   0   47.30    5.20
  -5  -2   0   44.30    6.10
   5  -2   0   48.50    4.60
   5   2   0   57.59    5.90
   5   2   0   51.39    6.90
  -5   2   0   45.50    3.10
  -5   2   0   56.09    4.70
  -6  -2   0    0.30    3.00
  -6  -2   0    0.40    1.90
   6  -2   0    3.40    2.20
   6   2   0   -0.60    2.50
  -6   2   0    2.00    2.10
   6   2   0    2.60    2.00
   7  -2   0   41.30    4.20
   7  -2   0   43.00    5.60
  -7  -2   0   33.30    6.10
   7  -2   0   38.70    3.40
   7   2   0   45.40    6.20
  -7   2   0   44.00    4.90
  -8  -2   0  250.27   14.30
   8  -2   0  228.48   11.70
   8  -2   0  218.08    9.50
   8  -2   0  223.98    9.70
  -8   2   0  220.28   11.10
   8   2   0  226.38   12.40
   9  -2   0   25.60    3.40
  -9  -2   0   17.20    5.50
   9  -2   0   15.80    2.60
   9   2   0   15.70    4.40
  -9   2   0   13.70    3.30
  10  -2   0   42.60    4.20
  10  -2   0   38.80    4.40
 -10  -2   0   60.09    8.60
 -10   2   0   42.30    6.30
  10   2   0   64.59    8.50
  11  -2   0   46.30    5.10
 -11  -2   0   32.00    7.30
  11  -2   0   31.70    3.70
  11   2   0   30.80    5.10
 -11   2   0   36.70    5.50
 -12  -2   0   38.30    7.80
  12  -2   0   29.10    4.40
  12  -2   0   32.50    3.90
 -12   2   0   34.60    5.80
  12   2   0   26.80    5.90
  13  -2   0   91.39    7.00
 -13  -2   0   79.59   10.50
  13  -2   0   81.79    6.00
  13   2   0   74.29    8.30
 -13   2   0   83.19    8.70
  14  -2   0   21.40    3.80
 -14  -2   0   21.30    6.50
  14  -2   0   21.60    4.60
 -14   2   0   32.20    6.50
  14   2   0   28.90    6.00
  15  -2   0   -0.50    2.50
 -15  -2   0    2.50    4.80
 -15   2   0   -4.30    3.30
  15   2   0    8.10    4.90
 -16  -2   0    5.20    5.70
  16  -2   0    0.60    2.80
  16   2   0    0.20    4.70
 -16   2   0   -0.20    4.60
   0  -3   0    1.80    2.80
   0  -3   0   -2.30    2.80
   0   3   0    0.20    2.40
   1  -3   0   18.50    3.50
   1  -3   0   23.20    5.10
  -1  -3   0   18.00    4.70
  -1  -3   0   14.20    4.20
  -1   3   0   16.90    4.00
  -1   3   0   14.80    3.70
   1   3   0   14.80    4.50
   1   3   0   24.50    4.70
   2  -3   0   23.00    4.00
  -2  -3   0   22.20    5.20
   2  -3   0   34.70    5.10
  -2   3   0   31.70    4.90
  -2   3   0   28.20    4.60
   2   3   0   25.40    4.60
   2   3   0   35.60    6.20
  -3  -3   0   31.10    6.10
   3  -3   0   31.70    4.70
   3  -3   0   18.20    3.60
   3   3   0   28.60    4.40
  -3   3   0   28.70    4.20
  -3   3   0   25.90    4.30
   4  -3   0   45.80    6.90
   4  -3   0   45.70    5.50
  -4  -3   0   38.70    7.60
   4   3   0   41.40    6.90
  -4   3   0   41.90    4.40
  -4   3   0   37.00    4.90
   5  -3   0   21.30    3.80
  -5  -3   0   22.90    5.60
  -5   3   0   15.40    3.40
   5   3   0   16.40    4.40
  -5   3   0   13.70    2.80
  -6  -3   0   15.00    5.00
   6  -3   0    9.80    3.00
  -6   3   0   12.10    2.40
   6   3   0    8.70    3.30
  -6   3   0   10.70    3.20
  -7  -3   0  105.39   11.80
   7  -3   0   95.79    6.20
   7   3   0   73.09    8.80
  -7   3   0   82.49    4.90
   8  -3   0  132.79    7.40
   8  -3   0  126.59    6.60
  -8  -3   0  134.69   11.90
  -8   3   0  146.09    9.30
   8   3   0  129.89   10.30
   9  -3   0   28.10    3.50
   9  -3   0   26.30    3.40
  -9  -3   0   36.10    7.90
   9   3   0   40.60    7.40
  -9   3   0   35.50    5.60
 -10  -3   0    8.10    5.20
  10  -3   0    5.60    2.20
 -10   3   0    5.90    3.90
  10   3   0   12.40    5.40
 -11  -3   0   -1.10    4.70
  11   3   0    1.30    3.50
 -11   3   0    5.90    3.90
 -12  -3   0   42.60    8.70
  12  -3   0   32.70    3.70
  12   3   0   73.09   10.70
 -12   3   0   43.60    6.70
 -13  -3   0    2.10    4.90
  13   3   0    4.50    4.60
 -13   3   0   -0.20    3.70
 -14  -3   0   49.00    9.60
 -14   3   0   58.99    8.40
  14   3   0   62.89   10.10
   0  -4   0   16.90    5.90
   0   4   0    9.60    3.20
  -1  -4   0   10.90    5.10
   1  -4   0   13.80    5.10
   1   4   0    9.20    4.50
  -1   4   0    4.70    3.20
  -2  -4   0   96.69   10.80
   2  -4   0   94.09    9.90
   2   4   0   76.79    9.00
  -2   4   0   96.69    8.50
  -2   4   0   79.99   10.20
  -3  -4   0   44.40    8.00
   3  -4   0   60.69    7.80
   3   4   0   49.80    8.00
  -3   4   0   40.00    6.10
  -3   4   0   52.69    6.70
   4  -4   0   -1.30    3.50
  -4  -4   0    4.10    4.70
   4   4   0   -4.00    2.70
  -4   4   0    1.40    2.90
  -4   4   0   -2.90    3.00
  -5  -4   0   41.50    8.00
   5  -4   0   37.40    6.00
  -5   4   0   54.29    7.50
   5   4   0   48.30    7.60
  -5   4   0   46.80    5.40
  -6  -4   0   12.00    5.90
   6  -4   0   13.60    4.20
   6   4   0    8.20    3.50
  -6   4   0   10.20    4.00
  -6   4   0   13.60    3.30
  -7  -4   0   43.70    9.00
   7  -4   0   30.50    4.90
  -7   4   0   38.20    4.20
  -7   4   0   44.50    7.10
   7   4   0   36.30    6.70
  -8  -4   0    6.20    5.80
   8  -4   0   11.20    3.40
   8   4   0    2.80    4.30
  -8   4   0   10.30    4.20
  -9  -4   0   25.60    8.20
   9  -4   0   21.80    3.50
   9   4   0   40.60    8.70
  -9   4   0   37.50    6.30
 -10  -4   0   24.20    8.10
  10   4   0   13.20    6.10
 -10   4   0   12.10    4.50
 -11  -4   0    7.30    6.10
  11   4   0    5.20    4.70
 -11   4   0   12.10    4.70
   0  -5   0    2.30    5.40
   0   5   0   -1.10    3.40
   1  -5   0    2.50    5.00
  -1  -5   0    0.40    5.40
  -1   5   0    1.90    3.40
   1   5   0   -0.10    3.50
  -2  -5   0   10.80    6.60
   2  -5   0    8.00    5.60
  -2   5   0    7.40    4.80
   2   5   0   14.00    5.00
  -3  -5   0    7.20    6.50
   3  -5   0    4.70    5.10
  -3   5   0    5.20    3.90
   3   5   0    1.10    3.60
  -4  -5   0    2.90    6.50
   4  -5   0    7.30    4.90
   4   5   0    8.00    5.00
  -4   5   0    7.90    4.30
  -5  -5   0   12.40    9.20
   5  -5   0   17.90    5.90
   5   5   0   10.30    4.60
  -5   5   0   13.50    5.10
  -6  -5   0    3.90    6.80
   6  -5   0    6.20    4.30
  -6   5   0    5.90    4.60
   6   5   0    7.20    5.30
 -17   0   1    6.20    4.60
  17   0  -1    2.80    4.20
 -16   0   1    3.10    3.70
  16   0  -1    0.30    3.10
  15   0  -1   42.30    7.30
 -15   0   1   19.40    5.50
 -15   0   1   35.50    6.20
 -14   0   1    0.60    3.00
 -14   0   1    2.20    3.40
 -13   0   1  415.76   20.40
 -13   0   1  414.86   19.70
 -12   0   1    0.90    2.80
 -12   0   1   -0.30    2.80
 -11   0   1  202.58   11.50
 -11   0   1  177.28   10.60
  11   0  -1  167.18   10.80
 -10   0   1   -0.20    2.30
 -10   0   1    2.10    2.50
  -9   0   1  817.92   31.30
   9   0  -1  767.22   31.10
  -9   0   1  859.71   31.10
   9   0  -1  840.42   30.80
   8   0  -1   -0.60    1.60
  -8   0   1   -2.60    1.80
  -8   0   1   -1.00    2.00
   8   0  -1   -1.80    1.50
  -7   0   1 3057.59  101.49
   7   0  -1 3053.99  101.09
  -7   0   1 3015.70  101.19
   7   0  -1 2955.10  101.39
   6   0  -1   -0.20    1.60
  -6   0   1    1.00    2.00
   6   0  -1   -1.10    1.40
  -6   0   1    1.00    1.80
  -5   0   1  114.89    6.10
   5   0  -1  115.09    5.90
  -5   0   1  108.99    6.20
   5   0  -1  111.29    6.00
  -4   0   1   -2.00    1.40
  -4   0   1   -3.30    1.70
   4   0  -1   -1.50    1.30
  -3   0   1    7.90    1.80
  -3   0   1    9.00    2.10
   3   0  -1    7.40    1.90
   3   0  -1   10.80    2.00
   2   0  -1   -0.80    0.80
  -2   0   1   -0.80    0.80
  -2   0   1   -1.30    1.00
   2   0  -1    1.10    0.90
  -1   0   1   16.00    1.30
  -1   0  -1   68.39    3.00
   2   0   1    0.20    1.10
   2   0   1   -0.30    0.80
  -2   0  -1    0.10    1.10
  -2   0  -1    1.50    1.20
  -3   0  -1 5521.95  179.18
  -3   0  -1 5277.67  179.28
   3   0   1 5613.94  179.08
   3   0   1 5544.15  179.48
   4   0   1    0.10    1.50
  -4   0  -1    1.10    1.70
  -4   0  -1    0.90    1.90
   4   0   1    1.20    1.40
   5   0   1   94.99    5.20
  -5   0  -1   94.79    5.60
  -5   0  -1   86.49    5.60
   5   0   1   96.39    5.70
  -6   0  -1    0.50    2.00
   6   0   1    1.60    1.50
  -6   0  -1    0.70    1.90
   6   0   1    1.70    1.70
   7   0   1 1547.35   53.99
  -7   0  -1 1538.15   53.79
   7   0   1 1584.84   53.29
  -7   0  -1 1518.05   53.59
   8   0   1    3.10    2.00
   8   0   1   -0.80    2.00
  -8   0  -1    0.80    2.10
  -8   0  -1   -1.00    1.80
   9   0   1  111.79    7.20
  -9   0  -1  116.39    7.80
  -9   0  -1  112.79    7.90
   9   0   1  121.49    8.10
  10   0   1    2.40    2.60
 -10   0  -1   -0.20    2.30
 -10   0  -1   -0.10    2.20
 -11   0  -1   -0.20    2.50
 -11   0  -1    0.90    2.90
  11   0   1    0.40    2.40
 -12   0  -1    2.10    2.90
 -12   0  -1   -0.60    2.80
 -13   0  -1   -0.10    2.80
  13   0   1    7.80    3.50
 -14   0  -1   -3.00    2.80
  14   0   1   -3.50    2.70
 -15   0  -1   -0.60    3.40
  15   0   1    2.00    3.50
  16   0   1    1.10    3.10
 -16   0  -1    0.30    3.40
 -17   0  -1    0.60    3.60
  17   0   1   -0.30    3.30
  17  -1  -1    7.80    4.40
 -17  -1   1    2.40    4.60
  17   1  -1    6.30    4.30
 -17   1   1    5.80    4.80
  16  -1  -1    0.30    3.30
 -16  -1   1    2.80    4.00
  16   1  -1   -0.70    3.70
 -16   1   1    1.30    4.00
  15  -1  -1   22.10    4.60
 -15  -1   1   21.10    5.80
 -15   1   1   20.20    5.60
  15   1  -1   23.80    6.20
  14  -1  -1   17.00    4.10
 -14  -1   1    9.10    4.50
  14  -1  -1   17.80    4.80
  14   1  -1   14.40    5.30
 -14   1   1   12.90    4.50
  13  -1  -1   -1.30    2.40
  13  -1  -1    3.70    2.90
 -13  -1   1    3.40    3.70
  13   1  -1    2.00    2.80
 -13   1   1   -0.50    3.20
 -12  -1   1   34.00    6.30
  12  -1  -1   55.29    5.50
  12  -1  -1   35.60    5.50
 -12   1   1   47.00    6.60
  12   1  -1   52.69    7.20
  11  -1  -1    2.00    2.30
  11  -1  -1    0.80    2.00
 -11  -1   1    2.90    3.50
  11   1  -1   -0.30    2.20
 -11   1   1    0.80    2.50
  10  -1  -1   13.10    2.70
 -10  -1   1   10.10    3.70
  10  -1  -1    5.90    2.50
  10   1  -1   10.60    3.70
 -10   1   1    3.10    2.40
  -9  -1   1   11.70    4.10
   9  -1  -1    7.90    2.40
   9  -1  -1    5.50    1.80
   9  -1  -1    5.90    2.40
   9   1  -1    8.10    3.00
   9   1  -1    0.30    2.60
  -9   1   1    7.60    2.80
   8  -1  -1  135.09    6.40
   8  -1  -1  143.69    8.00
   8  -1  -1  144.39    7.20
  -8  -1   1  136.79    9.40
  -8   1   1  143.99    7.90
   8   1  -1  140.69    8.40
   8   1  -1  123.89    8.00
   8   1  -1  134.79    9.30
   7  -1  -1  116.49    5.90
  -7  -1   1  103.89    8.00
   7  -1  -1  112.19    6.80
   7   1  -1  111.39    7.00
  -7   1   1  110.19    6.60
   7   1  -1  105.19    7.80
   7   1  -1  113.99    7.90
   6  -1  -1   40.20    2.70
   6  -1  -1   37.10    3.10
  -6  -1   1   41.90    5.80
   6  -1  -1   36.40    3.80
   6   1  -1   45.60    5.00
   6   1  -1   38.00    4.40
   6   1  -1   38.50    5.00
  -6   1   1   42.60    4.20
   5  -1  -1  752.72   25.10
  -5  -1   1  717.13   28.00
   5  -1  -1  761.02   24.80
   5  -1  -1  740.13   26.50
   5   1  -1  723.73   26.80
  -5   1   1  713.73   26.20
   5   1  -1  735.43   28.00
   4  -1  -1  624.84   22.90
   4  -1  -1  673.93   21.40
  -4  -1   1  630.04   22.90
   4  -1  -1  619.34   21.20
  -4  -1   1  602.24   24.20
  -4   1   1  629.04   22.70
   4   1  -1  616.24   24.10
   4   1  -1  639.14   23.10
   4   1  -1  650.53   23.50
  -3  -1   1    6.00    1.80
   3  -1  -1    4.60    1.00
   3  -1  -1    6.10    2.00
  -3  -1   1    8.60    2.80
  -3   1   1    5.00    1.80
  -3   1   1    6.20    0.90
   3   1  -1    4.70    1.60
   3   1  -1    5.20    2.40
  -2  -1   1 1191.68   41.70
   2  -1  -1 1218.88   39.70
   2  -1  -1 1228.58   40.80
  -2  -1   1 1162.88   40.60
  -2   1   1 1208.28   39.60
   2   1  -1 1187.78   40.80
   2   1  -1 1162.58   41.60
  -2   1   1 1228.18   40.80
   1  -1  -1   14.80    2.10
   1  -1  -1   11.90    2.20
  -1  -1   1   18.90    2.90
  -1   1   1   11.10    2.00
   1   1  -1    9.80    2.70
   1   1  -1   12.40    2.10
   0  -1   1   81.29    5.00
   0  -1   1   75.29    4.10
   0  -1  -1   81.69    4.70
   0  -1  -1   78.09    4.50
   0   1   1   77.99    4.60
   0   1  -1   74.39    5.40
   0   1  -1   79.39    4.20
  -1  -1  -1    4.40    1.90
   1  -1   1    2.60    1.90
  -1  -1  -1    5.10    2.10
   1  -1   1    3.60    1.30
  -1   1  -1    3.60    1.90
   1   1   1    1.60    2.10
  -1   1  -1    1.80    1.30
   1   1   1    1.90    1.50
   2  -1   1 8925.01  295.07
  -2  -1  -1 8941.50  296.27
   2  -1   1 9665.33  295.77
  -2   1  -1 9034.20  294.87
  -2   1  -1 8778.02  295.07
   2   1   1 9095.09  296.47
   3  -1   1 1432.66   47.50
  -3  -1  -1 1370.76   48.00
  -3  -1  -1 1449.06   49.00
   3  -1   1 1375.96   47.10
   3   1   1 1422.46   49.10
  -3   1  -1 1419.56   46.90
   3   1   1 1423.16   48.30
   4  -1   1   -1.50    1.10
   4  -1   1   -1.50    1.10
  -4  -1  -1    0.20    1.30
  -4  -1  -1    3.00    2.40
  -4   1  -1   -0.30    1.30
   4   1   1    1.00    2.40
   4   1   1   -0.60    1.10
  -5  -1  -1  141.79    8.50
   5  -1   1  138.59    6.40
  -5  -1  -1  131.89    7.10
   5  -1   1  136.39    6.60
  -5   1  -1  125.49    6.40
   5   1   1  141.49    7.50
   5   1   1  132.29    8.20
  -6  -1  -1    0.10    2.30
   6  -1   1   -0.60    1.40
   6  -1   1    0.90    1.60
   6  -1   1    2.00    1.60
   6   1   1    3.80    2.00
   6   1   1    4.10    2.50
  -6   1  -1    3.50    1.90
   6   1   1   -0.90    2.50
   7  -1   1   54.89    4.00
  -7  -1  -1   55.89    6.20
   7  -1   1   55.49    4.50
   7  -1   1   62.89    4.70
   7   1   1   59.89    5.10
   7   1   1   59.79    6.30
  -7   1  -1   58.39    4.70
   8  -1   1   64.39    5.10
   8  -1   1   61.39    5.10
  -8  -1  -1   84.59    7.10
   8  -1   1   75.89    4.80
  -8   1  -1   73.79    5.50
   8   1   1   49.90    5.60
   8   1   1   64.29    5.50
   8   1   1   60.69    7.70
   9  -1   1    2.20    1.80
   9  -1   1    2.80    2.20
  -9  -1  -1    5.10    3.40
   9  -1   1    4.70    2.50
  -9   1  -1    3.50    2.30
   9   1   1    1.30    1.80
  10  -1   1  114.89    7.80
 -10  -1  -1  125.69    9.60
  10  -1   1  130.09    7.20
  10   1   1  131.19    8.70
 -10   1  -1  117.69    8.10
  11  -1   1   57.29    8.00
  11  -1   1   50.69    5.40
 -11  -1  -1   38.60    6.60
  11   1   1   49.80    7.00
  12  -1   1   82.29    7.40
 -12  -1  -1   85.09    9.60
  12  -1   1   92.19    6.70
  12   1   1   86.19    7.80
 -12   1  -1   92.59    8.00
 -13  -1  -1   15.40    5.10
  13  -1   1   19.00    5.00
  13  -1   1   35.10    5.10
  13   1   1   14.50    4.10
 -13   1  -1   34.40    6.10
  14  -1   1   29.70    5.20
 -14  -1  -1   17.80    5.40
 -14   1  -1   20.90    5.70
  14   1   1   28.10    6.40
  15  -1   1  113.09    8.80
 -15  -1  -1  104.09   11.50
 -15   1  -1   97.59   10.80
  15   1   1  122.29   10.40
 -16  -1  -1   54.69    8.90
  16  -1   1   72.79    8.10
  16   1   1   43.40   13.10
 -16   1  -1   71.79   10.80
  17  -1   1    2.10    4.00
  17   1   1   -1.50    3.50
 -17   1  -1   -1.70    4.70
 -16  -2   1    0.10    4.80
  16  -2  -1    0.60    2.40
  16   2  -1    2.40    4.30
 -15  -2   1    2.40    4.80
  15  -2  -1    5.10    3.30
  15  -2  -1    3.50    2.60
  15   2  -1   11.50    5.50
 -15   2   1    6.50    4.50
  14  -2  -1    1.00    2.00
 -14  -2   1    3.10    4.80
  14  -2  -1    2.00    2.80
  14   2  -1    2.10    3.70
 -14   2   1    2.50    3.70
  13  -2  -1    7.30    2.40
 -13  -2   1   12.20    5.60
  13  -2  -1    9.00    3.10
 -13   2   1   14.50    4.50
  13   2  -1   15.50    5.40
 -12  -2   1   28.40    6.90
  12  -2  -1   29.70    4.20
  12  -2  -1   24.00    3.20
 -12   2   1   22.20    5.10
  12   2  -1   39.80    7.20
  11  -2  -1   51.99    4.60
  11  -2  -1   48.60    3.90
 -11  -2   1   50.29    7.80
  11   2  -1   60.19    7.90
 -11   2   1   44.20    5.80
 -10  -2   1   15.60    5.40
  10  -2  -1   10.20    2.50
  10  -2  -1    8.60    2.00
 -10   2   1    7.20    3.10
  10   2  -1   23.40    5.60
   9  -2  -1   14.00    2.80
  -9  -2   1   24.20    5.70
   9  -2  -1   19.70    3.10
  -9   2   1   26.30    4.30
   9   2  -1   25.60    5.30
  -8  -2   1   44.60    7.50
   8  -2  -1   45.20    3.40
   8  -2  -1   58.89    8.30
   8  -2  -1   46.00    3.20
   8   2  -1   44.60    5.90
  -8   2   1   37.80    4.80
   7  -2  -1   74.79    3.90
   7  -2  -1   64.79    3.80
  -7  -2   1   63.69    7.70
   7  -2  -1   64.09    5.80
   7   2  -1   69.29    6.20
  -7   2   1   65.79    5.60
   6  -2  -1   40.70    2.90
  -6  -2   1   49.00    5.60
  -6  -2   1   54.69    7.40
   6  -2  -1   46.40    3.10
   6  -2  -1   52.99    5.90
  -6   2   1   34.60    4.70
   6   2  -1   55.39    7.60
   6   2  -1   37.70    4.70
  -5  -2   1  148.09    8.40
   5  -2  -1  153.28    6.70
  -5  -2   1  151.08   10.10
   5  -2  -1  150.28    8.40
  -5   2   1  144.29    6.00
  -5   2   1  159.68    8.30
   5   2  -1  151.28   10.00
   5   2  -1  152.88    8.80
  -4  -2   1  159.78    9.90
   4  -2  -1  129.09    7.80
  -4  -2   1  138.09    7.80
   4  -2  -1  142.09    6.60
   4   2  -1  146.09    8.20
  -4   2   1  145.19    6.00
  -4   2   1  134.09    7.70
   3  -2  -1   41.60    5.00
   3  -2  -1   36.70    3.60
  -3  -2   1   36.10    5.40
  -3  -2   1   31.30    3.80
  -3   2   1   33.30    4.50
  -3   2   1   40.20    3.40
   3   2  -1   37.30    5.40
   3   2  -1   36.20    4.50
   2  -2  -1   83.39    5.40
  -2  -2   1   79.89    5.50
  -2  -2   1   85.39    6.80
   2  -2  -1   84.19    5.80
   2   2  -1   73.59    5.60
   2   2  -1   75.19    7.30
  -2   2   1   87.09    5.30
  -2   2   1   86.39    5.90
  -1  -2   1    0.80    1.70
   1  -2  -1    3.50    2.20
  -1  -2   1    1.60    2.50
   1  -2  -1    1.30    1.50
   1   2  -1    0.70    1.40
   1   2  -1    3.70    2.60
  -1   2   1    1.60    1.80
  -1   2   1    5.90    2.30
   0  -2  -1  310.37   13.70
   0  -2   1  309.77   13.30
   0  -2   1  324.47   14.30
   0  -2  -1  348.27   14.10
   0   2  -1  316.37   13.90
   0   2   1  312.47   13.70
   0   2  -1  315.27   13.50
   0   2   1  319.17   13.90
   1  -2   1   -1.50    2.10
  -1  -2  -1    4.90    1.90
  -1  -2  -1    0.80    2.40
   1  -2   1    0.80    1.60
   1   2   1    0.20    2.20
   1   2   1    0.30    1.60
  -1   2  -1    3.10    2.30
  -1   2  -1    1.90    1.80
  -2  -2  -1  143.29    8.10
   2  -2   1  149.99    8.10
  -2  -2  -1  155.88    9.00
   2  -2   1  138.09    7.60
  -2   2  -1  155.68    7.80
  -2   2  -1  154.08    7.60
   2   2   1  141.69    8.90
   3  -2   1  289.97   12.40
  -3  -2  -1  279.97   12.90
   3  -2   1  289.27   12.30
  -3  -2  -1  301.67   14.10
   3   2   1  292.97   13.30
   3   2   1  299.17   14.20
  -3   2  -1  276.77   11.60
  -3   2  -1  279.27   12.20
  -4  -2  -1   38.00    5.70
  -4  -2  -1   50.19    5.60
   4  -2   1   40.20    4.10
   4  -2   1   50.29    5.40
  -4   2  -1   39.40    3.40
   4   2   1   65.79    7.10
  -4   2  -1   49.20    4.20
   5  -2   1    0.50    1.80
  -5  -2  -1   -2.90    1.40
  -5  -2  -1    0.60    2.80
   5  -2   1   -0.10    1.70
   5   2   1    3.80    2.90
  -5   2  -1    0.20    1.40
   5   2   1    0.20    1.90
  -5   2  -1   -0.10    1.70
   6  -2   1  479.55   19.30
   6  -2   1  470.85   18.00
  -6  -2  -1  497.15   20.10
  -6  -2  -1  467.75   21.40
  -6   2  -1  509.05   19.00
  -6   2  -1  457.15   17.30
   6   2   1  472.05   20.30
   6   2   1  486.35   21.80
   7  -2   1    0.60    2.00
   7  -2   1    1.90    1.80
   7  -2   1    1.60    1.70
  -7  -2  -1    6.00    3.80
  -7   2  -1    0.60    1.70
   7   2   1    0.70    2.40
  -8  -2  -1   -4.00    2.70
   8  -2   1    0.50    1.60
   8  -2   1   -1.20    1.80
   8  -2   1   -1.80    1.40
   8   2   1    0.20    1.90
  -8   2  -1   -1.70    2.00
   9  -2   1   17.10    3.20
   9  -2   1    8.60    2.40
  -9  -2  -1    5.80    3.80
   9   2   1   10.80    3.10
  -9   2  -1    8.00    2.70
  10  -2   1   95.59    6.10
  10  -2   1   78.59    6.10
 -10  -2  -1  100.69   11.20
  10   2   1   88.39    8.10
 -10   2  -1   95.49    7.50
  11  -2   1   48.30    4.90
 -11  -2  -1   65.99    8.70
  11  -2   1   66.09    6.50
  11   2   1   47.40    6.20
 -11   2  -1   60.09    6.90
  12  -2   1   91.49    7.30
 -12  -2  -1  107.49   12.30
  12  -2   1  114.39    7.10
 -12   2  -1  113.89    8.90
  12   2   1  110.39    9.60
  13  -2   1   17.90    3.80
  13  -2   1    6.00    4.10
 -13  -2  -1    2.60    4.10
 -13   2  -1   14.60    4.70
  13   2   1   14.10    5.00
  14  -2   1    5.80    3.00
  14  -2   1    7.80    3.80
 -14  -2  -1    2.70    5.20
 -14   2  -1    6.50    4.30
  14   2   1    3.50    4.10
  15  -2   1    8.30    3.50
  15  -2   1    3.70    4.60
  15   2   1    5.70    3.90
 -15   2  -1   12.40    5.10
 -16  -2  -1   -5.30    4.10
  16  -2   1    0.90    3.20
  16   2   1    3.70    4.30
 -16   2  -1    3.40    5.00
 -14  -3   1   64.39   10.90
  14   3  -1   61.39    9.50
 -14   3   1   68.69    9.20
 -13  -3   1    2.00    5.70
  13   3  -1    4.80    5.00
 -13   3   1    0.60    3.60
 -12  -3   1    3.60    5.00
  12   3  -1   -1.50    3.50
 -12   3   1    2.70    3.40
 -11  -3   1   21.50    6.70
 -11   3   1   21.40    5.00
  11   3  -1   19.00    5.50
 -10  -3   1  214.38   15.60
 -10   3   1  213.98   12.20
  10   3  -1  180.58   13.00
  -9  -3   1   62.59    9.20
  -9   3   1   71.69    7.90
   9   3  -1   75.89    9.10
  -8  -3   1   78.89   10.20
   8  -3  -1   62.19    4.20
   8  -3  -1   66.59    3.90
   8   3  -1   47.60    6.20
  -8   3   1   85.19    7.30
  -7  -3   1  304.67   17.50
   7  -3  -1  263.07   12.90
   7   3  -1  269.97   15.20
  -7   3   1  294.17   14.20
   6  -3  -1   -0.10    2.10
  -6  -3   1    3.20    4.10
   6   3  -1    0.80    2.10
  -6   3   1   -0.60    1.40
   5  -3  -1   12.90    3.10
  -5  -3   1    9.10    4.50
  -5   3   1    5.40    2.10
  -5   3   1   10.90    3.60
   5   3  -1   10.00    3.90
   4  -3  -1    5.00    2.60
   4   3  -1    9.40    4.00
  -4   3   1    8.00    2.70
  -4   3   1    2.40    2.40
  -3  -3   1  114.19    9.60
   3  -3  -1   94.79    7.10
  -3   3   1   94.59    6.60
   3   3  -1   94.29    7.50
  -3   3   1   95.09    7.50
  -2  -3   1   34.10    6.20
   2  -3  -1   48.40    5.70
  -2   3   1   34.20    4.70
   2   3  -1   40.80    6.20
   2   3  -1   34.80    5.20
  -2   3   1   33.60    5.30
  -1  -3   1    6.50    3.10
   1  -3  -1    8.60    3.30
  -1  -3   1    1.80    3.40
   1   3  -1   11.40    3.50
   1   3  -1    7.20    3.40
  -1   3   1    5.20    3.00
  -1   3   1    9.80    3.30
   0  -3  -1  380.26   18.00
   0  -3   1  409.36   18.70
   0   3   1  393.56   18.10
   0   3  -1  384.76   17.60
   0   3  -1  393.16   17.80
   0   3   1  413.66   18.00
  -1  -3  -1  124.19    9.10
   1  -3   1  107.89    7.80
   1  -3   1  136.89    9.40
  -1   3  -1  134.69    8.50
   1   3   1  124.19    8.70
   1   3   1  133.59    9.30
  -1   3  -1  122.39    8.30
   2  -3   1   70.59    7.30
   2  -3   1   62.89    6.60
  -2  -3  -1   74.79    8.30
  -2   3  -1   75.69    6.50
   2   3   1   74.89    6.70
   2   3   1   58.39    7.80
  -2   3  -1   76.89    6.30
   3  -3   1   -0.10    2.50
  -3  -3  -1   -1.90    2.90
   3  -3   1    0.60    2.40
   3   3   1    2.50    2.10
  -3   3  -1   -1.50    2.30
  -3   3  -1   -1.00    1.70
   4  -3   1   36.20    5.30
  -4  -3  -1   48.70    7.90
   4  -3   1   45.50    5.70
  -4   3  -1   31.10    4.70
   4   3   1   40.90    6.50
  -4   3  -1   41.70    4.70
   5  -3   1  204.68   12.00
  -5  -3  -1  242.68   14.60
   5  -3   1  240.48   11.90
  -5   3  -1  236.48   11.90
  -5   3  -1  243.18   10.60
   6  -3   1   67.39    5.90
  -6  -3  -1   59.49    8.40
  -6   3  -1   71.19    7.20
  -6   3  -1   43.40    4.50
   6   3   1   80.29    9.70
  -7  -3  -1  274.97   16.50
   7  -3   1  263.47   12.20
  -7   3  -1  252.77   10.90
  -7   3  -1  264.27   13.00
   8  -3   1  139.29    8.20
  -8  -3  -1  139.89   12.30
   8   3   1  142.99   10.90
  -8   3  -1  149.39    9.60
   9  -3   1   36.20    4.10
  -9  -3  -1   32.20    7.10
   9  -3   1   32.10    4.20
   9   3   1   33.30    6.40
  -9   3  -1   46.70    6.10
 -10  -3  -1   72.29   10.50
  10  -3   1   52.09    5.20
  10  -3   1   58.89    5.20
 -10   3  -1   52.59    7.00
  10   3   1   61.59    8.30
  11  -3   1    1.60    2.30
  11  -3   1   -0.40    2.20
 -11  -3  -1   -5.60    4.10
 -11   3  -1   -1.60    2.90
  11   3   1    0.20    3.80
 -12  -3  -1    7.60    5.80
  12  -3   1    7.20    2.60
  12  -3   1    4.60    2.70
 -12   3  -1    3.70    4.00
  12   3   1    3.70    4.30
  13  -3   1    4.70    2.80
 -13  -3  -1    6.70    5.60
  13  -3   1    1.40    2.30
  13   3   1    5.10    4.90
 -13   3  -1    3.80    4.00
  14  -3   1    2.70    2.30
 -14  -3  -1   -6.20    4.50
 -14   3  -1   15.10    5.50
  14   3   1    4.00    4.70
 -11  -4   1    2.10    6.20
  11   4  -1    8.40    5.40
 -11   4   1    9.00    4.70
 -10  -4   1   13.30    7.20
 -10   4   1   19.10    5.50
  10   4  -1    5.10    3.70
  -9  -4   1   36.30   10.00
  -9   4   1   30.50    5.90
   9   4  -1   48.50    8.60
  -8  -4   1    4.60    6.00
   8   4  -1    5.20    3.50
  -8   4   1    1.90    3.90
   7  -4  -1   91.79    6.40
  -7  -4   1   83.89   11.80
   7   4  -1   81.29   10.70
  -7   4   1   85.29    9.00
  -7   4   1   77.09    5.00
  -6  -4   1    6.20    5.20
   6  -4  -1    2.90    3.00
  -6   4   1   -0.70    3.40
   6   4  -1    6.00    3.90
  -6   4   1    3.60    2.40
   5  -4  -1  228.58   12.10
  -5  -4   1  225.68   16.20
  -5   4   1  220.28   10.80
   5   4  -1  229.58   14.40
  -5   4   1  209.78   13.10
  -4  -4   1    6.40    5.30
   4  -4  -1    5.10    3.50
   4   4  -1   -1.70    3.50
  -4   4   1    3.50    3.10
  -4   4   1    0.00    3.20
  -3  -4   1   24.30    6.80
   3  -4  -1   35.80    6.00
  -3   4   1   23.00    5.80
  -3   4   1   22.50    5.10
   3   4  -1   19.70    4.60
   2  -4  -1   48.90    7.10
  -2  -4   1   45.90    8.10
   2   4  -1   56.49    8.20
  -2   4   1   53.89    7.00
  -2   4   1   61.99    8.40
   1  -4  -1   -1.70    3.50
  -1  -4   1    2.10    4.30
   1   4  -1    2.90    3.70
  -1   4   1    1.30    3.10
   0  -4   1  136.59   11.50
   0   4  -1  143.49   10.30
   0   4   1  123.09   10.20
  -1  -4  -1    0.10    3.50
   1  -4   1    2.40    4.80
   1   4   1    0.70    2.80
  -1   4  -1    5.30    3.40
  -2  -4  -1   43.60    7.60
   2  -4   1   42.10    7.20
  -2   4  -1   39.90    6.60
   2   4   1   44.10    7.10
   3  -4   1   -0.30    3.80
  -3  -4  -1   -1.50    4.20
   3   4   1   -3.50    3.10
  -3   4  -1    3.00    3.30
  -3   4  -1   -2.30    3.40
   4  -4   1   27.60    5.60
  -4  -4  -1    6.90    5.10
   4   4   1   11.70    4.50
  -4   4  -1   16.30    4.40
  -4   4  -1   13.10    4.10
  -5  -4  -1   68.89    9.60
   5  -4   1   75.29    8.50
  -5   4  -1   69.29    7.60
   5   4   1   57.39    7.30
  -5   4  -1   63.89    6.60
   6  -4   1   -3.10    2.90
  -6  -4  -1   -0.30    4.80
  -6   4  -1   -3.00    2.80
   6   4   1   -0.40    2.70
  -6   4  -1   -2.20    2.70
   7  -4   1   40.20    5.90
  -7  -4  -1   25.90    7.40
   7   4   1   32.20    6.20
  -7   4  -1   34.50    4.40
  -7   4  -1   38.00    5.90
   8  -4   1   -0.90    2.90
  -8  -4  -1   -2.10    4.50
  -8   4  -1    1.30    2.20
   8   4   1   -2.70    2.90
  -8   4  -1   -1.60    3.30
   9  -4   1   18.90    4.10
  -9  -4  -1   20.10    9.20
   9  -4   1   17.30    3.50
  -9   4  -1   22.00    5.50
 -10  -4  -1   15.50    7.30
  10  -4   1    9.60    2.90
  10  -4   1    5.80    3.00
 -10   4  -1   11.10    4.50
  10   4   1    4.10    3.90
 -11  -4  -1    6.70    6.40
  11   4   1   -2.00    4.00
 -11   4  -1    4.40    4.20
   6  -5  -1    3.10    3.90
  -6  -5   1   -1.20    5.80
  -6   5   1   -2.00    3.80
   6   5  -1   -1.20    4.10
   5  -5  -1    3.30    4.40
  -5  -5   1    6.90    7.30
   5   5  -1   -2.20    3.50
  -5   5   1    2.00    3.80
  -4  -5   1   -0.90    6.30
  -4   5   1    4.40    4.20
  -3  -5   1   12.00    7.20
   3  -5  -1    5.40    4.80
  -3   5   1    8.50    5.00
   3   5  -1    6.60    3.90
   2  -5  -1    0.70    4.70
  -2  -5   1    0.20    5.30
   2   5  -1    1.30    3.50
  -2   5   1    2.10    3.80
  -1  -5   1   -0.90    5.10
   1  -5  -1   -2.70    4.80
   1   5  -1    0.10    4.10
  -1   5   1   -2.60    3.10
   0  -5   1    2.80    5.40
   0  -5  -1    6.00    5.40
   0   5  -1    2.20    4.20
   0   5   1    5.00    3.90
   1  -5   1    9.60    6.20
  -1  -5  -1    4.70    5.80
   1   5   1    6.30    4.70
  -1   5  -1    3.30    3.40
   2  -5   1    7.60    5.90
  -2  -5  -1   14.80    6.70
  -2   5  -1    7.10    4.10
   2   5   1    0.10    4.00
  -3  -5  -1    2.90    6.00
   3  -5   1    4.20    4.90
   3   5   1    0.10    3.40
  -3   5  -1    5.80    4.10
  -4  -5  -1   21.50    8.00
   4  -5   1   38.90    7.70
  -4   5  -1   34.80    6.30
   4   5   1   31.80    6.10
   5  -5   1    1.50    4.30
  -5   5  -1    1.20    4.20
   5   5   1   -7.40    3.50
 -17   0   2    1.60    3.80
  17   0  -2    0.50    3.50
 -16   0   2   19.90    6.00
 -16   0   2   11.10    4.40
  16   0  -2   17.70    5.50
 -15   0   2    3.20    3.40
 -15   0   2   -0.90    3.50
 -14   0   2  504.95   22.90
 -14   0   2  532.35   24.60
 -13   0   2    4.50    3.00
 -13   0   2   -2.10    3.10
 -12   0   2    2.40    2.80
 -12   0   2   -4.80    2.20
  12   0  -2   -2.00    2.30
 -11   0   2   -1.10    2.20
 -11   0   2    3.20    2.60
  11   0  -2    0.50    2.40
  10   0  -2    6.90    3.00
 -10   0   2    7.60    3.20
 -10   0   2    6.80    2.80
   9   0  -2    0.40    2.00
  -9   0   2   -2.10    1.80
  -9   0   2    1.10    2.00
   9   0  -2    0.00    1.60
   8   0  -2  197.08    9.70
  -8   0   2  189.78   10.00
   8   0  -2  178.88    9.70
  -8   0   2  189.28    9.80
   7   0  -2    1.00    1.70
  -7   0   2   -0.60    1.80
  -7   0   2   -2.10    1.80
   7   0  -2   -1.00    1.50
  -6   0   2   52.89    4.50
   6   0  -2   50.49    4.30
   6   0  -2   46.20    4.10
  -6   0   2   58.69    5.20
   5   0  -2   -0.50    1.40
  -5   0   2    0.30    1.50
  -5   0   2   -1.50    1.90
   5   0  -2   -0.20    1.50
  -4   0   2  684.03   24.40
   4   0  -2  696.73   24.40
  -4   0   2  680.23   24.50
   4   0  -2  705.13   25.10
  -3   0   2   -1.50    1.40
   3   0  -2    0.90    1.40
  -3   0   2   -0.70    1.70
   3   0  -2   -3.60    1.40
   2   0  -2 9264.17  324.87
  -2   0   2 8597.04  320.47
  -1   0   2   -0.40    0.60
  -1   0   2   -0.10    0.90
   1   0  -2   -0.40    0.80
   1   0  -2    0.30    0.60
   0   0   2 2375.26   77.59
  -1   0  -2    0.60    0.60
   1   0   2    0.70    0.60
   1   0   2    0.40    0.80
  -1   0  -2    0.70    0.80
   2   0   2    0.40    0.80
  -2   0  -2   -0.50    1.30
   2   0   2    1.80    1.00
   2   0   2    0.10    1.30
   3   0   2   -2.40    1.50
   3   0   2   -0.50    1.00
  -3   0  -2    0.20    1.80
   3   0   2    0.90    1.20
  -4   0  -2   81.59    5.20
  -4   0  -2   95.99    5.30
   4   0   2   93.09    5.40
   4   0   2   92.09    4.80
  -5   0  -2   -1.90    1.70
   5   0   2   -0.20    1.60
  -5   0  -2   -0.80    1.60
   5   0   2   -0.90    1.10
  -6   0  -2    0.80    1.70
   6   0   2   -1.20    1.30
   6   0   2    0.50    1.80
  -6   0  -2    0.90    1.80
   7   0   2    0.10    1.80
  -7   0  -2   -0.70    1.80
   7   0   2    1.80    1.70
  -7   0  -2    1.10    2.30
   8   0   2  149.09    8.90
   8   0   2  149.09    8.10
  -8   0  -2  167.08    9.10
  -8   0  -2  141.49    8.50
  -9   0  -2    1.00    2.40
   9   0   2   -1.10    1.60
  -9   0  -2    1.10    2.40
   9   0   2   -0.80    2.00
 -10   0  -2   72.09    7.90
  10   0   2   63.19    7.30
 -10   0  -2   81.89    6.70
 -11   0  -2   -1.80    2.50
  11   0   2   -1.10    2.30
  12   0   2   41.20    5.60
  13   0   2    0.80    3.00
 -13   0  -2   -1.30    2.70
 -14   0  -2    3.10    3.40
  14   0   2    2.30    2.90
  15   0   2   -2.40    2.70
 -15   0  -2   -1.60    3.30
  16   0   2    4.00    3.60
 -16   0  -2    0.10    3.60
  17   0   2   -0.40    3.80
  17   0   2    2.30    4.00
  17  -1  -2   -1.50    3.40
 -17  -1   2    1.70    4.10
 -17   1   2    2.70    4.60
  17   1  -2   -0.90    4.10
 -16  -1   2    3.70    4.10
  16  -1  -2    2.80    3.90
 -16   1   2    5.40    4.80
  16   1  -2    2.40    3.90
 -15  -1   2  117.39   12.50
  15  -1  -2  131.19    8.60
 -15   1   2  105.79   11.70
  15   1  -2  127.19   10.60
  14  -1  -2   70.39    6.60
 -14  -1   2   63.99    8.80
  14  -1  -2   62.89    7.30
  14   1  -2   58.39    7.30
 -14   1   2   79.89    9.00
 -13  -1   2   21.60    5.70
  13  -1  -2   40.80    4.90
  13   1  -2   18.30    4.30
 -13   1   2   19.50    5.30
 -12  -1   2   -1.80    2.90
  12  -1  -2    2.50    2.40
  12   1  -2   -1.90    2.50
 -12   1   2   -0.70    2.80
 -11  -1   2   12.50    5.10
  11  -1  -2   21.40    3.80
  11   1  -2   12.50    3.20
 -11   1   2   19.40    4.30
 -10  -1   2   26.80    5.60
  10  -1  -2   28.70    4.00
 -10   1   2   26.00    4.80
  10   1  -2   25.40    3.90
  -9  -1   2   62.49    7.60
   9  -1  -2   51.59    5.60
   9  -1  -2   49.20    4.40
   9   1  -2   42.60    6.20
   9   1  -2   66.39    7.20
  -9   1   2   53.49    5.60
   8  -1  -2   90.09    6.40
   8  -1  -2   89.29    5.40
  -8  -1   2   84.19    7.50
   8   1  -2   85.69    7.40
  -8   1   2   92.79    6.30
   8   1  -2   92.39    6.50
  -7  -1   2  895.51   33.80
   7  -1  -2  863.51   32.00
   7  -1  -2  874.31   30.90
  -7   1   2  885.11   32.00
   7   1  -2  863.51   33.60
   7   1  -2  897.31   32.60
   7   1  -2  889.21   32.40
  -6  -1   2   43.90    5.50
   6  -1  -2   40.60    2.50
   6  -1  -2   42.00    4.60
   6  -1  -2   44.30    2.90
   6   1  -2   42.00    4.60
   6   1  -2   43.80    4.60
  -6   1   2   39.90    4.10
   6   1  -2   36.10    5.00
   5  -1  -2  216.58    9.70
   5  -1  -2  213.08    7.80
   5  -1  -2  216.68    7.50
  -5  -1   2  198.68   10.80
  -5   1   2  206.08    9.50
   5   1  -2  190.28   10.50
   5   1  -2  212.28    9.70
   5   1  -2  220.38   10.10
  -4  -1   2   67.39    5.90
   4  -1  -2   65.99    4.60
   4   1  -2   68.69    5.00
   4   1  -2   75.59    5.90
  -4   1   2   74.59    4.70
   4   1  -2   67.09    4.60
  -3  -1   2   87.19    4.90
  -3  -1   2   83.79    6.20
   3  -1  -2   87.59    5.30
   3   1  -2   93.89    6.30
  -3   1   2   83.59    5.10
   3   1  -2   91.49    5.00
  -2  -1   2   31.30    2.80
   2  -1  -2   35.40    2.10
  -2  -1   2   29.80    4.10
   2  -1  -2   34.50    3.10
   2   1  -2   43.30    4.40
  -2   1   2   42.10    3.80
  -2   1   2   30.70    2.20
   2   1  -2   37.30    3.10
  -1  -1   2 1206.38   39.70
   1  -1  -2 1153.38   38.90
  -1  -1   2 1121.19   40.20
   1  -1  -2 1158.18   39.80
  -1   1   2 1198.78   39.00
   1   1  -2 1115.69   40.10
   1   1  -2 1180.08   39.30
  -1   1   2 1166.78   39.80
   0  -1   2   89.19    6.00
   0  -1  -2   88.49    5.00
   0  -1   2   89.39    4.40
   0  -1  -2   96.29    5.20
   0   1   2   93.89    5.20
   0   1  -2   96.69    5.60
   0   1  -2   95.19    4.50
   0   1   2   91.39    5.20
   1  -1   2 3183.08  106.39
  -1  -1  -2 3183.08  107.39
   1  -1   2 3319.87  105.79
  -1  -1  -2 3288.27  106.79
   1   1   2 3243.68  106.79
  -1   1  -2 3207.68  106.29
  -1   1  -2 3195.28  105.79
   1   1   2 3215.78  106.79
   2  -1   2 9568.44  319.87
  -2  -1  -2 9999.00  320.97
   2  -1   2 9986.90  319.57
  -2   1  -2 9645.04  319.37
  -2   1  -2 9894.01  319.77
   2   1   2 9893.01  320.97
   3  -1   2  450.15   17.20
  -3  -1  -2  471.65   18.30
  -3  -1  -2  468.35   17.60
   3   1   2  467.65   17.70
   3   1   2  464.85   18.40
  -3   1  -2  469.15   16.70
  -3   1  -2  468.55   16.50
  -4  -1  -2  263.77   11.00
  -4  -1  -2  256.77   11.90
   4  -1   2  256.47   10.10
   4  -1   2  257.17   10.20
   4   1   2  260.07   12.00
  -4   1  -2  253.57   10.00
  -4   1  -2  237.88    9.90
   4   1   2  274.57   11.30
  -5  -1  -2   14.10    2.50
   5  -1   2   12.00    2.10
  -5  -1  -2   15.00    3.50
   5  -1   2   19.40    2.80
   5  -1   2   10.90    2.20
   5   1   2   10.90    3.20
   5   1   2    7.10    2.00
  -5   1  -2    9.10    2.00
   6  -1   2   42.40    3.90
  -6  -1  -2   38.80    5.00
   6  -1   2   40.20    3.70
   6  -1   2   51.79    4.80
  -6   1  -2   44.30    3.90
   6   1   2   35.60    5.30
   6   1   2   48.10    5.60
   6   1   2   50.39    5.50
   7  -1   2    7.10    2.10
  -7  -1  -2   11.20    3.60
   7  -1   2   13.40    2.50
   7  -1   2   18.10    3.30
   7   1   2    7.70    2.40
  -7   1  -2    5.30    2.00
   7   1   2    8.40    3.00
   7   1   2   10.60    3.30
   8  -1   2    0.70    1.70
  -8  -1  -2    1.40    2.40
   8  -1   2    0.10    1.80
   8  -1   2   -0.70    1.70
   8   1   2    3.30    2.00
   8   1   2   -0.40    2.10
  -8   1  -2    0.00    1.70
   8   1   2   -0.50    2.60
   9  -1   2  363.46   16.20
   9  -1   2  408.96   15.60
   9  -1   2  369.36   16.00
  -9  -1  -2  364.26   18.00
  -9   1  -2  382.26   16.30
  10  -1   2   14.20    3.60
  10  -1   2   14.00    3.30
 -10  -1  -2   11.50    5.00
  10  -1   2   18.50    3.30
 -10   1  -2   15.60    3.80
  10   1   2    9.70    2.90
  11  -1   2    4.60    3.00
 -11  -1  -2   10.40    4.70
  11  -1   2    7.10    2.90
 -11   1  -2    6.50    3.30
  11   1   2    3.40    2.80
  12  -1   2   -1.40    2.70
 -12  -1  -2   -2.70    2.90
  12  -1   2   -3.20    2.30
  12   1   2    2.80    2.60
 -12   1  -2    0.10    3.00
 -13  -1  -2   18.20    5.50
  13  -1   2   22.30    4.60
 -13   1  -2   14.90    5.00
  13   1   2   22.80    5.40
  14  -1   2    2.10    3.30
 -14  -1  -2    3.70    4.30
  14   1   2    1.80    3.10
 -14   1  -2    1.80    3.60
  15  -1   2   24.30    5.50
 -15  -1  -2   17.20    5.70
 -15   1  -2   21.40    6.30
  15   1   2   15.60    4.90
 -16  -1  -2   17.40    6.40
  16  -1   2   26.80    6.00
  16   1   2   -0.60    8.00
 -16   1  -2   19.60    6.10
  16  -2  -2    0.40    2.10
 -16  -2   2   -0.90    4.50
  16   2  -2   -2.90    4.10
 -16   2   2    4.10    4.40
  15  -2  -2   17.80    3.00
  15  -2  -2   22.60    3.80
 -15  -2   2   15.80    6.60
  15   2  -2   28.30    6.90
 -15   2   2   28.90    6.50
 -14  -2   2    1.80    4.40
  14  -2  -2    3.50    2.40
  14  -2  -2   -0.20    1.70
 -14   2   2    0.00    3.60
  14   2  -2   -0.20    3.70
  13  -2  -2    5.80    2.50
  13  -2  -2    4.90    1.90
 -13  -2   2    0.00    4.40
  13   2  -2    3.60    3.40
 -13   2   2    5.10    4.00
 -12  -2   2    1.50    4.30
  12  -2  -2    5.40    2.10
 -12   2   2    8.00    3.70
  12   2  -2    2.20    3.10
 -11  -2   2   18.00    5.90
  11  -2  -2   11.30    2.00
  11   2  -2   11.90    4.10
 -11   2   2   18.40    4.30
  10  -2  -2   15.80    1.90
 -10  -2   2   15.30    5.50
  10  -2  -2   17.50    2.30
 -10   2   2   19.50    4.10
  10   2  -2   17.70    4.30
   9  -2  -2    0.80    1.20
  -9  -2   2   -4.10    3.10
   9  -2  -2   -0.80    0.90
   9   2  -2    0.60    2.70
  -8  -2   2  136.99   11.60
   8   2  -2  127.89   10.00
  -8   2   2  134.69    8.20
   7  -2  -2   71.79    6.20
  -7  -2   2   55.69    7.50
  -7   2   2   77.69    6.00
   7   2  -2   64.39    5.90
  -6  -2   2    9.10    3.00
   6  -2  -2   10.40    2.70
  -6  -2   2    9.40    4.00
   6   2  -2   17.30    4.30
   6   2  -2   14.40    4.10
  -6   2   2   14.90    3.20
   6   2  -2   22.40    4.30
  -5  -2   2   66.79    7.40
   5  -2  -2   66.89    3.40
  -5  -2   2   67.79    5.30
  -5   2   2   66.59    5.40
   5   2  -2   70.99    5.70
   5   2  -2   62.99    7.60
   4  -2  -2    0.70    1.20
  -4  -2   2    2.10    1.90
  -4  -2   2    5.30    2.90
   4  -2  -2   -1.50    1.40
  -4   2   2    1.40    2.00
   4   2  -2    0.10    2.80
   4   2  -2    0.40    1.90
  -4   2   2   -1.20    1.00
  -3  -2   2   -0.10    2.80
  -3  -2   2    2.80    2.00
   3  -2  -2    0.50    1.50
   3  -2  -2    2.50    1.70
   3   2  -2    7.40    2.70
   3   2  -2    8.70    3.10
  -3   2   2    4.10    2.10
  -3   2   2    4.30    1.70
   2  -2  -2  177.38    9.20
  -2  -2   2  184.38    8.80
  -2  -2   2  191.28   10.50
  -2   2   2  177.48    8.20
   2   2  -2  183.28    9.10
   2   2  -2  160.08    9.80
  -2   2   2  180.88    9.20
   1  -2  -2    7.10    2.60
  -1  -2   2    3.00    2.60
   1  -2  -2    2.60    1.90
  -1  -2   2    5.20    2.00
  -1   2   2    5.00    2.30
   1   2  -2    6.80    2.00
  -1   2   2    2.00    1.60
   1   2  -2    5.40    2.70
   0  -2   2   51.39    4.20
   0  -2  -2   55.49    4.80
   0  -2  -2   56.19    5.30
   0  -2   2   55.79    5.90
   0   2   2   47.90    5.20
   0   2  -2   58.79    4.50
   0   2  -2   46.40    5.10
  -1  -2  -2   84.79    6.40
  -1  -2  -2   71.59    5.70
   1  -2   2   80.69    5.20
   1  -2   2   79.19    6.20
  -1   2  -2   85.49    6.00
  -1   2  -2   85.69    5.40
   1   2   2   80.49    6.30
   1   2   2   80.49    5.90
   2  -2   2  168.88    8.50
  -2  -2  -2  183.28    9.40
   2  -2   2  175.88    9.20
  -2  -2  -2  180.98    9.90
   2   2   2  168.98    9.40
  -2   2  -2  175.48    8.50
  -2   2  -2  196.18    8.90
   2   2   2  193.88   10.30
  -3  -2  -2   12.70    3.60
   3  -2   2   11.70    2.80
  -3  -2  -2   11.00    3.70
   3  -2   2    9.80    2.30
   3   2   2   11.30    2.90
  -3   2  -2    7.90    2.20
  -3   2  -2   11.90    2.40
   3   2   2   10.90    3.50
  -4  -2  -2    0.10    2.70
   4  -2   2    1.10    1.80
   4  -2   2    5.00    2.20
  -4  -2  -2    5.60    2.50
  -4   2  -2    1.30    1.70
   4   2   2    2.90    2.90
   4   2   2    3.50    2.30
  -4   2  -2   -0.70    1.60
  -5  -2  -2  181.58   11.10
   5  -2   2  190.58    9.00
  -5  -2  -2  174.58    9.70
   5  -2   2  176.38    9.00
   5   2   2  170.28   11.00
  -5   2  -2  187.48    8.20
  -5   2  -2  195.28    8.90
   6  -2   2   22.20    3.50
   6  -2   2   20.50    3.10
  -6  -2  -2   26.10    5.20
  -6   2  -2   21.10    2.90
  -6   2  -2   26.90    3.50
   6   2   2    7.40    4.40
   6   2   2   14.30    3.00
   7  -2   2   21.60    3.20
   7  -2   2   31.00    3.80
   7  -2   2   23.70    3.90
  -7  -2  -2   24.30    5.40
  -7   2  -2   22.30    3.60
   7   2   2   25.80    4.90
   8  -2   2  106.39    6.50
   8  -2   2  111.19    7.40
  -8  -2  -2  124.99    9.90
   8  -2   2  104.69    6.40
  -8   2  -2  103.29    7.00
   8   2   2  104.69    8.10
   9  -2   2   32.90    4.80
   9  -2   2   32.70    4.50
   9  -2   2   30.40    4.10
  -9  -2  -2   22.30    5.90
  -9   2  -2   36.10    4.80
   9   2   2   52.49    7.40
 -10  -2  -2  352.46   18.80
  10  -2   2  318.87   14.70
  10  -2   2  338.37   14.40
 -10   2  -2  346.07   15.50
  10   2   2  312.47   16.80
  11  -2   2    2.90    2.40
 -11  -2  -2    4.90    4.60
  11  -2   2   -1.30    2.40
 -11   2  -2    4.40    3.20
  11   2   2    7.20    4.10
 -12  -2  -2   40.10    7.70
  12  -2   2   32.50    6.10
  12  -2   2   30.00    4.60
 -12   2  -2   44.80    6.30
  12   2   2   37.80    6.40
 -13  -2  -2    0.40    4.00
  13  -2   2   -0.70    2.70
  13  -2   2    3.30    3.00
 -13   2  -2    6.50    3.80
  13   2   2   -0.70    3.50
 -14  -2  -2    2.80    4.50
  14  -2   2    1.40    2.80
  14  -2   2    2.70    3.70
 -14   2  -2    4.80    4.00
  14   2   2    5.00    4.40
 -15  -2  -2    7.00    5.20
  15  -2   2    8.10    3.70
  15   2   2    9.90    4.80
 -15   2  -2    0.70    4.40
 -14  -3   2  126.79   14.90
 -14   3   2  119.89   10.70
  14   3  -2   98.99   11.40
 -13  -3   2   13.80    6.60
  13   3  -2    6.90    4.80
 -13   3   2   10.00    4.20
 -12  -3   2   41.00    8.90
 -12   3   2   38.80    6.50
  12   3  -2   50.89    8.30
 -11  -3   2    3.50    5.00
 -11   3   2   14.40    4.50
  11   3  -2   11.60    5.00
 -10  -3   2   61.89    9.50
  10   3  -2   93.49   11.00
 -10   3   2   69.89    8.10
  -9  -3   2    7.30    4.70
   9   3  -2    2.00    3.50
  -9   3   2    6.70    3.40
  -8  -3   2    6.90    5.00
   8   3  -2    5.90    3.00
  -8   3   2    4.30    3.10
  -7  -3   2  203.98   14.10
  -7   3   2  189.68   11.10
   7   3  -2  175.48   11.80
   6  -3  -2   77.79    4.50
  -6  -3   2   69.99    9.10
  -6   3   2   80.69    4.40
   6   3  -2   53.49    6.20
  -6   3   2   65.69    6.90
   5  -3  -2   87.79    5.50
  -5  -3   2   86.89    9.90
  -5   3   2   76.99    4.70
  -5   3   2   82.79   12.50
   5   3  -2   93.79    7.70
   4  -3  -2    1.10    2.00
  -4  -3   2    3.90    5.00
   4   3  -2    1.90    2.80
  -4   3   2    2.50    2.20
  -4   3   2    1.80    2.50
  -3  -3   2   50.79    7.80
   3  -3  -2   50.39    5.30
  -3   3   2   40.70    5.30
  -3   3   2   50.59    4.90
   3   3  -2   39.80    5.10
  -2  -3   2   18.60    5.10
  -2  -3   2   30.70    5.20
   2  -3  -2   28.20    4.40
  -2   3   2   22.70    3.90
  -2   3   2   30.20    5.30
   2   3  -2   29.00    5.20
  -1  -3   2   28.40    4.70
   1  -3  -2   39.90    5.30
  -1  -3   2   33.00    5.90
   1   3  -2   27.70    5.40
  -1   3   2   31.40    4.80
  -1   3   2   29.70    4.40
   1   3  -2   42.60    5.70
   0  -3  -2  226.88   12.10
   0  -3   2  183.98   10.50
   0  -3   2  213.68   12.50
   0   3   2  216.18   12.00
   0   3  -2  207.98   11.70
   0   3   2  218.38   11.70
   0   3  -2  221.78   11.40
   1  -3   2   55.09    6.90
   1  -3   2   63.89    6.80
  -1  -3  -2   68.99    7.60
   1   3   2   72.49    7.90
  -1   3  -2   64.59    6.90
  -1   3  -2   55.89    7.30
   2  -3   2   12.20    3.60
  -2  -3  -2    9.80    3.90
   2  -3   2   10.70    3.70
   2   3   2    9.60    3.80
   2   3   2    5.80    4.00
  -2   3  -2    8.10    2.70
  -2   3  -2    7.10    3.30
  -3  -3  -2   67.39    7.80
   3  -3   2   55.79    6.40
   3  -3   2   55.99    6.10
  -3   3  -2   50.89    5.60
  -3   3  -2   51.29    5.60
   3   3   2   51.59    6.50
   4  -3   2  107.99    7.90
   4  -3   2   93.89    7.20
  -4  -3  -2  111.49   11.90
  -4   3  -2  103.39    7.20
   4   3   2  107.69    8.50
  -4   3  -2  100.39    6.80
  -5  -3  -2   20.10    5.30
   5  -3   2   31.50    5.00
   5  -3   2   16.80    3.70
  -5   3  -2   24.50    3.90
  -5   3  -2   24.00    4.10
   5   3   2   25.50    5.50
   6  -3   2   23.50    4.60
  -6  -3  -2   26.40    6.30
   6  -3   2   26.40    4.60
  -6   3  -2   21.40    4.10
   6   3   2   15.50    3.60
  -6   3  -2   21.90    3.50
  -7  -3  -2  300.07   17.60
   7  -3   2  304.87   13.90
  -7   3  -2  285.07   12.40
   7   3   2  286.47   16.10
  -7   3  -2  304.37   14.00
   8  -3   2    2.50    2.50
  -8  -3  -2   -3.80    3.30
  -8   3  -2   -0.60    2.50
   8   3   2   -1.70    2.10
  -9  -3  -2    1.20    4.60
   9  -3   2    3.30    2.70
   9  -3   2    6.40    2.80
  -9   3  -2    1.40    2.90
   9   3   2   -0.60    2.70
 -10  -3  -2   -1.20    4.10
  10  -3   2   -1.60    2.30
  10  -3   2    2.40    2.60
  10   3   2    0.60    3.10
 -10   3  -2   -0.30    2.80
  11  -3   2    0.70    2.60
  11  -3   2    3.60    2.70
 -11  -3  -2   -0.60    4.60
 -11   3  -2    3.70    3.40
  11   3   2    1.50    3.40
  12  -3   2   -0.40    2.70
 -12  -3  -2    3.20    5.20
  12  -3   2   -0.10    2.50
 -12   3  -2    3.60    3.60
  12   3   2    7.90    3.90
 -13  -3  -2   21.30    7.10
  13  -3   2    6.10    3.00
  13  -3   2    8.30    4.50
 -13   3  -2    7.60    4.70
  13   3   2    5.20    5.30
 -14  -3  -2   11.40    6.40
  14  -3   2    4.50    3.00
  14   3   2    5.70    4.90
 -14   3  -2    5.00    4.50
 -11  -4   2    6.00    6.00
  11   4  -2   -3.20    3.20
 -11   4   2    0.90    3.90
 -10  -4   2   11.10    6.60
 -10   4   2   13.70    4.80
  10   4  -2    8.40    4.30
  -9  -4   2   -0.80    8.20
  -9   4   2    1.80    3.60
   9   4  -2    2.80    3.40
  -8  -4   2    4.70    6.20
   8   4  -2    0.60    2.90
  -8   4   2    8.70    4.50
  -7  -4   2  106.09   13.00
  -7   4   2   72.09    8.30
   7   4  -2   91.39   11.40
   6  -4  -2    1.60    2.50
  -6  -4   2   -4.70    4.00
   6   4  -2    1.80    2.90
  -6   4   2    3.50    4.20
  -6   4   2    0.20    2.00
  -5  -4   2  186.38   14.60
   5  -4  -2  165.78    9.70
  -5   4   2  170.48    8.90
  -5   4   2  178.58   11.90
   5   4  -2  188.28   12.60
  -4  -4   2    9.90    5.30
   4  -4  -2    2.50    3.10
  -4   4   2    7.80    4.10
   4   4  -2    1.70    3.00
  -4   4   2   -3.10    2.90
  -3  -4   2   82.49   11.00
   3  -4  -2   79.49    8.00
  -3   4   2   69.19    8.60
   3   4  -2   83.29    9.90
  -3   4   2   71.29    8.00
  -2  -4   2   -2.80    4.20
   2  -4  -2   -2.00    3.30
   2   4  -2    1.70    3.20
  -2   4   2   -0.30    3.50
  -2   4   2    1.90    2.90
  -1  -4   2   38.90    7.60
   1  -4  -2   42.90    7.10
   1   4  -2   38.30    6.40
  -1   4   2   31.40    6.10
   0  -4  -2   49.50    7.50
   0  -4   2   65.39    9.00
   0   4  -2   44.20    6.10
   0   4   2   26.00    4.80
  -1  -4  -2    6.80    4.40
   1  -4   2    6.00    4.60
   1   4   2    1.30    3.10
  -1   4  -2    8.60    3.90
   2  -4   2   35.30    6.90
  -2  -4  -2   36.50    7.00
   2   4   2   20.00    4.50
  -2   4  -2   20.20    4.50
  -3  -4  -2   27.60    6.70
   3  -4   2   25.70    6.00
  -3   4  -2   32.90    5.60
   3   4   2   31.10    7.30
  -4  -4  -2    1.30    4.60
   4  -4   2    9.80    4.50
   4   4   2    9.60    4.90
  -4   4  -2    6.90    3.70
  -4   4  -2    2.90    3.50
  -5  -4  -2    8.30    5.50
   5  -4   2    5.00    4.10
  -5   4  -2    5.80    3.50
  -5   4  -2    6.10    3.50
   5   4   2    7.30    4.10
   6  -4   2   40.00    6.20
  -6  -4  -2   31.30    7.20
  -6   4  -2   51.09    6.70
  -6   4  -2   23.60    4.30
   6   4   2   36.10    7.50
   7  -4   2    0.20    3.40
  -7  -4  -2    1.10    4.70
   7   4   2    4.60    4.00
  -7   4  -2    3.80    3.50
  -7   4  -2    0.00    3.20
   8  -4   2   -3.90    3.00
  -8  -4  -2   -3.60    4.50
  -8   4  -2    1.40    2.60
   8   4   2   -4.40    3.20
  -8   4  -2    2.40    3.40
   9  -4   2   18.60    4.30
   9  -4   2   21.00    4.70
   9   4   2   33.90    8.30
  -9   4  -2   30.70    5.40
  10  -4   2    3.40    3.40
 -10  -4  -2    3.90    5.30
  10   4   2    2.40    5.20
 -10   4  -2   -4.90    3.20
 -11  -4  -2    1.00    5.20
  11  -4   2    3.40    3.20
 -11   4  -2    2.10    4.10
  11   4   2   -0.30    3.50
  -6   5   2    3.90    4.90
   6   5  -2    6.70    4.30
   5  -5  -2   29.40    5.60
  -5  -5   2   29.40    9.30
   5   5  -2   41.60    8.70
  -5   5   2   47.70   12.80
  -4  -5   2    9.80    6.90
   4  -5  -2    8.20    4.90
   4   5  -2    7.80    4.80
  -4   5   2   19.50    5.40
  -3  -5   2   16.90    7.70
   3  -5  -2   27.20    6.70
  -3   5   2   27.20    7.60
   3   5  -2   20.60    6.40
  -2  -5   2    4.80    6.80
   2  -5  -2    7.30    5.70
  -2   5   2    0.80    4.00
   2   5  -2    2.90    4.40
  -1  -5   2   -1.40    5.10
   1  -5  -2    9.90    5.40
   1   5  -2    6.00    4.60
  -1   5   2   -3.10    3.70
   0  -5   2   -1.10    5.30
   0  -5  -2   -4.60    4.70
   0   5  -2   -0.50    3.60
   0   5   2   -3.50    2.90
  -1  -5  -2   -4.90    4.50
   1  -5   2   -5.00    4.90
  -1   5  -2   -3.30    3.20
   1   5   2    5.70    5.60
  -2  -5  -2    4.20    5.50
   2  -5   2   14.20    6.50
  -2   5  -2    2.70    4.20
   2   5   2    4.30    4.80
  -3  -5  -2   49.40    9.80
   3  -5   2   34.70    7.90
   3   5   2   62.29    9.90
  -3   5  -2   38.50    6.60
  -4  -5  -2   -3.90    5.50
   4  -5   2    0.70    5.00
   4   5   2   -4.40    3.80
  -4   5  -2   -5.30    3.40
   5  -5   2    2.30    5.00
   5   5   2    5.30    4.10
  -5   5  -2    3.60    3.90
 -17   0   3   11.60    5.70
  17   0  -3    9.50    4.10
 -17   0   3    8.10    4.30
 -16   0   3   -0.40    4.30
 -16   0   3   -0.20    3.30
 -15   0   3   41.80    6.60
 -15   0   3   39.20    7.30
 -14   0   3    1.70    3.00
 -14   0   3    0.70    3.10
 -13   0   3   90.29    8.10
 -13   0   3   99.39    8.90
 -12   0   3    0.80    2.60
 -12   0   3    3.50    3.00
  12   0  -3   -2.00    2.30
 -11   0   3   58.29    6.80
  11   0  -3   71.99    7.80
 -11   0   3   79.89    7.90
  10   0  -3   -1.80    1.80
 -10   0   3   -2.20    2.00
 -10   0   3   -3.10    1.90
  -9   0   3  565.74   22.60
   9   0  -3  573.44   22.60
  -9   0   3  553.64   23.00
   9   0  -3  572.14   22.80
  -8   0   3   -1.10    2.10
   8   0  -3    0.30    1.80
  -8   0   3    0.80    2.00
   8   0  -3    1.70    1.80
   7   0  -3    2.60    1.90
   7   0  -3    1.80    1.60
  -7   0   3   -1.90    2.00
  -7   0   3    1.80    2.10
  -6   0   3    1.30    1.60
  -6   0   3   -1.10    1.70
   6   0  -3   -1.50    1.40
   6   0  -3   -0.40    1.40
  -5   0   3  183.98    8.50
  -5   0   3  192.88    8.70
   5   0  -3  187.98    8.40
   5   0  -3  169.48    8.30
  -4   0   3   -1.50    1.60
   4   0  -3   -0.10    1.20
  -4   0   3    0.90    1.50
   3   0  -3 3510.25  115.29
   2   0  -3   -0.10    1.50
  -2   0   3   -0.40    1.50
   2   0  -3    1.60    1.20
  -2   0   3   -1.40    1.00
   1   0  -3  908.81   30.00
  -1   0   3  916.21   30.00
   1   0  -3  893.11   30.20
  -1   0   3  885.11   30.30
   0   0  -3    0.20    1.00
   0   0  -3    0.50    0.70
   0   0   3    1.20    0.80
   0   0   3    0.20    1.00
  -1   0  -3   91.19    3.60
  -1   0  -3   82.59    4.10
   1   0   3   86.29    3.50
   1   0   3   79.89    4.10
  -2   0  -3   -0.60    0.90
   2   0   3   -1.20    0.80
   2   0   3    4.10    1.80
   2   0   3   -0.50    1.40
   3   0   3  999.10   33.10
   3   0   3  947.31   32.90
  -3   0  -3  972.60   33.80
   3   0   3  985.90   33.90
   4   0   3   -0.90    0.90
  -4   0  -3   -0.90    1.60
   4   0   3    1.50    1.30
   4   0   3   -2.30    1.50
   5   0   3  323.17   13.50
  -5   0  -3  322.97   13.30
   5   0   3  333.07   12.50
   5   0   3  285.07   12.20
  -6   0  -3    0.90    1.90
   6   0   3   -0.80    1.20
   6   0   3    0.00    1.10
   6   0   3   -0.70    1.80
   7   0   3  423.36   17.30
   7   0   3  466.25   17.50
  -7   0  -3  438.86   18.20
   7   0   3  447.86   18.60
   8   0   3   -1.10    1.40
   8   0   3   -1.70    1.40
  -8   0  -3   -0.90    2.10
   8   0   3   -2.20    1.80
   9   0   3    5.50    2.40
  -9   0  -3    8.00    3.00
   9   0   3    2.10    2.40
   9   0   3    9.80    2.70
  10   0   3   -1.20    1.60
  10   0   3   -1.00    2.30
 -10   0  -3    1.60    2.80
 -11   0  -3  279.37   14.50
  12   0   3   -1.10    2.30
 -12   0  -3   -0.60    2.70
 -13   0  -3   17.10    4.80
  13   0   3   19.70    4.40
 -14   0  -3   -2.30    3.00
  14   0   3   -4.30    2.70
  15   0   3   88.39    9.90
  16   0   3    3.00    3.90
  16   0   3   -1.40    3.00
  17   0   3    0.50    3.80
  17   0   3    6.70    4.70
 -17  -1   3   -1.10    3.90
  17  -1  -3   -0.10    3.70
 -17   1   3   -0.30    4.00
  17   1  -3   -0.20    3.70
  16  -1  -3    3.20    3.30
 -16  -1   3   -2.50    3.80
  16   1  -3    4.90    4.20
 -16   1   3    9.10    4.80
  15  -1  -3    0.00    3.10
  15  -1  -3   -1.30    2.60
 -15  -1   3    2.20    3.80
  15   1  -3    2.00    3.40
 -15   1   3    4.80    4.00
  14  -1  -3    8.50    3.50
 -14  -1   3    2.80    4.10
 -14   1   3    7.80    4.30
  14   1  -3   11.10    4.90
  13  -1  -3  100.19    7.70
 -13  -1   3  112.99   11.90
 -13   1   3  110.89    9.20
  13   1  -3  124.99    9.60
  12  -1  -3  516.95   21.10
 -12  -1   3  512.65   24.00
 -12   1   3  516.35   20.20
 -12   1   3  521.15   22.90
  12   1  -3  530.45   23.20
  11  -1  -3   60.19    5.90
  11   1  -3   58.39    6.50
 -11   1   3   57.59    4.70
 -11   1   3   58.89    7.10
 -10  -1   3   78.29    8.50
  10  -1  -3   67.29    5.10
 -10   1   3   76.29    4.90
  10   1  -3   75.99    6.60
  -9  -1   3  144.49   10.00
   9  -1  -3  149.19    7.30
   9   1  -3  139.99    9.70
   9   1  -3  147.39    8.80
  -9   1   3  136.39    8.50
  -9   1   3  136.59    6.80
  -8  -1   3   -1.10    2.10
   8  -1  -3    1.90    1.50
   8  -1  -3   -0.70    2.00
  -8   1   3   -0.40    1.80
   8   1  -3    0.50    1.90
  -8   1   3    1.40    1.30
   8   1  -3   -0.10    2.40
   8   1  -3    1.10    1.80
   7  -1  -3   81.99    4.30
  -7  -1   3   86.09    7.20
  -7   1   3   79.99    4.10
   7   1  -3   73.79    5.80
   7   1  -3   71.79    6.60
  -7   1   3   86.59    5.80
   7   1  -3   78.19    5.70
  -6  -1   3    8.60    3.30
   6  -1  -3    7.90    1.40
   6  -1  -3    7.20    2.20
   6   1  -3    8.40    2.50
  -6   1   3    8.90    2.40
   6   1  -3   12.40    3.10
   6   1  -3    5.60    3.00
   5  -1  -3  974.50   35.10
  -5  -1   3  960.00   36.40
   5   1  -3  996.80   36.40
   5   1  -3 1002.20   35.10
   5   1  -3  995.90   35.30
  -5   1   3 1016.60   35.00
   4  -1  -3    0.60    1.80
  -4  -1   3    3.00    2.50
   4   1  -3   -0.70    1.50
   4   1  -3    2.40    2.40
  -4   1   3    2.60    1.80
   4   1  -3    1.60    1.40
   3  -1  -3    0.40    1.30
  -3  -1   3    1.40    2.50
   3   1  -3   -0.50    1.60
   3   1  -3    1.30    1.20
  -3   1   3   -0.40    1.70
   3   1  -3    0.30    1.90
   2  -1  -3 1545.85   52.69
  -2  -1   3 1565.34   51.99
  -2  -1   3 1524.75   53.49
  -2   1   3 1562.84   51.19
   2   1  -3 1511.25   53.29
  -2   1   3 1610.34   52.69
   1  -1  -3   -1.00    1.40
  -1  -1   3    1.60    1.10
  -1  -1   3    5.20    2.60
   1  -1  -3    2.20    2.10
  -1   1   3   -2.20    1.50
  -1   1   3    1.20    1.70
   1   1  -3    0.80    1.20
   1   1  -3    0.40    2.20
   0  -1   3 7005.00  234.88
   0  -1  -3 7439.76  234.48
   0   1   3 7094.89  235.08
   0   1  -3 7203.28  234.88
  -1  -1  -3 3412.36  108.09
  -1  -1  -3 3217.48  108.09
   1  -1   3 3195.78  107.89
   1  -1   3 3294.07  106.69
   1   1   3 3301.77  108.19
  -1   1  -3 3212.18  107.69
  -1   1  -3 3204.68  106.69
   1   1   3 3287.87  108.09
   2  -1   3 4473.25  147.89
  -2  -1  -3 4546.45  148.69
   2  -1   3 4511.05  146.89
  -2  -1  -3 4519.15  148.29
   2   1   3 4560.14  148.79
  -2   1  -3 4355.76  147.69
   2   1   3 4536.15  148.49
  -2   1  -3 4538.55  146.79
  -3  -1  -3    6.60    2.30
   3  -1   3    9.50    2.00
   3  -1   3    8.70    1.50
  -3  -1  -3    8.20    2.30
  -3   1  -3    9.00    1.60
  -3   1  -3    7.90    2.00
   3   1   3    7.70    2.00
   3   1   3   12.50    3.00
   4  -1   3    0.70    1.30
   4  -1   3   -0.80    1.00
  -4  -1  -3   -0.70    1.60
  -4  -1  -3   -1.80    1.90
  -4   1  -3    1.90    1.40
   4   1   3   -2.00    1.70
  -4   1  -3   -1.50    1.10
   4   1   3   -0.20    2.20
   5  -1   3  625.84   22.70
   5  -1   3  620.34   22.30
  -5  -1  -3  614.04   24.50
  -5  -1  -3  599.64   23.30
   5   1   3  653.83   24.80
   5   1   3  635.94   23.70
  -5   1  -3  644.14   22.30
  -6  -1  -3   21.30    3.10
   6  -1   3   33.50    3.50
  -6  -1  -3   24.90    4.20
   6  -1   3   31.80    3.90
   6  -1   3   28.00    3.10
  -6   1  -3   27.00    3.10
   6   1   3   30.40    4.20
   6   1   3   27.70    4.70
  -7  -1  -3  138.89    9.30
   7  -1   3  143.29    7.40
   7  -1   3  153.58    7.60
   7  -1   3  156.28    8.20
  -7   1  -3  156.88    7.80
   7   1   3  150.18    9.60
   7   1   3  139.49    8.70
   7   1   3  148.69    8.60
   8  -1   3  697.83   25.80
   8  -1   3  660.83   24.80
  -8  -1  -3  646.14   27.10
   8  -1   3  680.03   24.70
   8   1   3  680.13   26.20
  -8   1  -3  699.23   25.10
   8   1   3  604.94   27.00
   8   1   3  614.94   25.90
   9  -1   3  113.39    6.90
   9  -1   3  108.19    6.90
  -9  -1  -3  110.69    8.90
   9  -1   3  102.79    7.40
   9   1   3   96.99    7.50
  -9   1  -3  113.99    7.50
  10  -1   3   24.90    4.10
  10  -1   3   12.60    3.70
 -10  -1  -3   30.60    5.70
  10  -1   3   22.10    3.70
 -10   1  -3   30.90    4.70
  10   1   3   28.40    4.50
  11  -1   3   17.00    4.40
  11  -1   3   30.50    4.70
 -11  -1  -3   25.00    5.80
  11   1   3   22.10    4.70
 -11   1  -3   16.90    4.40
 -12  -1  -3  217.08   14.20
  12  -1   3  241.98   12.10
  12   1   3  232.48   13.50
 -12   1  -3  224.68   13.10
 -13  -1  -3  141.99   11.50
  13  -1   3  141.79   10.60
  13   1   3  143.69   10.70
 -13   1  -3  136.39   10.50
 -14  -1  -3    2.50    4.00
  14  -1   3    2.40    3.50
 -14   1  -3    6.00    4.30
  14   1   3   -1.00    3.50
  15  -1   3    3.90    3.70
 -15  -1  -3   -1.40    3.60
 -15   1  -3    0.00    3.70
  15   1   3   -4.00    3.10
 -16  -1  -3   22.00    6.40
  16  -1   3   41.10    7.70
  16  -1   3   36.60    6.70
  16   1   3   25.70    7.30
 -16  -2   3    0.00    5.00
 -16   2   3    8.40    4.60
  16   2  -3    6.90    4.70
 -15  -2   3   10.00    5.90
  15  -2  -3    7.70    2.50
 -15   2   3    7.10    4.40
  15   2  -3    8.60    5.10
 -14  -2   3   45.80    8.50
  14   2  -3   43.00    7.60
 -14   2   3   51.89    7.50
  13  -2  -3    8.50    1.60
 -13  -2   3   13.80    5.90
  13  -2  -3    8.20    2.10
  13   2  -3   10.70    4.10
 -13   2   3   13.10    4.50
 -12  -2   3  248.08   16.10
 -12   2   3  234.78   13.50
  12   2  -3  239.58   14.30
 -11  -2   3   77.89    9.90
  11   2  -3   81.29    9.50
 -11   2   3   69.59    7.40
 -10  -2   3   -0.10    3.90
 -10   2   3    2.20    2.60
  10   2  -3    3.20    2.80
  -9  -2   3    0.50    3.20
  -9   2   3   -2.40    2.00
   9   2  -3   -1.20    2.00
  -8  -2   3   26.40    5.70
   8   2  -3   47.80    7.60
  -8   2   3   26.70    4.50
  -7  -2   3   -3.30    2.60
   7   2  -3    6.60    2.70
  -7   2   3    7.20    2.80
   6  -2  -3    6.00    3.10
  -6  -2   3    1.70    3.40
   6   2  -3    5.50    3.70
  -6   2   3    2.40    2.30
   6   2  -3    3.60    2.50
   6   2  -3    1.40    2.30
  -5  -2   3  388.06   16.40
   5  -2  -3  380.96   16.90
  -5  -2   3  413.56   19.00
   5   2  -3  397.16   18.50
  -5   2   3  401.66   16.70
   5   2  -3  399.76   16.90
   4  -2  -3   61.09    3.10
  -4  -2   3   58.09    6.70
  -4  -2   3   60.49    4.80
  -4   2   3   59.69    3.00
  -4   2   3   54.89    5.00
   4   2  -3   51.39    6.50
   4   2  -3   56.89    5.10
  -3  -2   3    0.40    2.40
   3  -2  -3   -1.00    1.20
   3  -2  -3    0.90    1.40
  -3  -2   3    1.70    1.80
   3   2  -3    1.60    1.70
  -3   2   3    0.40    2.00
  -3   2   3   -0.10    1.40
   3   2  -3    0.30    2.40
   2  -2  -3    1.00    1.90
  -2  -2   3    0.10    2.40
  -2  -2   3    3.30    1.90
  -2   2   3    2.70    1.90
   2   2  -3    1.00    1.50
  -2   2   3    3.70    2.60
   2   2  -3   -0.10    2.90
   1  -2  -3    5.80    2.70
  -1  -2   3    8.40    2.00
  -1  -2   3   11.30    3.80
   1  -2  -3    7.80    2.40
  -1   2   3   10.70    3.10
   1   2  -3   13.40    3.30
   1   2  -3    5.10    2.10
  -1   2   3    4.70    2.20
   0  -2  -3   26.10    3.90
   0  -2   3   37.90    3.80
   0  -2   3   23.60    4.20
   0  -2  -3   36.50    4.30
   0   2   3   40.20    5.20
   0   2  -3   30.50    4.50
   0   2  -3   30.80    3.60
   0   2   3   32.00    4.30
   1  -2   3  122.59    8.00
  -1  -2  -3  135.89    8.10
   1  -2   3  138.99    7.40
  -1  -2  -3  128.19    7.80
  -1   2  -3  133.29    7.80
   1   2   3  137.59    8.10
   1   2   3  139.89    8.20
  -1   2  -3  130.99    6.90
   2  -2   3  373.56   14.90
  -2  -2  -3  397.46   16.70
   2  -2   3  380.46   16.10
  -2  -2  -3  383.16   16.20
  -2   2  -3  385.06   15.50
   2   2   3  380.66   16.80
  -2   2  -3  372.26   14.90
   2   2   3  377.86   16.40
  -3  -2  -3  116.19    8.00
  -3  -2  -3  104.69    7.70
   3  -2   3  103.19    5.90
   3  -2   3  107.09    6.80
   3   2   3   96.59    6.90
   3   2   3   90.19    7.70
  -3   2  -3  108.19    6.20
  -3   2  -3  111.69    6.00
   4  -2   3  307.07   13.30
  -4  -2  -3  295.97   13.90
   4  -2   3  298.47   12.70
  -4  -2  -3  316.17   15.00
   4   2   3  301.67   14.30
  -4   2  -3  314.07   12.50
   4   2   3  301.07   15.20
  -4   2  -3  306.37   12.60
  -5  -2  -3  359.86   15.70
   5  -2   3  348.87   14.60
   5  -2   3  353.06   14.40
  -5  -2  -3  324.57   16.50
  -5   2  -3  368.86   14.10
  -5   2  -3  340.97   13.80
   5   2   3  332.47   16.90
   5   2   3  346.57   16.00
   6  -2   3   73.79    5.40
   6  -2   3   91.29    6.00
  -6  -2  -3   77.39    8.30
  -6   2  -3   73.49    5.00
  -6   2  -3   80.59    5.40
   6   2   3   94.39    7.20
   7  -2   3  185.18    9.40
   7  -2   3  171.98    9.10
  -7  -2  -3  172.88   18.40
   7   2   3  186.58   11.30
  -7   2  -3  187.48    9.10
   8  -2   3  160.08    8.50
  -8  -2  -3  141.59   10.70
   8  -2   3  146.99    8.30
   8  -2   3  144.79    9.50
  -8   2  -3  159.18    8.50
   8   2   3  125.89    9.40
   9  -2   3   67.39    6.70
  -9  -2  -3   49.70    7.50
   9  -2   3   52.29    6.10
   9  -2   3   91.69    6.20
   9   2   3   78.39    9.00
  -9   2  -3   70.59    6.10
  10  -2   3  482.95   19.70
  10  -2   3  444.66   20.20
 -10  -2  -3  511.65   24.10
  10   2   3  485.45   22.50
 -10   2  -3  511.35   20.40
 -11  -2  -3   -0.10    3.80
  11  -2   3   -1.50    2.20
  11  -2   3   -0.40    2.60
  11   2   3    1.20    2.90
  12  -2   3    2.00    2.80
  12  -2   3    1.10    2.90
 -12  -2  -3    6.80    4.70
  12   2   3    3.20    3.80
 -12   2  -3    0.20    3.00
  13  -2   3    0.80    3.00
 -13  -2  -3   -3.90    4.20
 -13   2  -3    5.20    4.40
  13   2   3    6.80    4.50
  14  -2   3   11.50    4.00
 -14  -2  -3   15.50    6.40
  14   2   3   17.70    5.80
 -14   2  -3   13.40    4.90
  15  -2   3    2.50    3.60
 -15  -2  -3    8.80    6.00
  15   2   3    8.00    5.40
 -15   2  -3    9.20    4.90
 -14  -3   3   67.59   11.90
  14   3  -3   80.09   10.90
 -13  -3   3   34.50    8.60
  13   3  -3   32.70    7.00
 -13   3   3   29.00    6.10
 -12  -3   3   10.50    6.00
 -12   3   3    5.50    3.70
  12   3  -3    1.80    3.60
 -11  -3   3   -4.40    3.90
  11   3  -3   -3.50    2.70
 -11   3   3    4.10    3.70
 -10  -3   3    3.80    4.60
 -10   3   3    1.60    2.90
  10   3  -3    2.80    3.30
  -9  -3   3  215.48   15.90
  -9   3   3  247.48   13.50
   9   3  -3  244.28   14.40
  -8  -3   3    3.70    4.50
  -8   3   3    1.10    2.80
   8   3  -3    4.20    3.10
  -7  -3   3   36.50    7.80
   7   3  -3   38.30    6.40
  -7   3   3   34.30    5.20
  -6  -3   3    5.50    4.20
   6   3  -3    7.80    3.10
  -6   3   3    1.30    2.50
   5  -3  -3   19.50    2.60
  -5  -3   3   19.30    5.70
  -5   3   3   25.00    4.50
   5   3  -3    9.80    3.50
   4  -3  -3  183.28    8.80
  -4  -3   3  197.68   13.10
  -4   3   3  185.18    8.50
   4   3  -3  169.68   10.60
   3  -3  -3    2.70    2.50
  -3  -3   3   -2.50    3.10
  -3   3   3    2.90    2.40
   3   3  -3    7.30    3.30
  -3   3   3    1.80    2.70
   2  -3  -3    2.80    2.40
  -2  -3   3   -3.20    3.00
  -2  -3   3    3.20    2.60
  -2   3   3    0.30    2.50
   2   3  -3   -2.70    1.60
  -2   3   3    0.00    2.30
   1  -3  -3    4.90    2.90
  -1  -3   3    6.30    2.80
  -1  -3   3    6.70    3.80
   1   3  -3    5.50    2.50
  -1   3   3    2.20    2.40
  -1   3   3    6.40    3.00
   1   3  -3    9.50    3.80
   0  -3   3  160.78   10.80
   0  -3  -3  154.68    9.70
   0  -3   3  152.08    8.80
   0   3  -3  156.28   10.10
   0   3   3  163.78   10.10
   0   3  -3  161.68    9.30
   0   3   3  152.18    9.90
  -1  -3  -3   10.60    3.70
   1  -3   3    2.30    2.30
   1  -3   3    6.10    3.40
  -1   3  -3    5.90    2.70
   1   3   3    1.30    2.90
  -1   3  -3    3.70    3.20
   1   3   3    4.00    3.40
   2  -3   3  136.89    9.40
  -2  -3  -3  131.39    9.40
   2  -3   3  108.59    8.30
   2   3   3  131.39    9.70
  -2   3  -3  108.29    8.00
   2   3   3  119.99   10.00
  -2   3  -3  120.39    7.70
  -3  -3  -3   -0.10    2.80
   3  -3   3    0.10    2.90
   3  -3   3   -1.00    2.10
   3   3   3   -0.70    2.60
  -3   3  -3   -1.40    1.80
   4  -3   3    1.90    2.20
   4  -3   3    3.40    3.20
  -4   3  -3   -2.00    1.70
  -4   3  -3    1.00    2.40
   4   3   3    4.60    2.80
   5  -3   3   68.59    7.20
  -5  -3  -3   74.89    9.00
   5  -3   3   69.79    6.20
  -5   3  -3   76.49    6.00
  -5   3  -3   72.69    6.00
  -6  -3  -3   25.60    6.40
   6  -3   3   23.40    4.60
   6  -3   3   28.00    4.60
   6   3   3   40.00    6.20
  -6   3  -3   22.00    3.80
  -6   3  -3   28.60    4.20
  -7  -3  -3  164.88   12.60
   7  -3   3  150.88    9.90
   7  -3   3  179.08   10.20
  -7   3  -3  169.38    8.80
   7   3   3  171.48   11.80
  -7   3  -3  169.78    9.50
  -8  -3  -3   12.70    4.90
   8  -3   3   13.20    3.60
  -8   3  -3   13.80    3.10
   8   3   3   18.00    5.20
  -8   3  -3   12.00    3.40
   9  -3   3   -0.20    2.50
   9  -3   3    1.00    2.70
  -9  -3  -3    2.00    4.20
   9   3   3   -1.10    2.20
  10  -3   3   21.70    4.20
  10  -3   3   19.20    4.90
 -10  -3  -3   21.70    6.70
  10   3   3   18.10    5.00
 -10   3  -3   24.50    4.80
 -11  -3  -3   12.50    5.50
  11  -3   3    4.60    3.00
 -11   3  -3    7.80    3.70
  11   3   3    4.20    4.20
  12  -3   3    2.70    3.00
  12  -3   3    2.60    3.30
 -12   3  -3    2.20    3.70
  13  -3   3    1.80    3.10
 -13  -3  -3    0.90    5.70
  13   3   3    2.70    3.90
 -13   3  -3    4.40    4.00
 -14  -3  -3    2.70    5.90
  14  -3   3    7.80    3.90
  14   3   3    6.00    4.60
 -14   3  -3   21.60    6.00
 -11  -4   3    9.70    6.10
 -11   4   3   -0.60    5.00
  11   4  -3   -1.00    3.40
 -10  -4   3   14.70   11.30
 -10   4   3    7.50    4.50
  10   4  -3    8.00    3.90
   9   4  -3   11.70    5.00
  -9   4   3    8.50    4.50
  -8  -4   3   31.70    8.20
  -8   4   3   48.10    7.60
   8   4  -3   40.90    6.70
  -7  -4   3  111.79   13.50
  -7   4   3  110.19    9.60
   7   4  -3  117.49   10.30
  -6  -4   3   -2.30    4.60
   6  -4  -3    3.70    2.20
   6   4  -3    2.40    3.10
  -6   4   3    1.10    1.80
  -6   4   3    2.80    3.50
   5  -4  -3    8.30    3.10
  -5  -4   3   16.00    6.80
  -5   4   3    4.70    3.40
   5   4  -3    6.90    4.00
  -5   4   3    0.10    2.50
   4  -4  -3   -3.70    2.60
  -4  -4   3    0.00    4.30
  -4   4   3    0.20    2.90
  -4   4   3    0.60    3.70
   4   4  -3    2.10    3.40
   3  -4  -3    5.00    3.50
  -3  -4   3    4.20    5.10
   3   4  -3    2.70    3.40
  -3   4   3    3.40    3.10
  -3   4   3   -1.30    3.80
  -2  -4   3   12.00    5.90
   2  -4  -3    4.00    3.70
  -2   4   3    4.90    3.80
   2   4  -3   11.90    4.50
  -2   4   3   16.90    5.30
  -1  -4   3   -1.80    4.30
   1  -4  -3   -0.20    3.60
  -1   4   3    3.30    4.70
   1   4  -3   -1.20    2.70
  -1   4   3    2.20    3.00
   0  -4  -3    4.60    4.30
   0  -4   3    3.40    4.60
   0   4  -3    3.70    2.90
   0   4   3    9.90    4.40
   1  -4   3   17.90    5.90
  -1  -4  -3   12.60    4.80
  -1   4  -3   10.40    3.60
   1   4   3    8.40    3.10
   2  -4   3   10.40    5.10
  -2  -4  -3   16.50    5.80
   2   4   3    6.00    3.10
  -2   4  -3   13.40    3.70
   3  -4   3    3.00    4.30
  -3  -4  -3    2.00    4.60
  -3   4  -3    0.80    2.80
   3   4   3    1.90    3.60
   4  -4   3   11.40    4.90
  -4  -4  -3   17.90    6.00
  -4   4  -3   14.20    4.20
   4   4   3    6.80    3.50
   5  -4   3   34.00    6.60
  -5  -4  -3   27.90    7.40
  -5   4  -3   20.30    4.50
   5   4   3   28.60    6.20
  -6  -4  -3   15.50    6.20
   6  -4   3   13.20    4.90
  -6   4  -3   13.50    4.30
  -6   4  -3   12.70    4.10
   6   4   3   11.20    4.60
  -7  -4  -3   15.60    6.90
   7  -4   3   16.90    4.90
  -7   4  -3    8.40    3.90
   7   4   3   18.20    6.10
  -7   4  -3   12.60    3.90
   8  -4   3    6.60    4.40
  -8  -4  -3    6.70    5.80
  -8   4  -3    4.00    3.60
   8   4   3    4.00    3.80
  -8   4  -3   11.30    3.70
  -9  -4  -3    2.70    6.60
   9  -4   3   12.80    4.40
   9   4   3   14.80    6.20
  -9   4  -3    8.20    4.10
  10  -4   3    2.50    3.80
 -10  -4  -3    1.90    5.60
 -10   4  -3    3.30    4.00
  10   4   3    4.90    4.50
  11  -4   3    3.60    3.50
 -11  -4  -3    6.80    6.50
 -11   4  -3    6.40    4.20
  11   4   3    3.30    5.10
   5  -5  -3    9.40    3.90
  -5  -5   3   -2.00    5.50
  -5   5   3    7.20    4.70
   5   5  -3    3.90    9.50
  -4   5   3   75.69   15.30
   4   5  -3   57.59    8.20
  -3  -5   3   47.00   10.10
   3   5  -3   29.10    6.40
  -2  -5   3    5.00    6.20
   2  -5  -3   -3.50    4.10
   2   5  -3    1.90    3.80
  -1  -5   3   54.09   10.00
   1  -5  -3   53.19    8.60
   1   5  -3   54.19    8.60
   0  -5  -3    5.50    5.40
   0  -5   3    7.10    6.10
   0   5  -3    2.90    3.60
  -1  -5  -3    1.00    5.10
   1  -5   3    0.80    5.60
   1   5   3    1.50    4.00
  -1   5  -3   -2.30    3.00
  -2  -5  -3   29.70    7.70
   2  -5   3   40.10    9.20
   2   5   3   28.80    6.20
  -2   5  -3   27.80    6.50
   3  -5   3    2.10    5.70
  -3  -5  -3   -3.20    5.10
   3   5   3    1.90    3.40
  -3   5  -3    8.80    4.90
  -4  -5  -3    6.10    6.20
   4  -5   3    5.10    6.00
  -4   5  -3    0.60    3.90
   4   5   3    1.90    3.80
  -5  -5  -3   -1.40    7.00
   5  -5   3   -7.70    4.50
   5   5   3    4.20    4.40
  -5   5  -3    1.00    4.20
 -17   0   4    0.20    4.50
 -17   0   4    4.80    3.70
 -16   0   4   -0.10    4.10
 -16   0   4    2.00    3.50
 -15   0   4    0.80    3.00
 -15   0   4    4.10    4.20
 -14   0   4   55.99    8.70
 -13   0   4    1.20    3.30
 -13   0   4   -1.20    2.90
 -12   0   4   34.60    6.30
 -12   0   4   39.60    6.00
  12   0  -4   34.80    5.90
 -11   0   4    0.00    2.30
  11   0  -4    0.00    2.50
 -11   0   4    2.00    2.50
 -10   0   4  612.24   24.50
  10   0  -4  612.94   24.80
  -9   0   4   -1.10    2.20
  -9   0   4    0.80    2.00
   9   0  -4   -0.60    1.90
   8   0  -4  579.54   23.10
   8   0  -4  600.34   23.10
  -8   0   4  597.74   23.20
  -8   0   4  599.04   23.50
   7   0  -4    4.10    1.90
   7   0  -4   -0.50    1.40
  -7   0   4   -2.10    1.90
  -7   0   4    0.00    1.70
   6   0  -4   49.80    4.20
  -6   0   4   66.79    5.80
   6   0  -4   47.10    4.30
  -6   0   4   47.40    4.30
  -5   0   4   -0.60    1.80
   5   0  -4   -0.60    1.20
  -5   0   4   -0.10    1.60
   5   0  -4    0.30    1.70
   4   0  -4   44.00    3.80
   4   0  -4   39.20    3.90
  -4   0   4   33.20    3.80
  -4   0   4   43.50    4.20
   3   0  -4   -0.20    1.40
  -3   0   4   -4.80    1.90
   3   0  -4    3.20    2.20
  -3   0   4   -1.40    1.40
  -2   0   4 1379.96   47.80
   2   0  -4 1433.36   47.70
  -2   0   4 1456.75   47.50
  -1   0   4    1.40    1.20
   1   0  -4    1.80    1.20
   1   0  -4   -0.50    1.40
  -1   0   4    0.50    1.60
   0   0   4 4277.57  140.79
   0   0   4 4327.77  140.09
  -1   0  -4   -0.60    0.90
   1   0   4   -0.10    0.80
  -1   0  -4   -0.80    1.20
  -2   0  -4 1860.61   62.49
   2   0   4 1922.61   63.69
   2   0   4 1919.01   62.59
   3   0   4    1.90    1.90
   3   0   4   -0.20    0.90
   3   0   4    1.80    1.60
   4   0   4    2.80    2.00
   4   0   4    0.40    1.30
   4   0   4   -0.50    1.00
   4   0   4   -1.50    1.30
   5   0   4   -0.30    1.20
  -5   0  -4    3.00    2.20
   5   0   4   -0.30    1.90
   5   0   4    0.20    1.40
   6   0   4  151.58    7.40
  -6   0  -4  137.99    8.10
   6   0   4  156.08    7.50
   6   0   4  146.79    8.50
   7   0   4    2.70    2.20
   7   0   4   -0.40    1.30
  -7   0  -4   -1.40    1.90
   7   0   4    0.00    1.50
   8   0   4   98.89    6.20
   8   0   4   83.69    8.40
   8   0   4   84.59    5.80
  -8   0  -4   94.99    7.00
   9   0   4    1.60    1.90
   9   0   4   -1.70    1.50
  -9   0  -4    0.10    2.20
   9   0   4    1.50    2.50
 -10   0  -4  235.98   12.60
  10   0   4  197.48   11.90
  10   0   4  257.37   12.20
 -11   0  -4   -3.80    2.30
 -12   0  -4    5.10    3.60
  12   0   4    1.10    2.40
  13   0   4   -3.00    2.30
  14   0   4   87.59    9.20
  14   0   4   98.39    8.80
  15   0   4    4.60    3.70
  15   0   4    0.30    3.40
  16   0   4   53.39    7.90
  16   0   4   30.50    6.00
  17  -1  -4    3.30    3.80
 -17  -1   4    1.40    4.20
 -17   1   4    0.30    4.10
  17   1  -4    0.50    3.40
  16  -1  -4    3.40    3.70
  16  -1  -4    6.90    3.40
 -16  -1   4   -2.30    3.50
  16   1  -4    1.70    3.90
  15  -1  -4   14.60    4.30
 -15  -1   4   14.00    5.30
  15   1  -4   10.60    3.90
 -15   1   4   17.10    4.90
 -14  -1   4    0.80    3.70
  14  -1  -4    7.30    3.00
  14   1  -4    4.30    4.20
 -14   1   4    3.90    3.60
 -13  -1   4    4.80    3.70
  13  -1  -4    1.00    2.30
 -13   1   4    2.00    2.10
  13   1  -4    1.50    3.10
 -13   1   4    3.70    3.50
 -12  -1   4  373.66   19.10
  12  -1  -4  326.47   15.40
 -12   1   4  365.86   15.10
  12   1  -4  371.16   18.10
 -12   1   4  401.76   18.20
  11  -1  -4   32.90    4.20
 -11   1   4   41.70    4.40
 -11   1   4   35.30    5.70
  11   1  -4   42.20    6.60
  10  -1  -4   38.30    4.20
 -10  -1   4   34.60    6.10
  10   1  -4   28.30    4.40
 -10   1   4   36.60    5.60
 -10   1   4   34.90    3.70
   9  -1  -4  114.99    6.30
  -9  -1   4  128.69    9.30
   9   1  -4  115.29    8.90
  -9   1   4  122.69    7.90
   9   1  -4  129.49    8.20
  -9   1   4  133.69    7.30
   8  -1  -4  147.19    8.60
   8  -1  -4  143.79    7.70
  -8  -1   4  133.19    9.00
  -8  -1   4  162.68   10.20
  -8   1   4  154.28    6.50
  -8   1   4  145.09    8.40
   8   1  -4  158.48    8.80
   8   1  -4  139.59    9.30
   8   1  -4  144.09    8.60
  -7  -1   4 1317.77   47.30
   7  -1  -4 1287.57   46.50
  -7  -1   4 1273.27   48.10
   7  -1  -4 1377.16   44.10
   7   1  -4 1302.17   46.70
   7   1  -4 1357.86   46.70
  -7   1   4 1331.97   43.80
  -7   1   4 1307.37   46.20
   7   1  -4 1273.87   47.60
  -6  -1   4   38.50    5.30
   6  -1  -4   53.49    4.60
   6  -1  -4   42.80    2.50
   6   1  -4   47.70    5.80
  -6   1   4   44.20    2.40
   6   1  -4   54.49    5.30
  -6   1   4   51.89    4.70
   6   1  -4   37.10    3.80
   5  -1  -4   24.80    3.80
  -5  -1   4   23.00    4.30
   5   1  -4   23.20    4.10
   5   1  -4   17.90    3.10
   5   1  -4   14.50    2.50
  -5   1   4   22.40    3.40
  -4  -1   4    1.50    2.20
   4  -1  -4    4.80    1.80
  -4   1   4    6.90    2.10
   4   1  -4    6.40    2.20
   4   1  -4    5.70    1.80
   4   1  -4    6.40    2.50
   3  -1  -4  185.58    8.80
  -3  -1   4  192.88    9.90
   3   1  -4  189.08    8.20
  -3   1   4  184.48    6.80
   3   1  -4  197.98    9.60
   3   1  -4  184.28    8.40
  -3   1   4  181.78    8.60
  -3   1   4  191.58    6.80
   2  -1  -4    2.50    1.90
  -2  -1   4   -0.90    2.00
   2   1  -4   -1.10    1.40
  -2   1   4   -0.90    0.80
   2   1  -4    1.50    2.00
  -2   1   4    1.50    1.80
  -2   1   4   -1.30    1.10
  -1  -1   4  229.28   10.60
   1  -1  -4  246.88    9.20
   1  -1  -4  225.48   10.10
   1   1  -4  240.78    9.20
  -1   1   4  225.58    9.20
  -1   1   4  222.68   10.00
   1   1  -4  232.98   10.50
   1   1  -4  236.48    9.00
   0  -1  -4 4031.90  131.99
   0  -1   4 3941.81  132.09
   0  -1   4 3949.20  130.29
   0  -1  -4 4061.59  131.99
   0   1   4 4097.89  132.09
   0   1   4 3929.01  131.49
   0   1  -4 3905.61  131.89
   0   1  -4 4067.59  130.49
  -1  -1  -4 1917.91   63.89
   1  -1   4 1913.31   61.99
  -1  -1  -4 1895.21   63.69
   1  -1   4 1849.42   63.79
  -1   1  -4 1905.81   61.99
  -1   1  -4 1841.72   63.49
   1   1   4 1880.71   63.79
   1   1   4 1927.21   63.89
  -2  -1  -4  283.17   11.90
   2  -1   4  289.07   11.90
   2  -1   4  294.37   10.30
  -2  -1  -4  284.97   12.20
   2   1   4  298.37   12.50
  -2   1  -4  289.97   11.60
  -2   1  -4  285.37   10.10
   3  -1   4  525.95   19.10
  -3  -1  -4  525.75   20.10
   3  -1   4  515.45   17.70
  -3   1  -4  483.05   17.50
  -3   1  -4  510.35   18.80
   3   1   4  503.85   20.10
   3   1   4  527.15   19.60
  -4  -1  -4  183.88    8.70
   4  -1   4  180.18    8.40
  -4  -1  -4  177.78    9.50
  -4   1  -4  181.38    7.40
   4   1   4  183.78    9.80
   4   1   4  177.88    8.80
  -4   1  -4  187.88    8.30
  -5  -1  -4  297.87   13.60
   5  -1   4  292.17   12.10
   5  -1   4  287.57   11.20
  -5  -1  -4  280.97   12.30
   5   1   4  283.37   13.70
  -5   1  -4  295.87   11.80
   5   1   4  299.57   12.80
  -5   1  -4  268.47   11.20
   6  -1   4  118.09    6.20
   6  -1   4  126.49    6.90
   6  -1   4  144.59    7.50
  -6  -1  -4  120.49    7.00
  -6  -1  -4  120.29    8.20
  -6   1  -4  123.69    6.40
   6   1   4  117.19    8.30
   6   1   4  124.29    7.50
  -7  -1  -4   50.69    6.00
   7  -1   4   59.59    4.70
   7  -1   4   51.49    4.10
   7  -1   4   48.40    5.30
  -7   1  -4   53.89    4.60
   7   1   4   61.99    7.00
   7   1   4   57.89    6.50
   7   1   4   49.00    5.50
   8  -1   4    8.60    2.30
   8  -1   4   16.30    3.20
  -8  -1  -4    5.20    3.10
   8  -1   4   13.70    3.30
   8   1   4   10.70    3.50
  -8   1  -4   15.10    3.10
   8   1   4   11.70    3.50
   9  -1   4   16.10    3.90
   9  -1   4   26.40    4.00
   9   1   4   27.90    4.70
  -9   1  -4   31.40    4.50
 -10  -1  -4  117.39    9.60
  10  -1   4  115.69    7.60
  10  -1   4  121.29    7.70
  10  -1   4  112.69    8.40
  10   1   4  123.09    8.80
 -10   1  -4  118.99    8.30
  11  -1   4   64.59    6.70
 -11  -1  -4   60.59    8.20
 -11   1  -4   52.09    6.50
  11   1   4   55.29    6.50
 -12  -1  -4  127.99   10.80
  12   1   4  131.59   10.10
 -12   1  -4  126.99    9.70
 -13  -1  -4   86.69   10.30
  13  -1   4   96.49    8.20
 -13   1  -4  116.39   11.40
  13   1   4  103.39   10.40
 -14  -1  -4    0.70    4.00
  14  -1   4    4.70    3.60
  14   1   4   -2.80    3.00
 -14   1  -4   -0.20    4.00
  15  -1   4   13.90    4.90
 -15  -1  -4    2.60    4.60
  15  -1   4    6.30    4.10
  15   1   4   13.50    5.50
  16  -1   4   -4.10    3.60
  16  -1   4    0.00    3.10
  16   1   4    2.50    4.70
 -16  -2   4   12.90    6.60
  16   2  -4    6.50    4.30
 -16   2   4   16.40    6.00
 -15  -2   4    1.70    5.10
  15   2  -4    2.80    2.90
 -15   2   4    6.60    4.10
 -14  -2   4   80.39   11.20
  14   2  -4   73.39    8.40
 -14   2   4  103.29   10.80
 -13  -2   4  119.19   13.60
  13   2  -4  127.09   10.70
 -13   2   4  140.99   10.40
 -12  -2   4   29.70    6.90
 -12   2   4   36.90    6.20
  12   2  -4   37.70    6.00
 -11  -2   4  213.78   15.00
 -11   2   4  224.98   12.80
  11   2  -4  244.08   13.80
 -10  -2   4    2.50    3.70
 -10   2   4   -0.60    2.50
  10   2  -4    0.80    2.30
  -9  -2   4    1.20    3.20
  -9   2   4   -3.10    1.80
   9   2  -4   -0.10    2.50
  -8  -2   4   85.79    9.60
   8   2  -4   56.99    9.50
  -7  -2   4  409.16   20.50
   7   2  -4  402.26   18.20
  -7   2   4  446.56   18.30
  -6  -2   4  232.68   13.60
   6  -2  -4  218.78   11.60
   6   2  -4  215.58   11.30
   6   2  -4  226.98   11.70
  -6   2   4  225.58   11.30
  -5  -2   4    1.70    2.90
   5  -2  -4    0.90    1.80
   5   2  -4    0.60    2.30
   5   2  -4    3.90    2.60
   5   2  -4   -1.50    1.60
  -5   2   4   -0.80    1.90
  -4  -2   4  419.96   19.60
  -4  -2   4  434.16   17.20
   4  -2  -4  430.36   18.20
   4   2  -4  414.36   17.40
  -4   2   4  428.46   14.50
  -4   2   4  439.76   17.90
   4   2  -4  420.16   19.10
  -3  -2   4   25.70    4.70
   3  -2  -4   30.00    2.90
  -3  -2   4   46.80    5.00
  -3   2   4   27.20    3.80
   3   2  -4   35.70    4.20
  -3   2   4   29.20    2.90
   2  -2  -4   13.70    3.10
  -2  -2   4   10.30    3.60
  -2  -2   4   12.50    2.30
  -2   2   4   13.80    2.90
   2   2  -4   14.30    3.80
   2   2  -4   13.50    2.60
  -2   2   4   15.70    2.80
   1  -2  -4  117.29    7.60
  -1  -2   4  118.99    6.40
  -1  -2   4  134.19    8.70
   1  -2  -4  132.39    6.90
  -1   2   4  122.39    7.60
   1   2  -4  118.59    6.70
   1   2  -4  130.89    8.10
  -1   2   4  127.49    7.10
   0  -2  -4 1096.59   38.60
   0  -2   4 1051.19   37.60
   0  -2   4 1093.59   39.90
   0  -2  -4 1045.60   39.40
   0   2   4 1102.39   39.00
   0   2  -4 1111.79   38.10
   0   2  -4 1124.49   39.40
   1  -2   4  486.35   20.10
   1  -2   4  488.65   18.30
  -1  -2  -4  498.65   19.60
  -1  -2  -4  467.25   19.90
  -1   2  -4  482.55   18.40
   1   2   4  498.95   20.00
   1   2   4  504.65   20.20
  -1   2  -4  492.45   19.50
   2  -2   4   76.29    6.30
   2  -2   4   88.19    4.90
  -2  -2  -4   80.39    6.40
  -2   2  -4   70.89    5.60
  -2   2  -4   72.79    4.70
   2   2   4   82.69    6.30
   2   2   4   60.19    6.70
   3  -2   4 3487.05  112.19
   3  -2   4 3252.27  109.69
  -3  -2  -4 3188.28  111.49
  -3  -2  -4 3353.36  112.09
  -3   2  -4 3345.07  110.29
   3   2   4 3307.57  112.49
  -3   2  -4 3277.17  109.39
   3   2   4 3276.97  111.99
   4  -2   4  415.66   17.30
  -4  -2  -4  434.76   18.80
   4  -2   4  398.86   16.10
  -4  -2  -4  407.46   17.90
   4   2   4  406.26   18.90
  -4   2  -4  434.76   16.60
   4   2   4  418.56   18.20
  -4   2  -4  434.26   15.90
   5  -2   4   96.09    6.40
   5  -2   4   83.59    5.40
  -5  -2  -4   91.89    7.80
  -5  -2  -4   82.89    6.70
   5   2   4   92.79    7.10
   5   2   4   88.09    7.90
  -5   2  -4   76.69    5.40
  -5   2  -4   86.59    5.20
   6  -2   4  104.99    6.90
   6  -2   4   98.29    6.20
  -6  -2  -4  105.29    8.80
  -6   2  -4  110.89    6.40
  -6   2  -4  122.89    6.30
   6   2   4  104.29    7.90
   7  -2   4  182.38    9.70
   7  -2   4  183.18    9.30
  -7  -2  -4  193.48   12.20
  -7   2  -4  181.18    9.00
  -7   2  -4  192.38    9.10
   8  -2   4  357.46   16.40
   8  -2   4  368.86   16.20
   8  -2   4  403.16   16.60
  -8  -2  -4  384.26   19.40
   8   2   4  388.56   18.30
  -8   2  -4  413.26   16.20
   9  -2   4  262.77   12.30
  -9  -2  -4  262.27   15.40
   9  -2   4  234.58   12.00
   9  -2   4  209.28   12.90
  -9   2  -4  257.17   12.00
   9   2   4  258.37   14.10
 -10  -2  -4   16.50    5.50
  10  -2   4   28.20    4.70
  10  -2   4   32.90    5.10
  10  -2   4   27.40    4.80
 -10   2  -4   28.00    4.80
  10   2   4   42.30    7.30
 -11  -2  -4   36.90    7.80
  11  -2   4   25.50    5.20
  11  -2   4   38.40    5.50
  11   2   4   57.29    8.50
 -11   2  -4   36.00    5.30
 -12  -2  -4   67.79    9.50
  12  -2   4   70.89    7.40
 -12   2  -4   70.39    7.60
  12   2   4   67.29    8.10
 -13  -2  -4   38.90    8.30
 -13   2  -4   34.30    6.00
  13   2   4   33.30    6.30
 -14  -2  -4    4.30    5.50
  14  -2   4   -3.10    3.10
 -14   2  -4   -1.30    3.80
  14   2   4    4.90    4.60
 -15  -2  -4    6.10    6.00
  15  -2   4   -0.70    3.50
  15   2   4    2.50    4.60
 -15   2  -4    6.20    5.00
 -14  -3   4   40.60    9.10
  14   3  -4   40.10    8.70
 -14   3   4   24.80    5.90
 -13  -3   4   -1.50    5.40
  13   3  -4    3.80    3.70
 -13   3   4    3.50    3.90
 -12  -3   4   10.90    6.10
 -12   3   4    4.80    3.70
  12   3  -4    6.80    4.20
 -11  -3   4    2.70    5.00
  11   3  -4    5.10    3.90
 -11   3   4    3.30    3.40
 -10  -3   4   17.00    6.00
  10   3  -4   17.60    5.20
 -10   3   4   10.20    4.10
  -9  -3   4   -2.90    4.00
  -9   3   4    4.20    3.60
   9   3  -4    0.20    2.50
  -8  -3   4   13.10    5.40
   8   3  -4   10.20    4.20
  -8   3   4   12.80    4.00
  -7  -3   4   -1.50    3.60
   7   3  -4   -1.50    2.10
  -7   3   4    0.90    2.50
  -6  -3   4   78.99   10.00
   6   3  -4   75.39    8.40
  -6   3   4   82.69    7.40
  -5  -3   4    0.20    3.40
   5  -3  -4    1.40    1.40
  -5   3   4   -1.20    1.30
  -5   3   4    2.50    3.30
  -4  -3   4    5.50    4.40
   4  -3  -4   -0.40    1.70
  -4   3   4    3.30    2.90
   4   3  -4    3.50    2.40
  -4   3   4    0.20    2.00
   3  -3  -4    1.80    2.10
  -3  -3   4    2.70    2.20
  -3   3   4    2.00    2.40
  -3   3   4   -0.40    1.90
   3   3  -4    3.50    2.70
  -2  -3   4   69.09    6.80
  -2  -3   4   56.49    7.70
   2  -3  -4   57.19    5.80
   2   3  -4   67.79    6.00
  -2   3   4   50.79    5.40
  -1  -3   4   21.10    3.80
   1  -3  -4   15.90    3.90
  -1  -3   4    9.90    4.10
   1   3  -4   15.70    3.40
  -1   3   4   16.80    4.10
   0  -3  -4    2.90    2.80
   0  -3   4   -1.30    2.90
   0  -3   4    0.80    2.10
   0   3  -4    0.50    3.20
   0   3  -4    2.60    2.10
   0   3   4    4.70    3.10
   1  -3   4   48.90    6.40
   1  -3   4   38.60    6.10
  -1  -3  -4   44.70    6.30
  -1   3  -4   37.40    4.70
   1   3   4   38.70    6.10
  -1   3  -4   38.30    5.70
   1   3   4   47.20    6.90
   2  -3   4    4.30    3.50
  -2  -3  -4    6.60    3.50
   2  -3   4    4.10    2.30
   2   3   4    6.20    3.30
  -2   3  -4    2.60    3.00
   2   3   4    6.90    4.10
  -2   3  -4    2.20    2.10
   3  -3   4   46.40    6.50
   3  -3   4   53.79    5.90
  -3  -3  -4   34.70    6.20
  -3   3  -4   44.80    5.50
  -3   3  -4   40.60    4.80
   3   3   4   36.90    5.40
  -4  -3  -4    1.60    3.60
   4  -3   4   -0.80    2.30
   4  -3   4   -0.40    2.90
   4   3   4    0.30    2.40
  -4   3  -4    3.30    2.30
  -4   3  -4   -1.50    2.40
   5  -3   4   11.50    3.60
   5  -3   4   10.80    4.00
  -5  -3  -4    9.90    4.50
   5   3   4    6.50    3.70
  -5   3  -4   10.70    3.30
  -5   3  -4   11.30    3.00
   6  -3   4    5.20    3.40
   6  -3   4    4.60    2.60
  -6  -3  -4    9.50    4.90
  -6   3  -4    3.70    2.60
  -6   3  -4    4.90    2.60
   6   3   4   17.60    5.30
  -7  -3  -4    0.90    3.90
   7  -3   4    4.60    3.30
   7  -3   4    4.00    2.80
  -7   3  -4    5.60    2.80
   7   3   4    1.60    2.90
  -7   3  -4    0.20    2.40
   8  -3   4   -4.50    3.60
   8  -3   4    0.80    3.00
  -8  -3  -4   -2.80    3.70
  -8   3  -4   -0.40    2.40
  -8   3  -4    0.90    2.30
   8   3   4    3.10    3.70
   9  -3   4   -1.00    2.70
  -9  -3  -4    1.80    4.20
   9  -3   4   -0.10    2.70
  -9   3  -4   -2.70    2.50
   9   3   4   -2.10    2.80
 -10  -3  -4    0.90    4.50
  10  -3   4    0.40    3.00
  10  -3   4    1.80    3.20
  10   3   4   -0.60    3.40
 -10   3  -4    0.20    3.00
  11  -3   4    3.90    3.50
  11  -3   4    6.70    3.40
 -11  -3  -4   -1.40    4.10
  11   3   4    1.00    2.80
 -11   3  -4   -0.70    3.10
 -12  -3  -4   -0.80    5.10
  12  -3   4    8.50    3.90
  12  -3   4    0.90    4.10
  12   3   4   -1.60    6.90
 -12   3  -4   -0.70    3.50
 -13  -3  -4   13.00    6.70
  13  -3   4    7.80    4.00
 -13   3  -4   11.40    5.30
  13   3   4   11.50    6.10
 -11  -4   4   14.10    7.50
  11   4  -4   25.20    7.40
 -11   4   4   19.20    5.70
 -10  -4   4    2.00    5.90
  10   4  -4    2.30    3.80
 -10   4   4    0.20    4.60
  -9   4   4    0.00    3.20
   9   4  -4    3.30    4.30
  -8  -4   4   64.39   10.40
  -8   4   4   78.19    9.70
   8   4  -4   84.59   10.70
  -7  -4   4   58.99   10.30
  -7   4   4   37.60    6.90
   7   4  -4   35.10    5.80
   6  -4  -4    2.00    1.60
  -6  -4   4    0.20    5.40
  -6   4   4    2.20    3.20
   6   4  -4    3.70    4.40
   5  -4  -4   18.70    3.50
  -5  -4   4   21.60    7.00
  -5   4   4   17.80    4.40
   5   4  -4   12.40    4.10
  -5   4   4   22.40    3.40
   4  -4  -4   23.40    4.40
  -4  -4   4   21.70    6.80
  -4   4   4   22.30    5.10
  -4   4   4   22.50    4.20
   4   4  -4   23.30    5.30
  -3  -4   4   74.59   10.50
   3  -4  -4   69.29    7.10
   3   4  -4   65.89    8.80
  -3   4   4   89.69   10.80
  -3   4   4   74.59    7.30
   2  -4  -4   19.40    4.80
  -2  -4   4   23.20    6.90
  -2   4   4   21.20    4.90
  -2   4   4   22.10    6.10
   2   4  -4   17.00    4.60
   1  -4  -4    4.90    3.90
  -1  -4   4    1.50    4.60
  -1   4   4   13.50    4.70
   1   4  -4    5.20    3.00
  -1   4   4   11.70    4.80
   0  -4  -4   24.80    5.60
   0  -4   4   35.40    7.30
   0   4  -4   23.60    4.60
   1  -4   4   11.10    5.40
  -1  -4  -4    3.80    4.00
   1   4   4   -0.30    2.50
  -1   4  -4    2.80    2.90
  -2  -4  -4   -2.60    3.50
   2  -4   4    4.90    4.70
   2   4   4   -0.80    2.50
  -2   4  -4   -3.60    2.50
   3  -4   4    9.50    4.80
  -3  -4  -4    6.90    5.00
   3   4   4    1.50    2.80
  -3   4  -4    8.60    3.60
   4  -4   4   -2.00    4.10
  -4  -4  -4    1.00    4.60
   4   4   4   -3.30    3.00
  -4   4  -4   -1.50    2.20
  -5  -4  -4   90.69   10.90
   5  -4   4   90.19   11.40
  -5   4  -4   94.89    7.90
   5   4   4  119.09   10.50
   6  -4   4    6.70    4.40
  -6  -4  -4   -4.90    4.10
   6   4   4   -0.60    2.70
  -6   4  -4    2.60    3.10
  -7  -4  -4    3.70    4.80
   7  -4   4    4.20    4.10
   7   4   4    1.60    4.00
  -7   4  -4   -0.50    3.10
   8  -4   4   14.00    4.90
  -8  -4  -4   10.30    6.60
  -8   4  -4   10.60    4.30
   9  -4   4    7.10    4.20
  -9  -4  -4    9.40    5.90
  -9   4  -4    2.50    3.50
   9   4   4    2.50    4.60
 -10  -4  -4    6.00    5.80
  10  -4   4   11.10    4.50
  10   4   4    6.40    5.10
 -10   4  -4    5.10    4.10
  -5  -5   4  136.59   15.80
   5  -5  -4  119.99    8.40
  -5   5   4  175.38   13.20
  -4  -5   4    9.50    7.40
   4  -5  -4   14.80    4.60
   4   5  -4    7.10    5.20
  -4   5   4   15.70    5.60
  -3  -5   4   15.00    7.20
   3  -5  -4   19.40    5.40
  -3   5   4   12.10    4.70
   3   5  -4   16.80    5.90
  -2  -5   4   14.00    7.70
   2  -5  -4    5.90    4.80
   2   5  -4    5.40    4.60
  -2   5   4    9.60    4.60
  -1  -5   4    2.10    6.10
   1  -5  -4    4.10    4.70
  -1   5   4   -2.90    2.60
   1   5  -4    2.50    3.60
   0  -5   4    2.60    6.10
   0  -5  -4   -2.10    4.40
   0   5   4    8.20    4.50
   0   5  -4   -1.30    3.00
   1  -5   4   11.60    7.10
  -1  -5  -4   18.20    6.60
  -1   5  -4    7.40    4.10
   1   5   4   18.40    5.00
   2  -5   4   16.00    7.00
  -2  -5  -4   10.30    6.10
  -2   5  -4   16.40    5.00
   2   5   4   17.80    6.90
   3  -5   4   29.50    8.00
  -3  -5  -4   35.70    8.20
   3   5   4   48.10    9.80
  -3   5  -4   48.90    7.60
   4  -5   4   31.00    7.70
  -4  -5  -4   33.80    8.80
  -4   5  -4   20.10    5.30
   4   5   4   13.40    4.70
 -17   0   5    9.00    4.80
 -17   0   5   16.60    5.10
 -16   0   5   -1.00    2.80
 -15   0   5   17.20    4.50
 -15   0   5    4.60    3.80
 -14   0   5    1.20    3.30
 -14   0   5    2.60    3.30
 -13   0   5   90.09    7.80
 -13   0   5   76.49    9.50
  12   0  -5   -0.50    2.50
 -12   0   5   -3.00    2.30
 -12   0   5    2.30    2.90
 -11   0   5   17.20    4.20
  11   0  -5   23.90    4.50
 -11   0   5   24.40    4.80
 -10   0   5   -0.70    2.00
 -10   0   5   -0.10    2.30
  10   0  -5    1.40    2.30
   9   0  -5   51.39    5.70
  -9   0   5   57.29    6.30
  -9   0   5   56.69    7.00
  -8   0   5   -2.00    1.70
   8   0  -5    0.20    1.90
  -8   0   5   -0.60    2.00
   8   0  -5   -2.10    1.70
  -7   0   5   78.59    6.00
  -7   0   5   76.29    5.70
   7   0  -5   75.19    5.60
  -6   0   5   -2.10    1.60
  -6   0   5   -1.80    1.90
   6   0  -5   -0.60    1.70
   6   0  -5   -0.70    1.30
  -5   0   5 1950.70   65.59
  -5   0   5 1961.50   65.79
   5   0  -5 1950.60   65.49
   5   0  -5 1898.21   65.39
   4   0  -5    2.90    1.80
   4   0  -5   -0.90    1.30
  -4   0   5    0.10    1.50
  -4   0   5   -2.60    1.90
   3   0  -5  801.72   27.70
   3   0  -5  793.32   27.70
  -3   0   5  786.92   27.60
  -2   0   5    3.50    1.50
   2   0  -5   -1.20    1.50
   2   0  -5    0.90    1.30
   1   0  -5  321.37   12.20
  -1   0   5  323.37   11.70
   1   0  -5  319.87   11.80
   0   0  -5    5.40    1.30
   0   0   5    2.90    1.80
   0   0  -5    3.10    1.60
   0   0   5    2.80    1.20
  -1   0  -5 1019.00   36.20
   1   0   5 1047.10   36.40
  -1   0  -5 1087.79   35.50
   1   0   5 1090.59   35.50
  -2   0  -5   -1.40    1.30
   2   0   5    0.40    1.60
  -2   0  -5   -1.40    1.00
   2   0   5   -0.70    0.90
   3   0   5   61.49    3.50
   3   0   5   63.69    5.00
  -3   0  -5   59.69    3.70
   4   0   5    0.30    1.70
   4   0   5   -1.60    1.00
   4   0   5   -1.10    1.20
   4   0   5    2.10    2.20
   5   0   5    7.00    2.00
   5   0   5    9.20    2.00
   5   0   5    9.40    2.40
   5   0   5    6.90    2.60
   6   0   5   -0.60    1.10
   6   0   5    0.40    1.60
   6   0   5   -0.20    1.70
   6   0   5    0.10    2.10
   7   0   5  299.47   12.70
   7   0   5  304.47   14.30
   7   0   5  295.97   12.70
   7   0   5  288.97   13.10
   8   0   5    0.00    2.20
   8   0   5   -1.20    2.10
   8   0   5   -0.60    1.40
   8   0   5    1.50    1.70
   9   0   5   85.09    6.10
   9   0   5   83.39    6.10
   9   0   5   78.89    6.50
  10   0   5    1.20    2.90
  10   0   5   -1.40    1.90
  10   0   5   -1.70    1.50
  11   0   5   50.69    6.40
  11   0   5   54.89    7.70
  12   0   5    0.40    2.30
  12   0   5    0.60    3.00
  13   0   5   30.20    5.70
  13   0   5   19.50    4.80
  14   0   5    0.50    2.70
  14   0   5    1.10    3.60
  15   0   5  106.39    9.70
  15   0   5  118.99   10.00
  16   0   5   -2.20    3.60
  16   0   5    1.60    3.80
 -17  -1   5    1.50    4.20
  17  -1  -5    4.20    3.60
  17   1  -5    0.00    4.20
 -17   1   5   -3.80    3.30
  16  -1  -5    2.00    3.40
 -16  -1   5   -1.30    3.70
 -16   1   5   -2.30    3.60
  16   1  -5   -1.80    2.80
 -15  -1   5    6.90    4.90
 -15   1   5    8.70    4.50
  15   1  -5    7.90    4.40
  14  -1  -5   37.80    5.20
 -14  -1   5   35.50    7.00
 -14   1   5   33.60    4.50
  14   1  -5   27.60    5.30
 -14   1   5   26.10    5.10
 -13  -1   5   31.40    6.40
  13  -1  -5   22.30    4.10
 -13   1   5   22.20    3.70
  13   1  -5   40.50    7.40
 -13   1   5   16.70    5.00
 -12  -1   5    4.40    3.80
  12  -1  -5    2.90    2.40
 -12   1   5    6.90    3.60
  12   1  -5    4.20    3.20
 -12   1   5    6.90    2.40
  11  -1  -5   86.49    5.90
 -11  -1   5  104.49   10.80
 -11   1   5   89.99    5.60
  11   1  -5   93.69    7.80
 -11   1   5   96.99    7.90
 -10  -1   5    6.00    3.70
  10  -1  -5    7.50    2.20
 -10  -1   5    6.60    3.20
 -10   1   5   10.60    3.60
 -10   1   5    6.80    2.10
   9  -1  -5    2.10    1.60
  -9  -1   5    4.10    3.30
  -9  -1   5    1.50    2.50
  -9   1   5    6.40    2.60
   9   1  -5    1.90    2.90
   8  -1  -5   18.60    4.00
  -8  -1   5   15.50    4.30
   8  -1  -5   17.50    2.30
  -8  -1   5   24.20    4.50
  -8   1   5   25.50    4.30
   8   1  -5   12.20    3.70
  -8   1   5   21.50    2.50
   8   1  -5   26.20    4.70
  -7  -1   5  493.35   20.80
  -7  -1   5  515.45   21.90
   7  -1  -5  506.55   20.40
   7  -1  -5  521.85   17.80
   7   1  -5  506.05   20.30
  -7   1   5  507.95   17.80
  -7   1   5  503.75   20.20
  -6  -1   5   86.29    7.10
  -6  -1   5   74.89    6.00
   6  -1  -5   81.09    3.50
   6   1  -5   72.79    5.50
  -6   1   5   77.69    5.60
   6   1  -5   83.49    6.60
  -6   1   5   80.99    3.80
  -5  -1   5   69.79    5.50
  -5  -1   5   74.69    6.50
   5  -1  -5   75.49    3.20
   5  -1  -5   73.49    5.40
  -5   1   5   76.09    5.40
   5   1  -5   83.89    5.40
   5   1  -5   75.29    6.10
  -5   1   5   78.29    3.60
  -4  -1   5    3.20    1.90
  -4  -1   5    5.60    3.20
   4  -1  -5    8.10    2.80
  -4   1   5    6.60    1.40
   4   1  -5    2.70    1.80
   4   1  -5    1.00    2.30
  -4   1   5    1.90    2.10
   4   1  -5    0.00    1.60
  -3  -1   5  259.07   12.60
   3  -1  -5  285.37   11.90
   3   1  -5  269.17   11.10
   3   1  -5  279.77   11.00
  -3   1   5  279.47   10.00
  -3   1   5  278.57   11.60
   3   1  -5  264.77   12.30
  -3   1   5  266.87    9.80
   2  -1  -5   26.30    3.60
  -2  -1   5   20.70    3.60
  -2   1   5   15.80    2.40
  -2   1   5   29.40    2.50
   2   1  -5   22.40    2.70
   2   1  -5   26.40    3.70
  -2   1   5   20.70    2.40
   1  -1  -5    1.60    1.70
  -1  -1   5   -1.50    2.00
   1   1  -5   -1.20    1.20
  -1   1   5    1.30    1.50
   1   1  -5    0.80    1.10
  -1   1   5    1.50    1.70
   1   1  -5   -2.30    1.80
  -1   1   5    0.30    1.20
   0  -1  -5   68.99    4.80
   0  -1   5   61.39    5.40
   0  -1  -5   65.99    4.50
   0   1   5   71.79    4.80
   0   1  -5   72.59    3.40
   0   1  -5   67.49    5.00
   0   1  -5   68.19    3.30
   0   1   5   74.19    4.80
   1  -1   5  279.47   12.20
   1  -1   5  287.67    9.80
  -1  -1  -5  286.27   12.00
  -1  -1  -5  296.27   12.10
  -1   1  -5  289.37    9.80
  -1   1  -5  292.57   11.90
   1   1   5  281.77   12.00
   1   1   5  287.87   12.10
  -2  -1  -5  411.96   15.70
   2  -1   5  411.96   13.30
  -2  -1  -5  419.06   16.00
   2  -1   5  392.06   15.60
  -2   1  -5  382.86   15.20
   2   1   5  375.96   15.50
   2   1   5  378.66   15.90
  -2   1  -5  365.26   13.10
   3  -1   5  464.35   15.90
  -3  -1  -5  468.05   18.50
  -3  -1  -5  452.15   17.80
   3  -1   5  464.95   17.80
   3   1   5  468.75   18.10
  -3   1  -5  447.56   17.50
  -3   1  -5  464.05   15.80
   3   1   5  466.45   18.70
  -4  -1  -5   26.90    3.50
  -4  -1  -5   22.70    3.80
   4  -1   5   26.50    3.50
   4  -1   5   24.20    2.20
   4   1   5   22.40    3.10
   4   1   5   27.60    4.30
  -4   1  -5   23.90    3.20
  -4   1  -5   19.70    2.20
  -5  -1  -5  655.83   24.90
   5  -1   5  627.74   23.40
   5  -1   5  623.24   21.90
  -5  -1  -5  619.64   23.50
  -5   1  -5  614.44   23.00
   5   1   5  641.04   23.90
  -5   1  -5  586.24   23.60
   5   1   5  640.14   25.40
   6  -1   5    0.00    1.30
   6  -1   5    0.10    1.60
  -6  -1  -5    2.30    1.90
   6  -1   5    2.00    1.80
  -6  -1  -5   -2.80    1.90
  -6   1  -5    0.50    1.60
   6   1   5    2.70    2.10
   6   1   5   -0.70    2.20
   7  -1   5   55.89    4.80
   7  -1   5   46.30    3.90
   7  -1   5   47.30    5.40
  -7  -1  -5   41.80    5.60
   7   1   5   49.99    6.00
  -7   1  -5   35.40    4.10
   7   1   5   50.49    6.00
   7   1   5   42.00    6.00
   8  -1   5   64.19    4.80
   8  -1   5   50.99    6.00
  -8  -1  -5   39.00    5.70
   8  -1   5   52.89    5.50
   8   1   5   51.19    6.10
   8   1   5   53.89    5.50
  -8   1  -5   61.49    5.40
  -9  -1  -5    4.60    3.20
   9  -1   5    1.20    2.20
   9  -1   5    2.10    2.20
   9  -1   5   -0.80    2.20
  -9   1  -5    5.50    2.80
   9   1   5   -1.20    2.10
  10  -1   5  528.95   20.80
  10  -1   5  455.05   19.80
 -10  -1  -5  517.05   23.00
  10   1   5  483.45   21.60
 -10   1  -5  491.55   20.80
  11  -1   5    3.70    2.80
 -11  -1  -5    2.20    3.50
 -11   1  -5    2.50    3.10
  11   1   5    4.80    2.90
 -12  -1  -5   80.49    9.80
  12  -1   5   85.19    7.30
  12   1   5   64.99    8.50
 -12   1  -5   72.49    9.80
  13  -1   5   14.80    4.30
  13  -1   5   25.30    5.40
 -13  -1  -5   15.20    5.00
  13   1   5   23.10    5.60
  14  -1   5    0.60    3.40
  14  -1   5    0.70    2.70
 -14  -1  -5    1.50    4.40
  14   1   5   -2.60    3.40
  15  -1   5    7.10    4.20
 -15  -1  -5    5.20    4.80
  15  -1   5    1.40    3.20
  15   1   5   -1.40    3.90
  16  -1   5    1.30    4.20
  16  -1   5   -3.40    3.00
 -16  -1  -5    2.80    4.50
  16   1   5   -0.50    4.50
 -16  -2   5    2.00    4.70
  16   2  -5    0.70    3.40
 -16   2   5   -3.50    4.00
 -15  -2   5   10.00    5.80
  15   2  -5   19.90    6.60
 -14  -2   5  164.18   14.20
  14   2  -5  177.98   13.10
 -14   2   5  176.18   12.60
 -13  -2   5    4.20    4.80
  13   2  -5    0.20    2.60
 -13   2   5    4.30    3.30
 -12  -2   5  157.18   12.90
  12   2  -5  131.59   10.60
 -12   2   5  150.28   10.50
 -11  -2   5    8.60    5.20
  11   2  -5   11.10    4.40
 -11   2   5    7.60    3.50
 -10  -2   5  282.27   16.70
 -10   2   5  271.67   14.00
  10   2  -5  252.47   14.20
  -9  -2   5   -0.30    3.30
   9   2  -5    4.20    3.10
  -9   2   5   -0.70    2.20
  -8  -2   5   24.70    5.90
   8   2  -5   36.40    6.90
  -8   2   5   27.90    4.70
  -7  -2   5   68.39    8.80
   7   2  -5   85.39    8.50
  -7   2   5   66.39    7.40
  -6  -2   5   35.70    6.20
   6   2  -5   47.50    6.20
  -6   2   5   36.10    5.20
   6   2  -5   35.80    4.70
  -5  -2   5  926.31   36.30
   5  -2  -5  882.11   34.30
   5   2  -5  902.61   33.70
  -5   2   5  967.80   34.20
   5   2  -5  894.01   33.80
   5   2  -5  914.91   35.60
  -4  -2   5  123.39    9.30
   4   2  -5  127.09    7.40
  -4   2   5  132.09    5.10
  -4   2   5  127.19    4.90
   4   2  -5  122.39    8.90
   4   2  -5  131.49    7.80
  -4   2   5  139.09    8.20
  -3  -2   5  118.89    8.90
   3  -2  -5  119.79    5.50
  -3  -2   5  118.69    6.50
  -3   2   5  131.19    7.80
   3   2  -5  115.59    6.90
   3   2  -5  121.59    8.40
  -3   2   5  116.79    5.80
   2  -2  -5  414.46   18.30
   2  -2  -5  449.06   16.40
  -2  -2   5  422.46   16.70
  -2  -2   5  435.16   19.40
   2   2  -5  450.45   17.30
  -2   2   5  450.65   18.40
  -2   2   5  427.06   16.70
  -1  -2   5   46.20    6.10
   1  -2  -5   47.70    4.50
  -1  -2   5   42.90    3.60
  -1   2   5   44.10    4.60
  -1   2   5   34.80    4.50
   1   2  -5   50.29    6.20
   1   2  -5   55.99    4.10
   0  -2   5    1.90    1.50
   0  -2   5    1.90    2.50
   0  -2  -5   -2.30    1.90
   0   2  -5    0.80    2.40
   0   2   5    2.60    2.30
   0   2   5   -0.50    2.10
   0   2  -5   -0.50    1.30
  -1  -2  -5   26.60    4.20
   1  -2   5   36.80    3.50
   1  -2   5   25.20    4.30
  -1  -2  -5   28.00    4.70
   1   2   5   24.20    4.30
   1   2   5   22.80    3.60
  -1   2  -5   29.20    4.20
  -1   2  -5   19.90    2.70
   2  -2   5 1537.55   52.59
   2  -2   5 1570.94   54.79
  -2  -2  -5 1581.34   54.99
  -2  -2  -5 1530.05   55.09
  -2   2  -5 1598.94   52.69
  -2   2  -5 1559.44   54.09
   2   2   5 1581.74   55.29
   2   2   5 1512.55   55.19
  -3  -2  -5 2963.60   99.89
  -3  -2  -5 2817.32   99.39
   3  -2   5 2934.91   97.09
   3  -2   5 2992.20   99.19
  -3   2  -5 2928.31   96.79
   3   2   5 2953.50   99.89
  -3   2  -5 2908.11   98.19
  -4  -2  -5  413.06   18.00
   4  -2   5  414.36   17.60
   4  -2   5  420.36   15.90
  -4  -2  -5  414.36   18.70
   4   2   5  419.06   18.40
  -4   2  -5  414.96   16.70
   4   2   5  406.96   18.90
  -4   2  -5  424.76   15.60
   5  -2   5    0.30    2.20
  -5  -2  -5    1.10    3.00
   5  -2   5    1.60    1.50
   5   2   5    0.50    2.90
  -5   2  -5    1.00    2.00
  -5   2  -5    2.80    1.40
   5   2   5    0.50    2.30
   6  -2   5  130.79    7.30
  -6  -2  -5  168.58   10.80
   6  -2   5  151.88    8.80
   6   2   5  148.79    9.60
  -6   2  -5  155.08    7.40
  -6   2  -5  138.99    7.80
  -7  -2  -5    0.00    3.00
   7  -2   5    1.00    1.80
   7  -2   5    1.30    2.50
   7   2   5    5.00    3.00
  -7   2  -5   -0.40    1.60
  -8  -2  -5  155.58   11.40
   8  -2   5  135.59    8.00
   8  -2   5  147.99    9.00
   8  -2   5  143.49    8.90
  -8   2  -5  150.98    8.10
   8   2   5  141.29   10.10
   9  -2   5   10.80    3.30
  -9  -2  -5   16.80    5.50
   9  -2   5   13.00    3.70
   9  -2   5    9.00    2.90
   9   2   5   18.00    5.10
  -9   2  -5    9.40    3.20
  10  -2   5  107.39    7.80
 -10  -2  -5  127.49   11.00
  10  -2   5  139.79    8.80
  10  -2   5   97.39    8.30
 -10   2  -5  127.69    8.20
  10   2   5  115.29    9.60
 -11  -2  -5    7.50    4.40
  11  -2   5    4.80    3.10
 -11   2  -5   10.40    3.50
  11   2   5    6.70    3.90
 -12  -2  -5   -1.00    4.20
  12   2   5   -0.70    3.50
 -12   2  -5    2.00    3.50
 -13  -2  -5   13.40    5.60
  13  -2   5    6.70    3.80
 -13   2  -5   17.50    5.30
  13   2   5    9.00    5.20
  14  -2   5    0.60    3.50
 -14  -2  -5    4.10    5.50
  14   2   5    1.60    4.20
 -14   2  -5   17.40    5.70
  15  -2   5   55.79    7.80
 -15  -2  -5   58.29   10.40
  15   2   5   54.09    8.60
 -15   2  -5   62.89    9.10
 -14  -3   5    6.20    6.00
  14   3  -5   -3.30    3.10
 -14   3   5   -0.60    3.20
 -13  -3   5   -2.20    4.60
  13   3  -5    2.70    3.80
 -13   3   5    0.30    3.40
 -12  -3   5   32.60    8.10
 -12   3   5   52.59    7.40
  12   3  -5   44.60    8.10
 -11  -3   5   -1.60    4.30
  11   3  -5    0.50    3.00
 -11   3   5    3.80    3.40
 -10  -3   5   43.50    9.20
  10   3  -5   46.30    6.90
 -10   3   5   50.19    7.30
  -9  -3   5    8.20    5.90
  -9   3   5   10.40    3.60
   9   3  -5    3.80    3.50
  -8  -3   5    9.60    5.10
  -8   3   5   28.60    5.50
   8   3  -5   18.90    4.90
  -7  -3   5    2.40    4.10
  -7   3   5    4.50    2.90
   7   3  -5    5.30    3.20
  -6  -3   5   51.09    8.60
   6   3  -5   76.09    8.50
  -6   3   5   45.70    5.90
  -5  -3   5    6.60    4.00
  -5   3   5    1.40    2.90
  -5   3   5    5.20    1.40
   5   3  -5    3.50    3.30
   4  -3  -5    5.00    2.10
  -4  -3   5    3.60    4.00
  -4   3   5    8.60    2.30
   4   3  -5   11.50    3.50
  -4   3   5    3.50    2.40
  -3  -3   5   17.30    5.30
   3  -3  -5   14.60    3.00
  -3  -3   5   14.70    3.60
  -3   3   5    8.30    3.00
   3   3  -5   10.30    3.30
  -3   3   5    6.10    2.60
   2  -3  -5   57.49    5.60
  -2  -3   5   38.20   10.60
  -2  -3   5   41.90    4.80
   2   3  -5   54.09    6.50
  -2   3   5   58.89    5.80
  -2   3   5   53.89    6.80
  -1  -3   5    1.70    2.30
  -1  -3   5   -2.50    2.70
   1  -3  -5    0.20    2.50
  -1   3   5   -0.90    2.70
   1   3  -5    1.60    2.20
  -1   3   5    1.60    2.80
   0  -3  -5   33.00    5.00
   0  -3   5   48.40    5.60
   0  -3   5   38.20    6.50
   0   3  -5   31.50    4.40
   0   3   5   33.60    5.60
   0   3   5   34.50    5.40
  -1  -3  -5   14.50    4.10
   1  -3   5   17.90    4.80
   1  -3   5   20.40    3.60
   1   3   5   12.40    3.70
  -1   3  -5   11.80    4.60
   1   3   5   27.40    5.30
  -1   3  -5   23.00    3.90
  -2  -3  -5   31.50    5.50
   2  -3   5   30.20    5.60
   2  -3   5   28.60    4.10
   2   3   5   16.70    3.60
   2   3   5   28.90    5.80
  -2   3  -5   34.70    5.40
  -2   3  -5   34.20    4.30
   3  -3   5   11.10    2.90
   3  -3   5    8.80    4.00
  -3  -3  -5   15.10    4.40
  -3   3  -5    9.90    3.50
   3   3   5   15.90    4.80
  -3   3  -5   11.20    3.00
  -4  -3  -5  140.39   10.80
   4  -3   5  128.19    8.00
   4  -3   5  164.08   10.40
   4   3   5  144.09   10.50
  -4   3  -5  150.08    8.00
  -4   3  -5  135.99    8.80
  -5  -3  -5   41.60    6.80
   5  -3   5   46.10    5.20
   5  -3   5   46.40    6.70
  -5   3  -5   44.90    4.80
   5   3   5   48.20    7.50
  -5   3  -5   40.30    5.10
  -6  -3  -5   15.60    5.50
   6  -3   5   11.70    4.00
   6   3   5   16.40    5.10
  -6   3  -5   13.60    3.60
  -6   3  -5   14.30    3.20
   7  -3   5  177.08   10.30
   7  -3   5  199.68   11.60
  -7  -3  -5  206.68   14.10
  -7   3  -5  186.58   10.30
  -7   3  -5  214.48   10.10
   7   3   5  199.78   13.00
   8  -3   5    8.40    3.80
  -8  -3  -5    6.20    4.20
   8  -3   5    3.90    3.00
  -8   3  -5    7.10    3.00
   8   3   5   13.00    5.20
  -8   3  -5    5.70    3.10
   9  -3   5   -0.40    3.00
  -9  -3  -5   -0.60    4.20
  -9   3  -5   -0.70    2.70
   9   3   5   -0.50    3.40
 -10  -3  -5   69.99   10.40
  10  -3   5   54.49    6.90
  10   3   5   77.79   10.80
 -10   3  -5   54.19    6.30
  11  -3   5    3.10    3.60
 -11  -3  -5    7.80    5.50
 -11   3  -5    6.30    3.50
  11   3   5    2.80    3.60
 -12  -3  -5   50.59    9.40
  12   3   5   39.40    7.40
 -12   3  -5   75.89    8.10
  13  -3   5    7.60    4.50
 -13  -3  -5   14.30    6.90
  13   3   5   10.50    5.70
 -13   3  -5   12.50    4.90
 -11  -4   5    7.80    6.70
 -11   4   5   17.10    5.80
  11   4  -5    9.40    5.10
 -10  -4   5   76.09   12.10
  -9  -4   5   -2.00    4.70
   9   4  -5    0.50    3.50
  -9   4   5    0.70    3.30
  -8  -4   5   14.20    6.70
  -8   4   5   19.80    6.00
   8   4  -5   13.20    4.60
  -7  -4   5   14.40    6.40
   7   4  -5    6.50    4.10
  -7   4   5   25.60    5.30
  -6  -4   5    2.60    5.40
   6   4  -5    2.30    3.30
  -6   4   5    3.50    3.30
  -5  -4   5   28.90    8.00
   5  -4  -5   26.80    3.40
   5   4  -5   18.10    4.70
  -5   4   5   33.00    6.20
  -5   4   5   28.20    3.40
  -4  -4   5   32.50    8.00
   4  -4  -5   28.20    4.20
  -4   4   5   22.50    4.20
   4   4  -5   39.80    6.40
  -4   4   5   17.10    4.60
   3  -4  -5    1.60    2.90
  -3  -4   5    1.70    4.70
  -3   4   5    2.10    3.30
   3   4  -5   -2.10    2.50
  -3   4   5    0.80    3.20
  -2  -4   5    0.60    4.70
   2  -4  -5    1.80    3.60
   2   4  -5    5.80    3.50
  -2   4   5    0.30    3.50
  -2   4   5    1.70    3.60
   1  -4  -5    3.00    3.70
  -1  -4   5    0.10    4.40
  -1   4   5    2.00    2.60
  -1   4   5    3.70    4.00
   1   4  -5    0.90    3.00
   0  -4  -5   51.79    7.30
   0  -4   5   48.40    8.70
   0   4  -5   47.20    6.20
   0   4   5   51.69    7.50
  -1  -4  -5    5.70    4.30
   1  -4   5   -0.70    4.40
   1   4   5    3.70    3.00
  -2  -4  -5    6.90    4.60
   2  -4   5    6.90    4.90
  -2   4  -5    8.30    4.00
   2   4   5   10.60    4.70
   3  -4   5    4.40    4.60
  -3  -4  -5    1.80    4.40
  -3   4  -5    3.80    3.10
   3   4   5    2.30    3.90
  -4  -4  -5   -5.80    3.40
   4  -4   5    2.30    4.20
  -4   4  -5   -3.50    2.20
   4   4   5   -0.50    2.60
  -5  -4  -5   41.00    8.20
   5  -4   5   47.40    7.80
   5   4   5   43.50    7.50
  -6  -4  -5    1.70    4.60
   6  -4   5    0.90    3.90
  -6   4  -5   -2.20    3.40
   6   4   5   -0.30    2.80
   7  -4   5    1.00    4.00
  -7  -4  -5    6.10    5.40
  -7   4  -5    3.00    3.10
   7   4   5   -0.20    3.20
  -8  -4  -5    3.30    5.30
   8  -4   5    2.20    4.20
   8   4   5   -0.50    3.20
  -8   4  -5    5.00    3.50
   9  -4   5    9.20    5.10
  -9  -4  -5   -1.80    4.90
  -9   4  -5   10.50    4.10
   9   4   5   11.00    6.00
  10  -4   5   15.50    7.10
 -10  -4  -5   10.10    6.90
  10   4   5    9.30    5.40
 -10   4  -5   11.40    4.30
   5  -5  -5   24.80    4.20
  -5  -5   5   35.30    9.70
  -5   5   5   30.80    7.30
   5   5  -5   40.80    8.40
   4  -5  -5   59.49    6.90
  -4  -5   5   61.69   11.90
  -4   5   5   54.99    8.10
   4   5  -5   71.29    9.80
   3  -5  -5   39.30    6.70
  -3   5   5   62.69   10.30
   3   5  -5   37.30    7.10
  -2  -5   5    9.00    6.90
   2  -5  -5    1.80    4.30
   2   5  -5    1.60    3.50
  -2   5   5   -3.20    2.60
  -1  -5   5   51.29   10.40
   1  -5  -5   31.20    7.00
   1   5  -5   27.80    6.60
   0  -5  -5   18.40    6.10
   0  -5   5   24.20    8.20
   0   5  -5   25.20    5.50
   0   5   5   15.40    4.80
  -1  -5  -5    8.70    5.60
   1  -5   5   15.50    6.90
   1   5   5   18.20    6.60
  -1   5  -5   18.50    5.30
   2  -5   5   14.40    7.00
  -2  -5  -5    9.60    6.30
  -2   5  -5   11.00    4.50
   2   5   5    8.70    4.70
  -3  -5  -5    1.60    5.70
   3  -5   5    5.50    6.30
   3   5   5   -0.30    4.20
  -3   5  -5    2.70    3.70
  -4  -5  -5    3.50    6.50
   4  -5   5   -0.50    5.40
  -4   5  -5   -0.30    3.50
   4   5   5   -2.00    3.10
 -17   0   6    1.60    4.10
 -17   0   6    1.60    3.40
 -16   0   6    1.50    3.40
 -16   0   6   -2.80    3.40
 -15   0   6   -3.20    2.60
 -15   0   6    0.80    3.30
 -14   0   6  177.28   11.30
 -14   0   6  173.68   12.40
 -13   0   6    1.00    2.60
 -13   0   6   -4.00    2.50
 -12   0   6  146.79   10.00
  12   0  -6  155.08   10.10
 -12   0   6  171.48   11.10
 -11   0   6    1.50    2.90
 -11   0   6    1.00    2.70
  11   0  -6    2.00    2.40
  10   0  -6   89.99    6.90
 -10   0   6   92.39    7.30
 -10   0   6   79.49    6.90
   9   0  -6    1.50    2.20
  -9   0   6    0.40    2.10
  -9   0   6    1.70    2.30
   8   0  -6    0.00    1.80
  -8   0   6   -0.40    2.20
  -8   0   6    2.60    2.00
   8   0  -6    0.30    1.80
   7   0  -6    1.80    1.70
  -7   0   6   -1.20    1.70
  -7   0   6   -0.80    2.10
   7   0  -6   -2.00    1.70
   6   0  -6   55.59    7.20
  -6   0   6   38.70    4.50
  -6   0   6   37.30    4.20
   6   0  -6   38.90    4.60
   5   0  -6   -0.40    1.40
   5   0  -6    0.20    1.80
  -5   0   6   -1.90    1.40
  -5   0   6   -0.50    2.20
  -4   0   6  322.07   13.60
  -4   0   6  341.57   13.30
   4   0  -6  340.67   13.40
   4   0  -6  338.87   13.40
   3   0  -6   -0.10    1.30
  -3   0   6    1.50    2.00
  -3   0   6   -1.00    1.20
   3   0  -6   -0.20    1.40
  -2   0   6   54.29    4.30
   2   0  -6   49.40    3.50
   2   0  -6   47.90    3.70
  -2   0   6   51.59    3.50
  -1   0   6   -0.80    1.10
  -1   0   6    2.10    1.80
   1   0  -6    0.90    1.40
   0   0   6   44.70    2.90
   0   0  -6   39.20    3.40
   0   0   6   35.40    3.60
   0   0  -6   47.10    2.90
  -1   0  -6    0.70    1.30
  -1   0  -6    0.20    1.00
   1   0   6    0.50    1.80
   1   0   6   -1.20    1.00
  -2   0  -6   15.40    1.80
   2   0   6    8.70    2.50
  -2   0  -6    9.90    2.20
   2   0   6   17.20    2.00
   3   0   6    1.20    1.10
   3   0   6    0.30    1.90
   3   0   6    0.00    1.50
   4   0   6   12.10    2.10
   4   0   6    6.10    2.30
   4   0   6    6.90    2.00
   4   0   6   10.20    3.00
   5   0   6    0.40    1.30
   5   0   6   -1.80    1.90
   5   0   6   -2.10    1.40
   5   0   6    0.40    1.60
   6   0   6   36.60    3.80
   6   0   6   41.30    4.70
   6   0   6   33.90    5.60
   6   0   6   42.90    3.80
   7   0   6   -1.40    2.00
   7   0   6    0.00    1.90
   7   0   6    0.40    1.70
   7   0   6   -0.70    1.40
   8   0   6  116.19    7.50
   8   0   6  124.19    7.20
   8   0   6  104.69    6.80
   8   0   6  111.79    9.30
   9   0   6    1.00    1.90
   9   0   6    1.90    2.40
   9   0   6    1.40    2.00
  10   0   6   35.40    5.30
  10   0   6   47.60    6.00
  10   0   6   27.20    4.50
  11   0   6   -1.70    2.60
  11   0   6    2.90    2.90
  12   0   6  294.27   15.10
  12   0   6  278.67   14.70
  13   0   6    1.90    2.80
  13   0   6   -1.80    3.10
  14   0   6   40.80    6.70
  14   0   6   31.90    6.40
  15   0   6   -2.60    3.30
  15   0   6   -1.90    3.00
  16   0   6    5.20    4.40
  16   0   6    7.40    4.30
 -17  -1   6   16.70    5.80
 -17   1   6   13.90    5.50
  17   1  -6   16.00    6.40
 -16  -1   6   37.60    7.70
  16  -1  -6   17.50    5.60
 -16   1   6   30.80    7.20
  16   1  -6   38.60    8.20
  15  -1  -6   76.79    8.30
 -15  -1   6   94.39   11.10
 -15   1   6   89.29    6.40
 -15   1   6   84.89   10.00
  15   1  -6   76.29    8.70
  14  -1  -6    2.20    2.60
 -14  -1   6    2.30    4.10
 -14   1   6    3.10    2.40
  14   1  -6    2.50    3.60
 -14   1   6    7.10    4.20
 -13  -1   6   15.20    5.30
  13  -1  -6    6.50    2.70
 -13   1   6   13.20    3.10
 -13   1   6   15.90    4.80
  13   1  -6   12.00    4.00
  12  -1  -6   33.20    4.40
 -12  -1   6   25.70    6.10
 -12  -1   6   23.30    5.90
 -12   1   6   22.40    3.50
 -12   1   6   23.30    5.40
  12   1  -6   51.29    7.30
 -11  -1   6  197.68   15.00
 -11  -1   6  219.18   13.30
  11  -1  -6  234.28   10.30
 -11   1   6  219.08    9.90
 -11   1   6  234.88   12.80
 -10  -1   6   13.90    4.30
  10  -1  -6   16.20    2.80
 -10  -1   6   22.10    5.10
 -10   1   6   22.50    3.20
 -10   1   6   20.90    4.10
   9  -1  -6   17.90    2.50
  -9  -1   6    4.00    3.30
  -9  -1   6   12.30    3.50
   9   1  -6   10.20    3.70
  -9   1   6   12.70    3.60
  -8  -1   6   73.69    6.60
   8  -1  -6   87.39    4.80
  -8  -1   6   99.19    9.60
   8   1  -6   90.09    7.40
  -8   1   6   92.29    6.50
   8   1  -6   76.69    6.80
  -8   1   6   85.49    4.60
   7  -1  -6   20.70    3.80
  -7  -1   6   25.60    4.10
  -7  -1   6   35.30    5.60
   7  -1  -6   20.60    2.20
  -7   1   6   25.80    2.60
   7   1  -6   24.20    3.70
  -7   1   6   24.60    3.90
   7   1  -6   16.90    3.80
   6  -1  -6   20.20    2.00
   6  -1  -6   22.10    3.60
  -6  -1   6   30.20    5.50
  -6  -1   6   27.90    4.80
  -6   1   6   23.40    2.50
   6   1  -6   26.80    3.90
   6   1  -6   17.10    3.90
  -6   1   6   20.00    3.30
  -5  -1   6  264.47   11.80
  -5  -1   6  243.48   12.90
   5  -1  -6  264.77    9.30
   5  -1  -6  262.47   11.90
   5   1  -6  256.57   11.30
   5   1  -6  249.97   12.40
  -5   1   6  248.68   11.50
  -5   1   6  251.77    9.70
  -4  -1   6  628.64   23.60
   4  -1  -6  648.24   24.10
   4  -1  -6  649.34   21.70
  -4  -1   6  613.54   24.90
   4   1  -6  650.03   23.30
  -4   1   6  626.24   23.70
   4   1  -6  632.64   24.60
  -4   1   6  631.54   21.90
   3  -1  -6    9.50    2.30
  -3  -1   6    8.80    2.30
  -3  -1   6    4.80    2.70
  -3   1   6    7.90    1.70
  -3   1   6    4.80    1.80
   3   1  -6    8.20    2.70
   3   1  -6    5.20    1.80
   2  -1  -6  270.97   12.00
  -2  -1   6  299.67   13.10
  -2   1   6  274.97   10.70
  -2   1   6  293.47   12.10
   2   1  -6  270.37   12.50
   2   1  -6  282.17   10.90
  -2   1   6  288.67   11.00
   1  -1  -6  173.68    8.50
  -1  -1   6  168.28    9.00
   1   1  -6  161.38    6.80
  -1   1   6  181.18    7.40
   1   1  -6  171.88    6.80
  -1   1   6  184.18    7.90
  -1   1   6  168.68    8.40
   1   1  -6  171.98    8.80
   0  -1  -6  806.02   28.70
   0  -1   6  790.92   29.10
   0   1  -6  804.12   26.60
   0   1   6  796.42   28.40
   0   1   6  773.52   27.70
   0   1  -6  799.52   28.80
   0   1   6  811.92   28.70
   0   1  -6  780.82   26.50
   1  -1   6  370.16   15.90
  -1  -1  -6  400.66   15.70
  -1  -1  -6  402.86   15.70
   1   1   6  399.86   15.70
  -1   1  -6  386.36   15.50
   1   1   6  391.66   15.80
   2  -1   6    3.50    2.30
  -2  -1  -6    4.00    2.00
  -2  -1  -6    9.40    2.90
  -2   1  -6    6.50    2.00
   2   1   6    8.10    2.40
   2   1   6    4.40    2.40
   3  -1   6  368.46   12.20
  -3  -1  -6  364.76   15.40
  -3  -1  -6  366.96   14.70
   3  -1   6  343.07   14.70
  -3   1  -6  341.87   14.30
   3   1   6  344.17   14.70
   3   1   6  367.96   15.60
   4  -1   6    2.90    2.10
  -4  -1  -6    1.50    2.50
   4  -1   6    2.00    1.00
  -4  -1  -6    0.50    1.60
  -4   1  -6    2.20    1.80
   4   1   6    2.00    1.60
  -4   1  -6    0.20    1.20
   4   1   6   -0.30    2.10
  -5  -1  -6   51.19    5.60
   5  -1   6   52.69    3.40
  -5  -1  -6   56.89    4.80
   5  -1   6   63.49    5.10
  -5   1  -6   63.89    4.80
   5   1   6   60.79    7.10
  -5   1  -6   58.69    3.90
   5   1   6   57.29    5.00
  -6  -1  -6   30.60    4.80
   6  -1   6   41.90    4.70
  -6  -1  -6   35.10    4.90
   6  -1   6   35.80    3.10
   6  -1   6   40.40    5.60
   6   1   6   33.40    5.70
   6   1   6   33.10    4.40
  -6   1  -6   31.30    3.60
   7  -1   6    3.60    2.30
  -7  -1  -6    1.70    2.50
   7  -1   6    0.40    2.10
  -7  -1  -6    2.50    2.20
   7  -1   6    3.20    1.60
   7   1   6    7.70    3.10
  -7   1  -6    6.40    2.30
   8  -1   6  121.29    8.50
   8  -1   6  148.29    8.60
   8  -1   6  145.59    7.50
   8   1   6  140.49    8.80
   8   1   6  126.39    8.70
  -8   1  -6  149.79    8.20
   9  -1   6   97.99    7.20
   9  -1   6   89.19    6.30
  -9  -1  -6   74.49    8.40
  -9   1  -6  106.39    7.40
   9   1   6   99.69    7.60
  10  -1   6  354.66   16.20
 -10  -1  -6  350.86   18.10
  10  -1   6  359.16   15.50
  10   1   6  345.07   17.00
  11  -1   6    0.40    2.90
 -11  -1  -6   -2.50    3.20
  11  -1   6    0.70    2.60
  11   1   6    0.80    3.00
  12  -1   6   58.79    7.40
  12  -1   6   53.89    7.00
 -12  -1  -6   40.10    7.60
  12   1   6   49.30    7.50
 -13  -1  -6   15.60    5.60
  13  -1   6   21.20    4.40
  13  -1   6   20.90    4.90
  13   1   6   17.20    4.80
  14  -1   6   10.30    4.20
  14  -1   6   10.90    4.40
 -14  -1  -6    7.50    4.50
  14   1   6    5.30    4.00
  15  -1   6   12.80    4.50
 -15  -1  -6    3.40    4.50
  15  -1   6    7.10    4.30
  15   1   6   11.80    5.50
  16  -1   6   23.40    5.60
  16  -1   6   16.80    5.70
 -16  -1  -6   15.40    6.00
  16   1   6   23.60    7.30
 -16  -2   6    5.10    5.00
  16   2  -6    4.90    4.50
 -16   2   6    7.90    5.00
 -15  -2   6   -0.30    4.50
  15   2  -6   -1.00    3.50
 -15   2   6    2.10    4.20
 -14  -2   6  140.59   14.70
 -14   2   6  127.69   11.00
  14   2  -6  157.98   12.00
 -13  -2   6  262.47   17.00
 -13   2   6  236.08   14.40
  13   2  -6  248.48   15.20
 -12  -2   6    1.80    4.00
  12   2  -6    3.20    3.00
 -12   2   6    3.60    3.30
 -11  -2   6   88.39   10.90
  11   2  -6   73.39    7.60
 -11   2   6   92.59    8.10
 -10  -2   6  324.27   18.50
  10   2  -6  317.47   16.10
 -10   2   6  299.37   15.40
  -9  -2   6  207.98   13.80
  -9   2   6  187.08   11.00
   9   2  -6  184.78   11.20
  -8  -2   6    0.90    3.40
   8   2  -6    5.90    3.40
  -8   2   6    6.20    3.20
  -7   2   6  107.59    9.60
   7   2  -6  116.79    7.80
  -6  -2   6  510.75   23.20
   6   2  -6  498.25   20.60
   6   2  -6  490.65   20.50
  -5  -2   6  207.68   12.50
   5   2  -6  184.68    9.90
  -5   2   6  198.38   10.60
   5   2  -6  195.28   10.60
  -4  -2   6   14.50    4.40
   4  -2  -6   15.10    2.90
  -4   2   6   22.90    1.90
   4   2  -6   16.10    4.00
  -4   2   6   34.20    5.40
   4   2  -6   16.70    3.30
  -4   2   6   18.00    2.10
   4   2  -6   19.20    3.30
   3  -2  -6    1.80    2.30
  -3  -2   6    3.40    3.10
   3   2  -6    0.10    1.80
  -3   2   6    3.00    3.20
  -3   2   6    1.90    1.20
  -3   2   6   -0.20    1.90
   3   2  -6    0.60    1.60
   3   2  -6   -1.90    2.30
   2  -2  -6  101.79    7.10
  -2  -2   6  102.59    8.30
   2  -2  -6  102.49    5.60
  -2  -2   6   88.89    5.40
   2   2  -6   92.19    7.50
  -2   2   6  107.19    7.20
  -2   2   6   91.99    5.80
   2   2  -6   90.79    5.70
  -1  -2   6  131.19    9.10
   1  -2  -6  131.19    7.10
   1  -2  -6  141.49    8.60
  -1  -2   6  134.59    6.60
   1   2  -6  143.19    8.80
  -1   2   6  136.49    8.30
  -1   2   6  140.79    7.70
   1   2  -6  136.39    6.90
   0  -2   6   62.29    3.90
   0  -2   6   61.89    6.60
   0  -2  -6   55.59    5.10
   0   2  -6   61.19    4.10
   0   2   6   78.59    7.70
   0   2   6   53.89    5.70
  -1  -2  -6  786.12   29.00
   1  -2   6  789.12   29.80
   1  -2   6  771.62   26.90
  -1  -2  -6  741.73   29.50
  -1   2  -6  753.42   27.10
  -1   2  -6  790.32   30.40
   1   2   6  748.23   29.20
   1   2   6  807.12   29.90
  -2  -2  -6  607.74   23.40
  -2  -2  -6  573.34   23.60
   2  -2   6  583.84   23.50
   2  -2   6  564.74   20.60
   2   2   6  597.94   23.80
  -2   2  -6  586.84   22.90
   2   2   6  579.44   23.70
  -3  -2  -6  507.95   20.80
  -3  -2  -6  478.25   20.30
   3  -2   6  491.75   20.40
   3  -2   6  482.45   17.70
   3   2   6  487.95   20.70
   3   2   6  471.75   20.90
  -3   2  -6  497.85   20.80
  -4  -2  -6  100.89    7.80
  -4  -2  -6   81.39    6.90
   4  -2   6   90.99    7.10
   4  -2   6  100.09    5.20
   4   2   6  103.49    8.30
  -4   2  -6   96.29    4.90
   4   2   6   88.59    7.10
   5  -2   6   -0.30    1.30
  -5  -2  -6   -0.40    2.60
   5  -2   6    0.20    2.10
  -5   2  -6    0.20    1.30
  -5   2  -6    1.50    2.20
   5   2   6   -0.60    2.10
   6  -2   6   77.59    5.10
   6  -2   6   96.59    7.20
  -6   2  -6   88.99    5.10
  -6   2  -6   74.89    5.90
   6   2   6   86.19    7.40
  -7  -2  -6  103.29    8.90
   7  -2   6   88.09    7.20
   7  -2   6   79.49    5.40
  -7   2  -6   82.19    6.20
  -7   2  -6   89.59    5.60
   8  -2   6   32.40    5.10
   8  -2   6   34.10    5.30
  -8  -2  -6   34.90    6.30
   8  -2   6   35.10    4.20
   8   2   6   34.00    5.10
  -8   2  -6   34.00    4.10
   9  -2   6    8.00    3.00
   9  -2   6   11.80    4.00
  -9  -2  -6   11.60    4.90
  -9   2  -6    5.40    2.80
   9   2   6    9.60    3.70
  10  -2   6   75.09    6.40
 -10  -2  -6   60.19    8.70
  10  -2   6   76.39    7.80
  10   2   6   69.89    8.70
 -10   2  -6   81.89    6.90
 -11  -2  -6    7.90    5.20
  11  -2   6    6.30    3.70
 -11   2  -6    1.90    3.20
  11   2   6    7.60    4.20
 -12  -2  -6    4.90    4.50
  12  -2   6    2.80    3.50
  12   2   6    6.60    4.50
 -13  -2  -6   -2.30    4.20
  13  -2   6   -3.20    3.00
  13   2   6    2.60    4.10
 -13   2  -6    1.30    3.90
 -14  -2  -6   -1.20    4.80
  14  -2   6   -3.20    3.40
 -14   2  -6    6.60    5.00
 -15  -2  -6    9.70    6.30
  15  -2   6    1.80    4.20
  15   2   6    1.10    4.60
 -14  -3   6   36.90    8.40
 -14   3   6   20.70    6.40
  14   3  -6   34.50    8.20
 -13  -3   6    3.50    5.50
  13   3  -6    7.10    4.40
 -13   3   6    4.40    4.70
 -12  -3   6   -0.30    4.50
  12   3  -6    0.70    3.40
 -12   3   6    6.10    4.00
 -11  -3   6    6.70    5.10
  11   3  -6    4.00    3.50
 -11   3   6    4.00    3.80
 -10  -3   6    3.20    5.00
 -10   3   6   13.20    5.00
  10   3  -6    4.20    3.40
  -9  -3   6    4.90    4.70
   9   3  -6    3.30    3.70
  -9   3   6   -0.90    2.70
  -8  -3   6   29.10    7.40
  -8   3   6   31.80    5.20
   8   3  -6   32.50    5.80
  -7  -3   6   37.60    8.20
  -7   3   6   36.90    6.10
   7   3  -6   49.00    6.80
  -6  -3   6   11.40    4.80
   6   3  -6   16.70    4.40
  -6   3   6    4.40    2.80
  -5  -3   6    6.50    4.50
  -5   3   6   -0.90    1.80
   5   3  -6    4.70    3.20
  -4  -3   6    3.10    3.90
   4  -3  -6   -0.20    1.80
   4   3  -6   -1.70    1.90
  -4   3   6   -0.60    1.90
  -4   3   6   -1.60    2.00
  -3  -3   6  163.08    9.10
   3  -3  -6  174.18    8.30
  -3  -3   6  172.28   12.50
  -3   3   6  166.08    8.70
   3   3  -6  161.28    9.60
  -3   3   6  163.58   10.70
   2  -3  -6  129.69    7.60
  -2  -3   6  114.69   10.40
  -2  -3   6  115.09    7.40
  -2   3   6  118.89    7.90
   2   3  -6  136.99    8.20
   1  -3  -6   11.50    3.40
  -1  -3   6   14.10    3.50
   1   3  -6   11.40    3.20
  -1   3   6   14.70    4.20
  -1   3   6   12.50    3.70
   0  -3   6   65.29    5.30
   0  -3   6   69.79    8.60
   0  -3  -6   76.49    6.80
   0   3  -6   73.59    5.70
   0   3   6   51.59    6.40
   1  -3   6   24.50    3.70
  -1  -3  -6   19.60    4.30
   1  -3   6   20.40    5.00
   1   3   6   18.00    4.60
   1   3   6   19.80    5.50
  -1   3  -6   24.00    3.90
   2  -3   6    0.60    3.40
   2  -3   6    4.00    2.20
  -2  -3  -6    7.40    3.50
   2   3   6    4.10    3.30
  -2   3  -6    4.00    2.20
  -3  -3  -6    5.80    4.00
   3  -3   6    7.40    2.60
   3  -3   6    7.80    3.80
  -3   3  -6    3.90    2.20
   3   3   6    7.10    2.70
   4  -3   6   -0.70    3.60
  -4  -3  -6   -2.60    2.90
   4  -3   6    1.70    2.10
  -4   3  -6    0.40    1.90
   4   3   6   -0.70    2.50
  -5  -3  -6  656.63   28.50
   5  -3   6  623.64   26.90
   5  -3   6  621.54   24.60
   5   3   6  651.03   28.20
  -5   3  -6  678.03   24.20
   6  -3   6    3.70    3.70
  -6  -3  -6   20.30    5.90
   6  -3   6   10.20    3.00
  -6   3  -6    7.50    2.70
   6   3   6   32.80    6.70
  -7  -3  -6   16.80    5.50
   7  -3   6   17.50    5.90
   7  -3   6   18.70    4.60
   7   3   6   13.00    4.50
  -7   3  -6   28.10    4.10
  -8  -3  -6    2.10    4.20
   8  -3   6   -3.30    3.00
   8  -3   6   -0.70    2.40
  -8   3  -6    0.70    2.50
   8   3   6    3.60    3.90
  -9  -3  -6   -0.60    4.10
   9  -3   6   -1.90    2.50
   9  -3   6    0.20    3.90
   9   3   6    0.90    3.40
  -9   3  -6    0.40    2.70
 -10  -3  -6   28.50    7.40
  10  -3   6   32.40    6.00
  10   3   6   39.90    8.40
 -10   3  -6   26.90    4.60
 -11  -3  -6    2.60    7.30
  11  -3   6    1.70    4.00
  11   3   6   -3.30    2.90
 -12  -3  -6    6.50    5.80
  12  -3   6    1.60    4.10
  12   3   6    2.60    4.00
 -12   3  -6    2.60    3.90
  13  -3   6   -1.30    3.90
 -13  -3  -6   -2.40    5.70
 -13   3  -6    2.50    4.30
  13   3   6    2.20    4.00
 -11  -4   6    5.10    6.90
 -11   4   6   -2.20    3.90
  11   4  -6    0.40    4.10
 -10  -4   6   -0.40    6.00
 -10   4   6    6.00    5.20
  -9  -4   6    4.90    5.90
  -9   4   6    2.70    4.40
   9   4  -6    5.30    4.80
  -8  -4   6    4.90    6.20
   8   4  -6   -0.30    3.80
  -8   4   6    4.00    3.70
  -7  -4   6    0.30    5.10
   7   4  -6    2.10    3.80
  -7   4   6    3.40    3.70
  -6  -4   6    0.20    4.70
  -6   4   6   -0.50    3.20
   6   4  -6    0.30    3.00
  -5  -4   6    3.80    5.00
  -5   4   6    2.20    4.00
   5   4  -6   -0.80    2.80
  -5   4   6   -0.60    2.10
  -4  -4   6   33.10    7.90
   4  -4  -6   41.60    4.80
  -4   4   6   31.10    4.50
   4   4  -6   28.90    5.80
  -4   4   6   25.20    5.00
   3  -4  -6   -0.70    2.60
  -3  -4   6    3.00    4.80
   3   4  -6    1.50    3.30
  -3   4   6   -2.50    3.20
  -3   4   6    0.30    3.30
  -2  -4   6   80.89   11.00
   2  -4  -6   96.39    7.80
   2   4  -6   89.09    8.10
  -2   4   6   71.19    7.80
   1  -4  -6   18.70    4.80
  -1  -4   6   24.80    7.20
  -1   4   6   16.00    5.40
   1   4  -6   24.90    5.00
  -1   4   6   21.20    5.80
   0  -4  -6    6.10    4.20
   0  -4   6   15.40    6.20
   0   4   6   24.30    6.20
   1  -4   6   22.00    6.50
  -1  -4  -6   12.80    4.50
   1   4   6    7.90    3.30
  -1   4  -6   21.70    4.60
  -2  -4  -6   -0.30    3.80
   2  -4   6    6.10    5.10
   2   4   6    3.00    2.90
  -2   4  -6    0.10    2.40
   3  -4   6   76.19   10.50
  -3  -4  -6   60.09    8.40
   3   4   6   45.90    6.90
  -3   4  -6   74.39    6.70
  -4  -4  -6   43.00    7.80
   4  -4   6   49.40    8.30
   4   4   6   30.00    6.40
  -4   4  -6   31.90    5.00
  -5  -4  -6    1.40    4.50
   5  -4   6    9.20    4.90
   5   4   6   11.40    4.40
  -5   4  -6   11.10    3.60
  -6  -4  -6   32.10    7.80
   6  -4   6   29.60    6.50
   6   4   6   11.60    4.00
  -6   4  -6   27.70    4.70
   7  -4   6    7.20    5.00
  -7  -4  -6    6.20    5.60
  -7   4  -6    1.90    3.90
  -8  -4  -6    2.60    9.50
   8  -4   6    8.10    5.20
  -8   4  -6    5.30    3.70
   8   4   6    0.80    4.00
  -9  -4  -6   -6.30    4.70
   9  -4   6   -1.60    4.00
   9   4   6    0.70    4.20
  -9   4  -6   -1.90    3.30
 -10  -4  -6   12.60    6.80
  10  -4   6   15.60    5.60
 -10   4  -6   15.20    4.60
  10   4   6   24.20    8.00
  -4  -5   6    6.50    6.60
   4  -5  -6    4.80    3.60
  -4   5   6    3.10    5.20
   4   5  -6   11.30    4.90
   3  -5  -6    0.10    3.90
  -3  -5   6   -2.20    6.40
   3   5  -6    1.20    3.70
  -3   5   6    2.00    4.00
   2  -5  -6    2.70    4.50
  -2  -5   6   -4.80    6.10
  -2   5   6    2.40    3.30
   2   5  -6    5.50    4.40
   1  -5  -6    9.20    5.10
  -1  -5   6   25.10    8.10
  -1   5   6   12.40    4.70
   1   5  -6   14.30    5.10
   0  -5  -6   -6.20    4.50
   0  -5   6    8.10    6.80
   0   5  -6    2.00    3.50
   0   5   6   -0.30    4.60
  -1  -5  -6   10.20    6.00
   1  -5   6    4.30    6.30
  -1   5  -6    6.00    4.30
   1   5   6    0.10    3.30
   2  -5   6   -7.00    4.50
  -2  -5  -6   -0.10    5.10
  -2   5  -6   -0.70    3.50
   2   5   6    2.90    3.50
  -3  -5  -6    1.20    5.70
   3  -5   6    6.70    5.90
  -3   5  -6    5.90    3.90
   3   5   6    7.90    5.30
 -17   0   7   16.90    6.40
 -17   0   7   11.70    4.50
 -16   0   7    0.70    3.80
 -16   0   7    6.90    3.80
 -15   0   7   -3.20    2.80
 -15   0   7   -1.40    2.90
 -14   0   7    3.60    3.30
 -14   0   7    0.60    2.80
 -13   0   7   87.69    8.90
 -13   0   7   93.49   10.10
 -12   0   7    0.30    2.50
 -12   0   7   -0.70    2.60
  12   0  -7   -0.20    2.50
  11   0  -7   45.40    6.00
 -11   0   7   44.60    6.90
 -11   0   7   52.29    6.70
 -10   0   7    0.50    2.00
 -10   0   7   -0.70    2.40
  10   0  -7    1.20    2.30
  -9   0   7  699.63   27.20
  -9   0   7  691.43   27.50
   9   0  -7  695.53   26.90
   8   0  -7   -0.20    1.90
  -8   0   7   -1.10    2.40
  -8   0   7    0.20    1.90
   8   0  -7   -1.60    1.50
   7   0  -7  175.88    9.10
  -7   0   7  180.88    9.60
   7   0  -7  163.88    8.90
  -7   0   7  174.18    9.30
   6   0  -7   -1.20    1.70
  -6   0   7    3.70    2.00
  -6   0   7   -2.10    2.20
   6   0  -7   -1.10    1.40
   5   0  -7  145.89    7.40
  -5   0   7  129.79    7.80
   5   0  -7  140.69    7.40
  -5   0   7  137.59    7.30
  -4   0   7    3.20    2.30
   4   0  -7    0.80    1.80
  -4   0   7   -1.60    1.50
   4   0  -7   -0.80    1.30
   3   0  -7  180.98    8.00
   3   0  -7  155.68    7.60
  -3   0   7  173.18    7.70
  -3   0   7  165.18    8.40
   2   0  -7   -0.10    1.40
   2   0  -7   -0.20    1.30
  -2   0   7   -0.30    1.40
  -2   0   7    2.10    2.00
   1   0  -7  405.66   15.60
  -1   0   7  415.16   15.90
   1   0  -7  406.06   15.00
   0   0  -7   10.50    2.00
   0   0   7    9.10    2.50
   0   0  -7    5.10    1.80
   0   0   7   10.20    1.70
   1   0   7  274.57   10.20
  -1   0  -7  267.97   10.30
   1   0   7  266.47   11.40
  -2   0  -7    0.40    1.60
   2   0   7   -0.30    1.80
   2   0   7    1.10    1.00
  -2   0  -7    1.00    1.10
  -3   0  -7   91.69    4.50
   3   0   7   91.49    5.90
   3   0   7   93.49    6.40
   3   0   7   95.99    4.80
   4   0   7   -0.70    1.00
   4   0   7    2.70    1.90
   4   0   7    0.30    2.10
  -4   0  -7    1.40    1.20
   5   0   7 1205.18   41.30
   5   0   7 1225.88   41.30
   5   0   7 1149.29   49.00
   5   0   7 1194.18   42.40
   6   0   7   -2.00    1.60
   6   0   7    1.00    1.40
   6   0   7   -0.60    2.00
   6   0   7    1.90    1.80
   7   0   7  240.28   13.00
   7   0   7  246.08   11.00
   7   0   7  238.78   10.90
   7   0   7  237.58   11.70
   8   0   7    0.40    1.60
   8   0   7    2.00    2.20
   8   0   7    0.30    1.80
   9   0   7   20.50    3.70
   9   0   7   24.10    4.20
   9   0   7   19.40    3.70
  10   0   7   -2.00    1.90
  10   0   7    1.10    2.40
  10   0   7   -2.70    2.50
  11   0   7   19.30    4.40
  11   0   7   30.20    5.90
  12   0   7    1.10    3.30
  12   0   7    0.60    2.90
  13   0   7  555.24   24.70
  13   0   7  570.14   25.00
  14   0   7    3.40    3.10
  14   0   7   -4.40    3.10
  15   0   7   -0.20    3.90
  15   0   7   -1.60    3.60
  16   0   7   -0.70    3.70
 -16  -1   7   14.50    5.60
  16   1  -7   21.10    6.70
 -16   1   7   38.80    8.00
 -16   1   7   17.10    3.60
 -15  -1   7   -2.40    3.60
  15  -1  -7    6.20    3.20
 -15   1   7    9.70    3.00
  15   1  -7    1.60    3.60
 -15   1   7    1.80    3.20
 -14  -1   7    3.90    4.30
  14  -1  -7    6.50    2.80
 -14   1   7    4.70    2.60
 -14   1   7    1.30    3.80
  14   1  -7   12.10    4.40
  13  -1  -7  200.08    9.80
 -13  -1   7  180.38   13.00
 -13  -1   7  179.68   12.90
 -13   1   7  186.48    9.30
  13   1  -7  205.98   12.80
 -13   1   7  186.68   12.40
 -12  -1   7  644.64   29.20
 -12  -1   7  675.93   29.60
  12  -1  -7  699.33   25.30
 -12   1   7  680.43   28.40
 -12   1   7  680.83   24.90
  11  -1  -7  395.76   15.60
 -11  -1   7  401.56   19.80
 -11  -1   7  388.26   19.30
 -11   1   7  393.46   15.50
 -11   1   7  388.36   18.40
  10  -1  -7    3.40    1.90
 -10  -1   7    7.80    3.90
 -10  -1   7    2.30    2.80
 -10   1   7    8.20    2.20
 -10   1   7    6.60    2.90
  -9  -1   7  380.76   18.60
   9  -1  -7  386.26   14.30
  -9   1   7  362.96   16.80
  -8  -1   7  103.09    9.70
  -8  -1   7   51.09    7.50
  -8   1   7   62.79    6.60
   8   1  -7   55.99    6.90
  -8   1   7   61.89    4.20
   7  -1  -7  184.58    9.80
  -7  -1   7  177.78   10.90
  -7  -1   7  161.48    9.60
   7  -1  -7  167.48    7.00
   7   1  -7  182.28    9.30
  -7   1   7  174.08    7.60
   7   1  -7  156.08   10.00
  -7   1   7  173.08    9.40
  -6  -1   7  362.76   17.00
   6  -1  -7  363.06   13.00
   6  -1  -7  369.06   15.80
  -6  -1   7  352.06   15.60
  -6   1   7  361.66   13.60
   6   1  -7  362.26   15.20
  -6   1   7  365.86   15.50
   5  -1  -7   46.90    2.90
  -5  -1   7   49.00    6.00
  -5  -1   7   43.00    4.70
  -5   1   7   43.30    3.50
   5   1  -7   46.00    4.20
  -5   1   7   58.79    6.00
   5   1  -7   48.40    5.60
  -4  -1   7 1631.64   54.39
   4  -1  -7 1586.14   54.99
  -4  -1   7 1590.84   56.09
  -4   1   7 1555.24   52.89
  -4   1   7 1613.44   54.59
   4   1  -7 1560.54   53.79
   4   1  -7 1529.25   55.39
   3  -1  -7    1.00    1.90
   3  -1  -7   -1.10    1.10
  -3  -1   7   -0.60    2.30
  -3  -1   7    0.40    1.70
   3   1  -7    1.40    2.10
   3   1  -7    1.10    1.50
  -3   1   7   -1.20    1.40
  -2  -1   7   47.00    5.20
   2  -1  -7   49.60    5.20
  -2   1   7   40.40    3.50
   2   1  -7   31.00    4.30
  -2   1   7   37.80    3.30
   2   1  -7   40.10    3.00
  -2   1   7   39.10    4.00
   1  -1  -7  235.38   11.00
  -1  -1   7  244.48   11.80
   1   1  -7  237.78    9.20
  -1   1   7  248.18   11.00
   1   1  -7  245.28    9.20
  -1   1   7  256.27   10.50
   1   1  -7  242.08   11.30
  -1   1   7  250.77   10.10
   0  -1  -7    4.20    1.90
   0  -1   7    6.60    2.90
   0   1   7    7.50    2.50
   0   1  -7    2.80    0.80
   0   1  -7    5.70    1.00
   0   1   7    3.70    1.80
   0   1   7    1.80    1.80
   0   1  -7    3.00    2.20
  -1  -1  -7   -0.60    1.30
   1  -1   7   -3.00    2.10
   1   1   7   -1.30    1.30
   1   1   7    0.20    1.90
  -1   1  -7   -1.90    1.40
   1   1   7    0.00    1.60
  -2  -1  -7  151.28    8.00
   2  -1   7  156.08    8.50
  -2   1  -7  134.29    7.70
   2   1   7  159.28    8.70
   2   1   7  150.78    7.80
   2   1   7  154.48    8.00
   3  -1   7 1946.71   64.09
  -3  -1  -7 1938.91   63.79
  -3  -1  -7 1854.41   64.29
   3   1   7 1774.62   64.49
   3   1   7 1857.61   63.79
  -3   1  -7 1791.92   63.39
   4  -1   7    3.90    1.00
   4  -1   7    3.50    2.30
  -4  -1  -7    3.60    2.00
  -4  -1  -7    1.50    2.20
   4  -1   7    3.00    0.90
   4   1   7    1.30    2.50
  -4   1  -7    2.70    1.90
   4   1   7    1.40    1.80
  -5  -1  -7    2.00    1.90
   5  -1   7    0.80    2.10
  -5  -1  -7    3.90    2.50
   5  -1   7    4.40    1.30
   5  -1   7    2.60    1.20
  -5   1  -7    3.00    2.20
   5   1   7    2.80    2.60
   5   1   7    4.70    2.20
  -6  -1  -7   25.70    4.80
   6  -1   7   31.30    3.00
   6  -1   7   21.20    4.00
   6  -1   7   27.80    4.30
   6  -1   7   30.70    3.00
   6   1   7   28.00    4.20
   7  -1   7    6.90    2.00
   7  -1   7    5.70    2.70
   7  -1   7    4.60    1.90
  -7  -1  -7    7.40    3.40
   7  -1   7    7.70    2.80
  -7  -1  -7    5.00    2.40
   7   1   7   10.40    3.30
   8  -1   7  402.76   15.80
   8  -1   7  402.56   15.60
   8  -1   7  406.46   17.40
  -8  -1  -7  390.06   18.90
   8   1   7  398.86   17.70
   8   1   7  347.57   18.20
   9  -1   7    3.30    2.30
   9  -1   7   -1.50    2.30
   9  -1   7   -1.80    1.70
  -9  -1  -7   -3.10    2.80
   9   1   7   -4.00    1.90
  10  -1   7  291.77   13.10
 -10  -1  -7  265.47   15.70
  10  -1   7  294.17   14.40
  10  -1   7  266.87   12.70
  10   1   7  270.77   14.60
  11  -1   7   -1.30    2.60
  11  -1   7   -0.60    2.80
  11  -1   7   -1.10    2.10
 -11  -1  -7    2.90    4.00
  11   1   7    4.50    3.10
 -12  -1  -7    1.20    3.90
  12  -1   7   14.10    4.70
  12  -1   7   10.40    4.10
  12   1   7    2.70    3.70
 -13  -1  -7    1.80    4.10
  13  -1   7   12.30    4.00
  13  -1   7   10.50    4.30
  13   1   7    3.00    3.70
  14  -1   7    8.80    4.40
 -14  -1  -7    2.10    4.90
  14  -1   7   10.50    3.90
  14   1   7    9.20    4.60
  15  -1   7   11.80    4.50
  15  -1   7    7.20    4.50
  15   1   7    5.30    4.40
 -15  -2   7   12.40    6.20
 -15   2   7    5.20    4.20
  15   2  -7    7.70    4.80
 -14  -2   7   11.50    5.70
  14   2  -7   12.20    4.60
 -14   2   7   19.40    5.80
 -13  -2   7   33.00    7.50
 -13   2   7   28.40    6.40
  13   2  -7   13.10    5.00
 -12  -2   7   28.20    7.30
 -12   2   7   31.30    6.00
  12   2  -7   42.50    6.70
 -11  -2   7  119.49   12.70
 -11   2   7  127.09    9.50
  11   2  -7  123.99    9.70
 -10  -2   7    0.70    3.70
 -10   2   7    1.10    2.60
  10   2  -7   -0.10    2.20
  -9  -2   7   -2.90    3.40
   9   2  -7    0.20    2.10
  -9   2   7   -1.30    2.50
  -8  -2   7   10.30    4.50
  -8   2   7    0.70    2.60
   8   2  -7    3.10    2.50
  -7  -2   7    8.00    4.20
   7   2  -7    7.50    3.20
  -7   2   7    6.80    2.70
  -6  -2   7   61.99    8.80
   6   2  -7   54.89    6.00
  -6   2   7   46.50    6.20
   6   2  -7   76.89    7.40
  -5  -2   7   67.29    8.30
   5   2  -7   64.09    5.40
   5   2  -7   71.19    7.30
  -5   2   7   70.69    6.20
  -4  -2   7   21.40    4.80
  -4   2   7   21.10    2.10
   4   2  -7   15.10    2.80
  -4   2   7   24.40    4.60
  -4   2   7   14.60    2.10
   4   2  -7   21.50    3.70
   3  -2  -7   57.09    7.10
  -3  -2   7   55.59    6.90
   3   2  -7   52.59    4.30
  -3   2   7   53.09    4.20
   3   2  -7   56.79    7.10
   3   2  -7   50.99    4.60
  -3   2   7   44.40    3.90
  -3   2   7   44.80    5.60
  -2  -2   7    6.10    3.60
   2  -2  -7    1.90    1.70
   2   2  -7   -1.10    1.60
  -2   2   7    1.20    2.10
  -2   2   7    2.10    2.20
   2   2  -7    3.20    1.70
   2   2  -7    3.10    3.10
  -2   2   7    3.70    1.60
   1  -2  -7   97.19    7.20
   1  -2  -7  106.69    6.30
  -1  -2   7  108.69    8.30
   1   2  -7   93.59    7.40
   1   2  -7   97.59    5.70
  -1   2   7  105.69    6.80
   1   2  -7  104.99    5.70
  -1   2   7   99.39    7.20
   0  -2  -7  382.46   15.80
   0  -2   7  359.86   17.30
   0  -2  -7  374.56   16.90
   0  -2   7  371.26   14.10
   0   2  -7  386.26   14.50
   0   2  -7  377.36   16.80
   0   2   7  379.56   16.20
   0   2   7  406.36   17.20
  -1  -2  -7  176.98    9.30
   1  -2   7  156.98    9.90
   1  -2   7  167.88    7.00
  -1  -2  -7  167.88    9.70
   1   2   7  161.18    9.60
  -1   2  -7  166.98    7.20
  -1   2  -7  167.88    9.40
   1   2   7  158.48    9.50
  -2  -2  -7    0.70    2.40
  -2  -2  -7    2.90    2.40
   2  -2   7    2.40    1.40
   2  -2   7    0.70    2.80
  -2   2  -7    2.50    1.20
   2   2   7    2.20    2.60
  -2   2  -7    3.80    2.60
  -3  -2  -7   20.80    4.40
  -3  -2  -7   13.00    3.60
   3  -2   7   19.50    4.50
   3  -2   7   18.60    2.20
  -3   2  -7   13.50    1.80
  -3   2  -7   17.60    3.60
   3   2   7   13.20    3.90
   3   2   7   11.70    2.70
   4  -2   7    0.80    2.80
  -4  -2  -7    8.90    3.30
  -4   2  -7    3.70    2.50
  -4   2  -7    3.20    1.30
   4   2   7    3.60    2.80
   4   2   7    2.20    3.30
   5  -2   7   34.60    3.00
  -5  -2  -7   34.90    5.40
   5  -2   7   38.50    5.40
  -5   2  -7   36.10    4.90
   5   2   7   24.40    4.00
  -5   2  -7   26.40    3.50
  -6  -2  -7   94.39    8.50
   6  -2   7   98.39    7.60
   6  -2   7   85.59    5.10
   6   2   7   93.69   12.90
  -6   2  -7   91.39    6.70
  -6   2  -7   85.19    5.10
   7  -2   7    4.90    3.10
   7  -2   7    0.30    1.60
  -7  -2  -7    0.50    3.30
   7   2   7    3.20    3.10
  -7   2  -7   -1.70    1.90
  -8  -2  -7    6.60    3.80
   8  -2   7   12.40    2.80
   8  -2   7   16.60    4.30
  -8   2  -7   11.50    3.00
   8   2   7   15.20    4.40
  -9  -2  -7   46.00    7.70
   9  -2   7   49.00    5.40
   9   2   7   58.09    8.20
  -9   2  -7   53.09    5.60
  10  -2   7    3.70    2.70
 -10  -2  -7    4.20    4.10
  10  -2   7   -0.40    3.00
 -10   2  -7    2.20    3.00
  10   2   7    1.40    2.90
  11  -2   7    0.10    3.30
 -11  -2  -7    3.10    4.20
  11  -2   7    1.50    3.10
 -11   2  -7   -4.30    2.90
  11   2   7   -0.70    3.60
  12  -2   7    9.50    4.30
 -12  -2  -7   14.30    6.40
  12   2   7   10.60    5.20
 -12   2  -7    8.60    4.20
  13  -2   7    6.40    4.10
  13   2   7    4.40    4.20
 -13   2  -7    2.30    4.30
  14  -2   7    2.80    4.30
 -14  -2  -7    6.70    5.60
  14  -2   7    2.20    3.30
  14   2   7    5.60    5.20
 -14  -3   7   -1.30    5.10
 -14   3   7    2.00    3.70
  14   3  -7    1.20    4.40
 -13  -3   7    3.10    5.20
 -13   3   7    5.50    4.40
  13   3  -7    1.10    3.50
 -12  -3   7   17.40   10.50
  12   3  -7   21.10    5.20
 -12   3   7   30.90    6.90
 -11  -3   7   65.19   10.80
 -11   3   7   71.39    8.80
  11   3  -7   66.39    8.90
 -10  -3   7   -0.50    4.50
  10   3  -7   -0.40    2.80
 -10   3   7    3.00    3.70
  -9  -3   7   54.69    9.60
  -9   3   7   49.50    7.80
   9   3  -7   54.99    7.00
  -8  -3   7   90.59   11.60
  -8   3   7   71.09    9.20
   8   3  -7   91.59    9.90
  -7  -3   7    2.00    4.20
  -7   3   7   -4.00    2.70
   7   3  -7    4.40    3.20
  -6  -3   7   10.60    5.30
  -6   3   7   10.60    4.20
   6   3  -7   16.80    4.50
  -5  -3   7    3.20    4.50
   5   3  -7    3.70    2.80
  -5   3   7   -2.60    2.60
  -4  -3   7  178.28   13.10
  -4   3   7  172.88    8.10
   4   3  -7  181.78   12.90
   4   3  -7  177.58   10.20
  -4   3   7  163.58    8.00
  -3  -3   7   -0.40    1.80
   3  -3  -7   -0.80    1.80
  -3  -3   7    1.20    3.80
  -3   3   7    4.10    2.40
   3   3  -7   -1.20    1.70
  -3   3   7    0.40    2.40
   2  -3  -7   -1.10    2.00
  -2  -3   7    3.90    2.10
  -2  -3   7    3.70    3.80
   2   3  -7    4.30    2.30
  -2   3   7    7.70    3.40
  -2   3   7    2.30    2.30
  -1  -3   7   15.70    3.10
   1  -3  -7   11.20    3.40
  -1  -3   7   14.10    5.10
   1   3  -7   25.10    4.10
  -1   3   7   13.50    4.10
  -1   3   7   16.90    4.40
   0  -3  -7   23.80    4.50
   0  -3   7   30.70    6.10
   0  -3   7   28.80    3.80
   0   3   7   38.10    6.10
   0   3   7   28.40    5.80
   0   3  -7   33.00    4.60
   1  -3   7    7.60    2.50
  -1  -3  -7    2.40    3.20
   1   3   7   13.20    4.60
  -1   3  -7   12.50    2.90
   1   3   7   15.50    5.00
   2  -3   7   90.59    5.70
  -2  -3  -7   80.99    8.30
   2  -3   7   80.19   10.70
   2   3   7   58.29    7.20
  -2   3  -7   92.49    5.90
   3  -3   7   63.29    8.40
   3  -3   7   53.69    4.60
  -3  -3  -7   48.30   10.80
  -3   3  -7   48.60    4.50
   3   3   7   47.40    6.80
  -4  -3  -7   34.50    6.30
   4  -3   7   24.00    5.60
   4  -3   7   24.00    3.80
   4   3   7   34.60    6.70
  -4   3  -7   23.60    3.40
   5  -3   7  700.83   32.20
  -5  -3  -7  784.92   32.00
   5  -3   7  716.63   27.40
  -5   3  -7  754.42   27.00
   5   3   7  768.72   31.80
  -6  -3  -7   83.89    9.60
   6  -3   7   90.79    6.40
  -6   3  -7  101.79    6.20
   6   3   7   88.59   10.50
   7  -3   7  102.69    7.10
  -7  -3  -7  102.79   11.00
   7  -3   7  119.99    9.60
   7   3   7  117.99   10.10
  -7   3  -7  110.29    6.90
  -8  -3  -7    8.70    5.00
   8  -3   7    4.80    3.80
   8  -3   7    5.00    3.10
  -8   3  -7    3.20    2.60
   8   3   7    5.40    3.50
   9  -3   7   21.10    4.30
   9  -3   7   26.60    5.80
  -9  -3  -7   18.80    6.60
  -9   3  -7   19.50    3.80
   9   3   7   16.90    4.70
 -10  -3  -7    2.50    5.10
  10  -3   7    1.80    3.90
  10  -3   7    1.30    3.00
 -10   3  -7   -0.20    3.00
  10   3   7    2.20    3.70
 -11  -3  -7    1.50    4.70
  11  -3   7    2.10    4.20
  11   3   7   10.50    9.10
 -11   3  -7    0.70    3.50
  12  -3   7   95.79   10.40
 -12  -3  -7   81.29   11.40
  12   3   7   71.39    9.60
 -12   3  -7   96.69    8.60
 -10  -4   7   16.20    7.10
 -10   4   7   12.80    5.20
  -9  -4   7    1.70    5.50
  -9   4   7    3.20    4.10
   9   4  -7    0.00    3.50
   8   4  -7   17.20    5.90
  -8   4   7   11.00    4.10
  -7  -4   7   -3.60    5.30
  -7   4   7   -2.10    3.00
   7   4  -7   -0.40    3.30
  -6  -4   7   84.89   12.30
  -6   4   7   89.19   11.20
   6   4  -7   88.49   10.10
  -5  -4   7   14.80    6.00
  -5   4   7   19.70    2.30
   5   4  -7   17.40    4.40
  -5   4   7   20.90    5.30
  -4  -4   7  222.28   16.50
   4  -4  -7  190.88    9.60
  -4   4   7  201.38    9.90
   4   4  -7  202.38   12.60
  -3  -4   7   16.70    6.70
   3  -4  -7   19.30    3.90
   3   4  -7   18.50    4.80
  -3   4   7   17.00    4.30
  -3   4   7   21.10    6.00
  -2  -4   7   11.60    6.40
   2  -4  -7    6.80    3.50
  -2   4   7   15.20    5.40
   2   4  -7   17.30    4.40
  -2   4   7   14.70    4.80
   1  -4  -7    8.50    4.10
  -1  -4   7   10.30    6.10
  -1   4   7    2.70    3.80
   0  -4   7   -3.70    4.30
   0   4  -7    2.90    2.80
   0   4   7   -4.80    2.20
   1  -4   7   43.40    8.60
  -1  -4  -7   29.70    6.20
  -1   4  -7   15.50    3.90
   1   4   7   39.60    7.70
  -2  -4  -7    2.40    4.20
   2  -4   7   -0.60    4.60
   2   4   7    5.60    4.30
  -2   4  -7    1.10    2.60
   3  -4   7   15.90    6.20
   3  -4   7   14.00    4.30
  -3  -4  -7   16.00    5.80
  -3   4  -7   17.90    4.10
   3   4   7   15.10    4.60
   4  -4   7    5.10    3.30
  -4  -4  -7    6.80    5.20
   4  -4   7   12.90    5.60
  -4   4  -7    5.80    3.10
   4   4   7    8.30    4.10
   5  -4   7   -0.90    3.20
   5  -4   7    2.70    4.40
  -5  -4  -7    2.50    4.90
  -5   4  -7    1.60    2.80
   5   4   7    0.20    3.10
  -6  -4  -7   -3.00    4.80
   6  -4   7    2.70    4.80
   6   4   7    0.70    3.20
  -6   4  -7    0.70    2.80
   7  -4   7    9.10    5.20
  -7  -4  -7    2.20    5.30
   7   4   7    0.60    4.60
  -7   4  -7    6.00    3.10
  -8  -4  -7   33.40    9.40
   8  -4   7   30.10    6.80
  -8   4  -7   34.10    5.20
   8   4   7   34.30   10.00
   9  -4   7    8.30    5.20
  -9  -4  -7   10.60    6.70
   9   4   7    5.00    4.20
   3  -5  -7   18.90    4.80
  -3  -5   7   29.70    9.30
  -3   5   7   14.60    5.10
   3   5  -7   18.00    5.70
  -2  -5   7   11.00    7.90
   2  -5  -7    1.00    3.90
  -2   5   7    3.40    4.30
   2   5  -7    5.50    4.30
  -1  -5   7   37.60   11.60
   1  -5  -7   25.20    6.20
  -1   5   7   51.09   10.60
   1   5  -7   24.20    5.70
   0  -5   7   20.10    7.70
   0  -5  -7   -1.50    4.60
   0   5   7    5.90    3.60
   0   5  -7    5.10    3.90
   1  -5   7   -0.70    6.40
  -1  -5  -7    0.60    4.70
   1   5   7    1.80    4.00
  -1   5  -7   -2.40    3.20
  -2  -5  -7    1.10    5.70
   2  -5   7   -1.50    5.60
   2   5   7   -2.00    2.80
  -2   5  -7    5.80    3.90
 -17   0   8   -1.70    3.30
 -17   0   8    1.30    3.80
 -16   0   8  114.79   13.70
 -16   0   8   99.99   10.10
 -15   0   8   -0.30    3.10
 -15   0   8   -2.20    2.80
 -14   0   8  164.38   11.70
 -14   0   8  180.88   12.60
 -13   0   8   -1.30    2.90
 -13   0   8   -0.60    2.70
  12   0  -8    1.40    2.90
 -12   0   8   -4.80    2.50
 -12   0   8   -0.10    2.80
 -11   0   8   -0.20    2.40
  11   0  -8   -1.00    2.40
 -11   0   8   -3.70    2.40
  10   0  -8  118.79    8.60
 -10   0   8  103.89    8.30
 -10   0   8  110.69    8.20
  -9   0   8   -1.50    2.40
   9   0  -8   -0.50    2.20
  -8   0   8  207.18   10.60
   8   0  -8  184.08   10.00
  -8   0   8  190.58   10.50
  -7   0   8   -0.60    2.10
  -7   0   8    0.90    1.70
   7   0  -8    0.10    1.60
   7   0  -8    1.00    2.10
   6   0  -8   42.80    5.00
  -6   0   8   24.00    3.80
  -6   0   8   33.00    4.90
   5   0  -8   -1.50    1.50
  -5   0   8    2.40    1.80
  -5   0   8    0.30    2.10
   5   0  -8    0.00    1.70
   4   0  -8  600.14   22.50
  -4   0   8  628.94   22.40
  -4   0   8  591.54   22.90
   4   0  -8  603.34   22.40
   3   0  -8    0.40    1.40
  -3   0   8    0.10    1.20
  -3   0   8    3.40    2.40
   3   0  -8   -0.20    1.50
   2   0  -8 1999.50   67.69
  -2   0   8 2053.79   68.59
  -2   0   8 2022.90   67.39
   2   0  -8 2010.30   68.19
   1   0  -8    0.30    1.30
  -1   0   8    1.00    1.30
   1   0  -8   -0.70    1.50
  -1   0   8    2.30    2.00
   0   0  -8   33.70    3.10
   0   0  -8   23.60    3.00
   0   0   8   28.60    3.70
   0   0   8   29.60    3.10
   1   0   8   -0.40    1.10
   1   0   8    0.10    1.80
  -1   0  -8   -0.20    1.30
   2   0   8   58.59    3.50
  -2   0  -8   49.99    4.30
   2   0   8   53.49    5.40
   3   0   8    0.30    1.90
  -3   0  -8    0.10    1.10
   3   0   8   -0.50    1.70
   4   0   8   45.40    3.30
   4   0   8   34.80    5.10
  -4   0  -8   38.00    3.10
   4   0   8   42.00    4.80
   5   0   8   -0.20    1.70
   5   0   8    0.00    1.20
   5   0   8    0.60    2.20
   5   0   8    0.60    2.00
   6   0   8  501.75   18.30
   6   0   8  442.96   20.30
   6   0   8  459.25   19.30
   6   0   8  476.25   18.20
   7   0   8   -0.60    2.10
   7   0   8   -0.30    1.90
   7   0   8    0.30    1.50
   8   0   8   49.40    5.20
   8   0   8   62.59    7.70
   8   0   8   49.30    5.20
   9   0   8    0.60    2.40
   9   0   8   -1.30    2.50
   9   0   8   -0.30    1.90
  10   0   8  728.83   29.30
  10   0   8  677.03   27.70
  10   0   8  782.62   28.90
  11   0   8   -2.30    2.70
  11   0   8    1.00    2.60
  12   0   8  851.91   34.10
  12   0   8  866.41   34.60
  13   0   8    2.20    3.20
  13   0   8   -1.20    3.50
  14   0   8   32.60    6.60
  14   0   8   36.50    6.80
  15   0   8    8.30    4.70
  15   0   8   -1.10    3.70
 -16  -1   8   -4.90    3.20
 -16   1   8    0.40    2.10
  16   1  -8    2.20    4.00
 -16   1   8   -2.60    3.20
  15  -1  -8   -1.80    2.50
 -15  -1   8    3.30    4.20
 -15   1   8    1.70    6.10
 -15   1   8    1.20    2.20
  15   1  -8    0.90    3.60
  14  -1  -8    6.30    3.00
 -14  -1   8    4.70    4.00
 -14  -1   8    6.80    4.60
  14   1  -8    7.10    3.70
 -14   1   8    3.80    3.90
 -14   1   8    3.60    2.30
  13  -1  -8  148.69    8.40
 -13  -1   8  173.38   12.50
 -13  -1   8  153.28   11.90
 -13   1   8  174.88   11.60
 -13   1   8  147.99    8.00
 -12  -1   8    0.80    3.40
 -12  -1   8    1.10    2.80
  12  -1  -8    2.20    2.00
 -12   1   8    1.20    2.90
 -12   1   8   -0.10    1.90
 -11  -1   8  251.67   15.00
 -11  -1   8  257.87   14.60
  11  -1  -8  240.48   10.80
 -11   1   8  252.47   13.80
 -11   1   8  262.47   11.10
  10  -1  -8  110.39    6.00
 -10  -1   8  118.19    9.00
 -10  -1   8  136.69   11.40
 -10   1   8  112.99    6.40
 -10   1   8  106.59    8.20
   9  -1  -8   15.00    2.40
  -9  -1   8   14.00    4.50
  -9  -1   8   36.30    6.20
  -9   1   8   21.10    4.50
  -9   1   8   17.20    2.90
  -8  -1   8    6.80    3.50
  -8  -1   8    8.90    3.10
   8  -1  -8    7.80    1.80
   8   1  -8    7.10    3.40
  -8   1   8    3.60    3.80
  -7  -1   8    3.20    2.70
   7  -1  -8   -1.70    1.00
  -7  -1   8   -4.50    2.20
   7   1  -8    2.30    2.10
  -7   1   8   -0.60    1.60
  -7   1   8   -0.60    1.70
   7   1  -8   -0.40    2.20
   6  -1  -8  207.58    8.40
   6  -1  -8  208.58   10.80
  -6  -1   8  194.18   11.80
  -6  -1   8  194.78   10.40
  -6   1   8  241.88   10.20
   6   1  -8  199.38   11.20
  -6   1   8  204.58   10.50
   5  -1  -8  407.16   17.50
   5  -1  -8  423.26   15.20
  -5  -1   8  417.66   17.10
  -5  -1   8  417.56   18.70
   5   1  -8  410.86   20.50
  -5   1   8  405.96   17.10
   5   1  -8  431.06   16.70
   4  -1  -8  157.28    6.70
   4  -1  -8  141.09    8.30
  -4  -1   8  137.79    9.20
  -4  -1   8  154.88    7.90
  -4   1   8  157.28    7.30
   4   1  -8  150.68    7.50
  -4   1   8  157.98    8.30
   4   1  -8  152.38    9.10
  -3  -1   8  161.78    7.70
   3  -1  -8  157.38    7.00
  -3  -1   8  152.48    9.40
   3  -1  -8  158.68    8.50
   3   1  -8  148.89    8.80
  -3   1   8  146.39    8.10
  -3   1   8  149.39    7.20
   3   1  -8  165.18    7.30
   2  -1  -8   -0.10    2.00
  -2  -1   8   -1.40    1.40
  -2  -1   8   -4.20    2.00
  -2   1   8   -2.00    1.40
  -2   1   8    1.70    1.60
   2   1  -8   -0.90    1.80
  -2   1   8    0.80    1.60
   2   1  -8   -0.90    1.00
  -1  -1   8  100.39    7.40
   1  -1  -8  108.19    6.50
   1   1  -8   93.19    6.40
  -1   1   8   98.59    6.20
  -1   1   8   97.69    5.60
   1   1  -8   98.19    4.50
  -1   1   8  106.99    6.10
   1   1  -8   98.19    4.50
   0  -1   8  151.48    8.70
   0  -1  -8  147.69    7.90
   0   1  -8  152.28    5.50
   0   1   8  144.59    7.30
   0   1  -8  137.19    8.00
   0   1   8  146.19    7.90
   0   1   8  159.28    8.00
   0   1  -8  141.49    5.50
   1  -1   8  397.96   16.50
  -1  -1  -8  388.46   15.80
  -1   1  -8  370.56   15.70
   1   1   8  385.56   15.70
   1   1   8  379.46   16.00
   1   1   8  372.36   15.20
   2  -1   8   84.49    6.50
  -2  -1  -8   82.19    5.80
  -2   1  -8   77.09    5.70
   2   1   8   84.49    6.40
   2   1   8   87.39    5.70
   2   1   8   86.69    5.80
  -3  -1  -8   11.40    3.00
   3  -1   8   10.20    3.00
   3   1   8    4.50    2.30
   3   1   8    6.20    2.00
   4  -1   8    3.40    0.70
   4  -1   8    4.10    2.30
   4  -1   8    4.50    0.90
  -4  -1  -8    1.60    1.90
   4   1   8    3.50    2.00
  -4   1  -8    4.40    2.10
   4   1   8   -0.20    1.90
   4   1   8    3.30    2.80
   5  -1   8   14.00    1.70
  -5  -1  -8    8.00    3.00
  -5  -1  -8   15.50    3.30
   5  -1   8   12.70    3.10
   5  -1   8   16.50    1.90
  -5   1  -8   15.50    3.20
   5   1   8   13.70    3.80
   5   1   8   23.50    3.90
  -6  -1  -8    2.80    2.80
   6  -1   8    3.70    2.60
  -6  -1  -8    0.40    2.20
   6  -1   8    3.50    1.40
   6  -1   8   -0.60    1.40
   6  -1   8    3.80    2.50
   6   1   8    3.80    2.40
   7  -1   8   13.30    2.40
  -7  -1  -8   14.90    4.20
   7  -1   8   18.00    3.90
   7  -1   8   18.10    2.60
  -7  -1  -8   17.50    3.50
   7   1   8   15.90    3.40
  -8  -1  -8    3.70    3.20
   8  -1   8   -0.80    2.50
   8  -1   8    0.70    1.60
   8  -1   8   -2.10    1.70
   8   1   8    0.80    2.20
   9  -1   8    4.30    3.10
   9  -1   8    5.30    2.50
  -9  -1  -8    6.70    3.90
   9  -1   8    8.80    2.70
   9   1   8   11.20    4.40
  10  -1   8  121.99    9.30
 -10  -1  -8  130.09   10.50
  10  -1   8  120.99    7.70
  10   1   8  129.09    9.50
  11  -1   8   52.49    6.90
  11  -1   8   54.39    6.10
  11  -1   8   45.00    5.50
 -11  -1  -8   60.99    8.50
  11   1   8   51.99    7.30
 -12  -1  -8    2.40    4.20
  12  -1   8    3.20    2.80
  12  -1   8    4.60    3.80
  12   1   8    2.40    3.60
  13  -1   8    2.00    3.60
  13  -1   8    4.10    3.20
  13   1   8    0.10    2.90
  13   1   8    3.80    4.10
  14  -1   8    8.90    4.60
  14  -1   8    6.40    3.80
  14   1   8    7.70    5.00
  14   1   8   10.70    6.00
  15  -1   8   46.80    7.20
  15  -1   8   49.50    7.90
  15   1   8   61.39    9.70
  15   1   8   58.39    9.10
 -15  -2   8   23.60    7.40
  15   2  -8   20.70    6.00
 -15   2   8   27.70    6.30
 -14  -2   8    0.30    3.90
  14   2  -8    0.20    5.30
 -13  -2   8   -0.10    4.00
  13   2  -8   -2.00    3.40
 -13   2   8   -0.30    2.60
 -12  -2   8   98.09   12.20
  12   2  -8   76.49    8.70
 -12   2   8   99.29    8.80
 -11  -2   8    1.70    4.10
 -11   2   8    2.90    3.30
  11   2  -8    2.70    3.20
 -10  -2   8    8.00    4.60
 -10   2   8   11.50    3.60
  10   2  -8    8.70    3.30
  -9  -2   8   -0.10    3.50
  -9   2   8    4.30    3.00
   9   2  -8    3.20    2.60
  -8  -2   8   53.99    8.20
   8   2  -8   70.99    6.50
  -8   2   8   69.79    7.30
  -7  -2   8  325.37   17.90
   7   2  -8  324.77   15.20
  -6  -2   8   -1.90    3.20
   6   2  -8    2.80    2.20
   6   2  -8    1.10    1.80
  -6   2   8    2.50    2.20
  -5  -2   8   40.40    7.10
  -5   2   8   47.00    3.00
   5   2  -8   45.90    5.30
  -5   2   8   55.09    6.60
   5   2  -8   66.99    6.30
  -5   2   8   44.70    3.00
  -4  -2   8    8.20    3.80
  -4   2   8   10.20    3.40
   4   2  -8   12.70    2.90
  -4   2   8    8.20    2.20
   4   2  -8    9.10    2.70
  -4   2   8   11.80    2.00
  -3  -2   8   12.80    4.40
   3   2  -8   16.40    2.80
  -3   2   8   16.10    2.50
  -3   2   8   12.70    3.10
  -3   2   8   11.90    2.70
   3   2  -8   19.50    3.40
  -2  -2   8   60.09    7.20
   2  -2  -8   71.89    6.40
  -2   2   8   72.69    4.60
  -2   2   8   73.89    5.50
  -2   2   8   73.39    6.40
   2   2  -8   74.89    4.80
   2   2  -8   78.99    5.10
   2   2  -8   71.09    8.00
  -1  -2   8   97.99    8.30
   1  -2  -8   83.19    7.00
  -1   2   8   96.09    7.30
  -1   2   8  108.89    6.90
   1   2  -8  110.29    5.60
  -1   2   8   97.69    5.80
   1   2  -8  106.09    5.60
   1   2  -8   90.79    7.50
   0  -2  -8  309.77   15.20
   0  -2  -8  334.47   14.30
   0  -2   8  332.97   15.90
   0   2  -8  322.77   12.50
   0   2   8  330.27   15.30
   0   2   8  320.67   14.70
   0   2  -8  328.97   15.20
  -1  -2  -8    1.60    2.50
  -1  -2  -8    0.40    2.40
   1  -2   8   -1.80    2.50
   1   2   8   -1.00    2.30
  -1   2  -8    0.00    1.10
   1   2   8    4.60    2.60
  -1   2  -8    3.60    2.50
   2  -2   8   65.29    7.30
  -2  -2  -8   71.49    6.40
   2  -2   8   71.49    3.40
  -2  -2  -8   73.69    7.90
   2   2   8   65.29    7.10
  -2   2  -8   72.19    3.40
   2   2   8   79.29    6.60
  -2   2  -8   76.19    6.30
  -3  -2  -8    3.10    2.60
   3  -2   8    0.60    0.90
   3  -2   8    0.80    2.70
   3   2   8    3.70    2.50
  -3   2  -8    0.50    0.80
  -3   2  -8   -0.40    2.40
   3   2   8    1.20    2.90
   4  -2   8    0.00    2.90
   4  -2   8   -0.40    1.00
  -4  -2  -8    2.30    2.90
  -4   2  -8    1.00    2.20
   4   2   8    3.00    2.20
  -4   2  -8   -0.10    1.00
  -5  -2  -8   12.20    4.40
   5  -2   8    6.10    3.50
   5  -2   8   12.50    1.90
   5   2   8    8.00    2.90
  -5   2  -8    8.50    1.70
   6  -2   8    2.20    3.10
  -6  -2  -8    1.40    2.90
   6  -2   8   -1.30    1.30
   6   2   8    3.50    2.90
  -7  -2  -8   -2.80    2.90
   7  -2   8   -0.90    2.90
   7  -2   8   -0.80    1.40
  -7   2  -8   -1.20    2.00
   7   2   8    1.80    3.00
   8  -2   8   60.29    7.40
   8  -2   8   53.59    4.40
  -8  -2  -8   49.99    7.20
   8   2   8   69.59    8.50
  -8   2  -8   55.19    5.00
   9  -2   8   95.09    8.20
  -9  -2  -8   42.30    7.20
   9  -2   8   53.99    5.00
   9   2   8   62.29    7.40
  -9   2  -8   73.19    6.00
  10  -2   8   34.80    6.10
 -10  -2  -8   29.40    7.10
  10  -2   8   22.00    4.10
  10   2   8   41.10    7.50
 -10   2  -8   30.50    4.90
  11  -2   8    1.40    3.60
 -11  -2  -8    4.70    4.50
  11  -2   8   -1.00    2.50
  11   2   8    2.70    3.40
 -12  -2  -8   14.40    5.90
  12  -2   8   17.50    5.00
  12  -2   8   15.00    3.90
  12   2   8   16.50    5.70
  13  -2   8    7.80    3.80
 -13  -2  -8    7.00    6.10
  13  -2   8   11.20    5.00
  13   2   8    5.60    4.40
  14  -2   8   17.40    4.80
 -14  -2  -8   11.80    6.20
  14  -2   8   13.50    5.20
  14   2   8   17.80    7.00
 -13  -3   8   -1.70    4.90
  13   3  -8    2.00    4.30
 -13   3   8   -1.90    3.80
 -12  -3   8    2.00    7.40
  12   3  -8    7.30    4.60
 -11  -3   8   79.89   11.60
  11   3  -8   85.79   10.20
 -11   3   8   72.19    8.20
 -10  -3   8    0.70    4.30
 -10   3   8    3.30    3.40
  10   3  -8    2.70    3.80
  -9  -3   8  329.87   20.60
   9   3  -8  324.07   17.30
  -8  -3   8   50.39    8.80
   8   3  -8   39.00    6.10
  -8   3   8   42.60    7.40
  -7  -3   8   67.59    9.70
   7   3  -8   75.99    8.60
  -7   3   8   51.69    6.60
  -6  -3   8   61.09    9.70
  -6   3   8   33.70    5.50
   6   3  -8   44.40    5.80
  -5  -3   8   -0.10    4.40
  -5   3   8    1.80    3.20
   5   3  -8   -0.70    2.20
  -4  -3   8  181.38   13.40
   4   3  -8  164.58    9.80
  -4   3   8  174.28   11.30
  -4   3   8  160.48    7.20
   4   3  -8  150.58    9.80
  -4   3   8  175.68    8.20
  -3  -3   8   86.59   10.40
  -3   3   8   85.59    5.20
   3   3  -8   77.29    6.80
  -3   3   8   83.99    6.50
   3   3  -8   79.59    6.50
  -3   3   8   79.59    9.20
   2  -3  -8  383.86   16.60
  -2  -3   8  449.95   21.50
   2   3  -8  416.06   17.30
  -2   3   8  383.76   17.40
  -2   3   8  412.26   19.50
   1  -3  -8   48.10    5.60
  -1  -3   8   41.30    7.10
  -1  -3   8   51.39    5.10
  -1   3   8   44.90    6.30
   1   3  -8   43.70    4.90
  -1   3   8   52.49    6.70
   0  -3   8   14.60    5.10
   0  -3   8   13.70    3.00
   0  -3  -8    9.60    3.70
   0   3   8    8.00    4.30
   0   3  -8   10.00    2.70
   0   3   8   14.20    4.70
  -1  -3  -8   35.90    5.70
   1  -3   8   29.60    6.30
   1  -3   8   38.40    4.10
   1   3   8   24.70    5.60
   1   3   8   31.70    5.80
  -1   3  -8   32.20    3.90
   2  -3   8  165.08    8.30
  -2  -3  -8  179.78   11.40
   2  -3   8  179.18   12.30
   2   3   8  173.48   11.80
  -2   3  -8  175.98    8.50
   3  -3   8  872.01   31.40
  -3  -3  -8  880.31   35.40
   3  -3   8  921.31   36.10
   3   3   8  899.91   36.10
  -3   3  -8  872.81   31.20
   4  -3   8   -0.90    1.60
   4  -3   8    4.90    4.30
  -4  -3  -8    5.30    4.10
  -4   3  -8   -1.70    1.60
   4   3   8   -3.20    3.00
  -5  -3  -8  105.19   10.90
   5  -3   8  114.69    6.90
   5  -3   8  120.89   10.10
   5   3   8  131.99   10.30
  -5   3  -8  129.09    6.40
   6  -3   8   35.60    6.50
   6  -3   8   33.10    4.10
  -6  -3  -8   31.10    7.00
   6   3   8   27.20    5.20
  -6   3  -8   32.50    3.50
   7  -3   8   -0.70    2.20
   7  -3   8   -5.00    3.30
  -7  -3  -8    2.10    3.90
   7   3   8    1.50    3.20
  -7   3  -8    1.70    2.20
  -8  -3  -8   -1.60    4.30
   8  -3   8    5.20    2.70
   8  -3   8    7.00    4.60
   8   3   8    0.20    3.00
  -8   3  -8    4.70    2.60
   9  -3   8    9.60    3.40
  -9  -3  -8    6.60    4.90
   9  -3   8   12.10    5.20
  -9   3  -8    9.10    3.40
   9   3   8    8.30    5.00
  10  -3   8    3.60    3.10
 -10  -3  -8   -0.10    5.50
  10  -3   8    4.20    4.10
 -10   3  -8    7.60    3.60
  10   3   8    6.10    3.80
 -11  -3  -8    3.50    8.10
  11  -3   8    9.30    4.90
  11  -3   8   11.10    5.20
 -11   3  -8   17.80    4.80
  11   3   8   22.80    7.00
  12  -3   8   -0.30    4.70
 -12  -3  -8    0.00    5.00
  12   3   8   -0.90    3.90
 -12   3  -8   -0.80    3.90
 -10  -4   8    0.70    5.50
 -10   4   8    2.10    4.60
  -9  -4   8   -4.30    5.20
  -9   4   8    1.20    3.60
   9   4  -8   -1.50    3.30
  -8  -4   8   15.40    7.40
   8   4  -8   17.60    6.00
  -7  -4   8    4.30    5.90
  -7   4   8    1.70    3.30
   7   4  -8   -2.90    2.90
  -6  -4   8   12.20    6.40
  -6   4   8   17.40    4.80
   6   4  -8   12.40    4.50
  -5  -4   8    3.50    5.60
  -5   4   8    0.20    2.70
   5   4  -8   -2.30    2.50
  -5   4   8   -2.00    1.40
  -4  -4   8  199.38   15.70
  -4   4   8  177.08    8.20
  -4   4   8  159.68    9.10
   4   4  -8  187.28   11.80
  -3  -4   8   49.80    9.20
   3  -4  -8   38.80    5.10
   3   4  -8   30.00    5.30
  -3   4   8   29.40    5.30
  -3   4   8   26.60    5.00
  -2  -4   8    0.20    4.50
   2  -4  -8    1.90    3.10
   2   4  -8    0.70    2.70
  -2   4   8   -1.10    2.80
  -2   4   8    0.90    4.00
  -1  -4   8    7.60    5.20
   1  -4  -8    4.60    3.70
   1   4  -8   11.30    3.90
  -1   4   8    8.70    4.70
   0  -4   8    8.20    5.70
   0  -4  -8    4.50    4.30
   0   4   8    1.80    2.80
   0   4  -8    0.30    2.60
   1  -4   8   98.39    8.00
   1  -4   8  121.59   12.80
  -1  -4  -8   98.19   10.30
  -1   4  -8  111.29    7.80
   2  -4   8   14.60    6.40
  -2  -4  -8   18.60    5.50
   2  -4   8   13.60    3.80
   2   4   8   11.00    3.80
  -2   4  -8   16.80    3.80
   3  -4   8    0.10    2.70
   3  -4   8   -6.00    4.50
  -3  -4  -8   -5.80    3.70
   3   4   8   -2.10    3.40
  -3   4  -8   -0.20    2.50
  -4  -4  -8    0.80    4.40
   4  -4   8   -4.00    4.40
   4  -4   8   -1.60    2.40
   4   4   8   -2.50    3.00
  -4   4  -8    0.40    2.40
  -5  -4  -8    6.10    5.50
   5  -4   8    2.80    3.00
   5  -4   8    9.40    5.20
  -5   4  -8    3.80    2.90
   5   4   8    7.00    4.70
  -6  -4  -8    8.70    5.90
   6  -4   8    2.30    2.90
   6  -4   8    2.60    5.00
  -6   4  -8    1.40    2.90
  -7  -4  -8   89.69   12.20
   7  -4   8   97.49   11.20
   7  -4   8   84.99    8.30
  -7   4  -8   98.79    7.00
   7   4   8   62.79    8.80
   8  -4   8   11.70    5.60
  -8  -4  -8    4.20    6.20
  -8   4  -8   -1.00    2.90
   8   4   8   -1.00    3.40
   9  -4   8    5.00    5.50
  -9  -4  -8    6.80    6.10
   9   4   8   -0.10    4.60
  -9   4  -8    7.10    3.80
 -16   0   9    2.40    3.70
 -16   0   9    1.70    3.10
 -15   0   9   19.70    7.50
 -15   0   9   28.90    5.80
 -14   0   9    1.30    3.50
 -13   0   9   42.30    6.40
 -13   0   9   34.30    6.00
 -12   0   9   -0.40    2.80
 -12   0   9   -0.70    2.60
  12   0  -9   -2.50    2.40
 -11   0   9 1722.83   60.19
 -11   0   9 1640.34   60.69
  11   0  -9 1659.93   59.59
 -10   0   9   -0.80    2.50
  10   0  -9    0.50    2.30
 -10   0   9   -2.30    2.10
  -9   0   9 1504.65   53.39
   9   0  -9 1465.15   52.59
  -9   0   9 1474.65   53.19
  -8   0   9    2.20    2.40
  -8   0   9   -1.40    2.30
   8   0  -9    1.70    2.20
   7   0  -9  786.62   28.90
  -7   0   9  751.02   29.20
  -7   0   9  754.52   28.80
   7   0  -9  752.72   28.50
  -6   0   9    1.90    2.60
   6   0  -9   -0.10    1.80
   6   0  -9   -0.60    1.80
  -6   0   9    0.00    1.50
  -5   0   9   -1.50    2.20
   5   0  -9    0.30    1.70
   5   0  -9   -0.10    1.70
  -5   0   9    5.00    2.00
  -4   0   9   -1.40    2.30
  -4   0   9    1.70    1.60
   4   0  -9   -0.30    1.50
   4   0  -9   -0.10    1.60
  -3   0   9    9.60    3.10
  -3   0   9   10.10    2.30
   3   0  -9    9.80    2.50
   3   0  -9   12.20    2.50
   2   0  -9   -0.80    1.40
  -2   0   9   -1.20    1.90
   2   0  -9   -0.40    1.40
  -2   0   9    3.60    1.60
   1   0  -9    1.90    1.50
  -1   0   9    2.40    1.50
   1   0  -9    2.00    2.00
  -1   0   9    1.30    2.20
   0   0  -9    0.60    1.20
   0   0   9   -1.70    1.10
   0   0  -9   -0.50    1.50
   0   0   9    0.80    1.90
  -1   0  -9  241.88   11.00
  -1   0  -9  249.58    9.90
   1   0   9  241.48   11.40
   2   0   9   -1.50    1.60
  -2   0  -9    2.00    1.90
  -2   0  -9   -0.90    1.10
   3   0   9 1113.19   40.80
   3   0   9 1148.89   41.30
  -3   0  -9 1151.08   38.70
   3   0   9 1147.99   39.00
   4   0   9    3.00    2.20
   4   0   9    0.30    2.30
  -4   0  -9    1.00    1.30
   4   0   9    0.60    1.10
   5   0   9 1037.10   38.30
   5   0   9 1073.59   36.80
   5   0   9 1029.40   39.20
   5   0   9 1062.59   36.70
   6   0   9    1.10    1.60
   6   0   9   -1.10    1.70
   6   0   9    1.70    2.30
   7   0   9    7.90    2.40
   7   0   9   10.00    2.80
   8   0   9   -1.50    2.50
   8   0   9    0.90    2.30
   8   0   9   -0.70    1.80
   9   0   9   56.89    6.10
   9   0   9   49.60    5.70
   9   0   9   56.29    6.60
  10   0   9    1.30    2.30
  10   0   9    3.00    3.00
  10   0   9   -2.80    2.70
  11   0   9  128.49    9.00
  11   0   9  115.39    9.60
  12   0   9   -0.20    3.50
  12   0   9   -1.00    2.80
  13   0   9   11.70    4.60
  13   0   9   -0.50    3.00
  14   0   9   -2.30    3.00
  14   0   9    5.30    4.40
  15   0   9   55.99    8.60
  15   0   9   50.09    8.50
 -16  -1   9    2.10    4.00
 -16   1   9    3.70    3.90
 -16   1   9    1.60    2.30
  16   1  -9   -1.40    3.10
 -15  -1   9    5.90    4.40
  15  -1  -9    6.40    3.20
  15   1  -9    7.90    4.70
 -15   1   9    2.10    4.20
 -15   1   9    7.40    2.70
 -14  -1   9   32.50    6.90
 -14  -1   9   34.80    7.70
  14  -1  -9   36.60    4.70
 -14   1   9   32.10    4.30
 -14   1   9   40.20    7.60
 -13  -1   9   39.20    7.10
 -13  -1   9   38.80    7.30
  13  -1  -9   41.40    4.70
 -13   1   9   52.39    8.30
 -13   1   9   49.20    5.00
  12  -1  -9    2.40    2.10
 -12  -1   9    6.80    3.80
 -12  -1   9    4.70    3.70
 -12   1   9    4.00    2.30
 -12   1   9    9.70    4.30
 -11  -1   9  118.09   12.00
 -11  -1   9   95.89   10.20
  11  -1  -9   82.79    5.50
 -11   1   9   94.99    6.00
 -11   1   9   97.19    9.80
  10  -1  -9    2.80    1.60
 -10  -1   9    2.60    3.70
 -10  -1   9    3.60    3.40
 -10   1   9    3.00    2.10
 -10   1   9    3.40    3.10
  -9  -1   9  250.27   14.30
  -9  -1   9  242.78   13.20
   9  -1  -9  233.98    9.90
  -9   1   9  238.68   12.60
  -9   1   9  241.78   10.60
   8  -1  -9    9.20    1.90
  -8  -1   9   14.80    3.80
  -8  -1   9   10.90    4.30
  -8   1   9    8.10    3.20
  -8   1   9   10.10    2.60
  -7  -1   9  226.38   11.90
   7  -1  -9  234.78    9.50
  -7  -1   9  219.28   13.20
  -7   1   9  235.38   11.70
   7   1  -9  222.98   12.60
   7   1  -9  238.38   11.40
  -7   1   9  244.58   10.40
   6  -1  -9    0.70    2.10
  -6  -1   9   -1.00    2.60
  -6  -1   9   -0.60    1.90
   6  -1  -9   -0.50    1.10
  -6   1   9   -0.40    1.90
   6   1  -9    1.20    2.50
  -6   1   9   -0.70    1.70
   6   1  -9    1.00    2.00
   5  -1  -9  302.67   14.30
  -5  -1   9  315.97   13.90
   5  -1  -9  326.17   12.30
  -5  -1   9  328.17   15.80
  -5   1   9  313.57   14.00
   5   1  -9  311.57   14.90
  -5   1   9  304.07   12.80
   5   1  -9  332.77   13.40
  -4  -1   9   43.30    5.80
   4  -1  -9   49.00    3.60
  -4  -1   9   48.60    4.40
   4  -1  -9   46.30    5.30
  -4   1   9   58.09    5.00
   4   1  -9   49.70    4.00
  -4   1   9   54.39    5.70
   4   1  -9   46.30    5.70
   3  -1  -9   -0.60    1.80
  -3  -1   9    1.00    1.70
   3  -1  -9    4.20    1.70
  -3  -1   9    2.20    3.00
  -3   1   9    1.60    1.80
   3   1  -9    6.00    1.70
   3   1  -9    4.50    2.70
  -3   1   9    3.20    2.00
  -2  -1   9   70.99    4.40
  -2  -1   9   72.09    7.00
   2  -1  -9   78.29    5.70
  -2   1   9   82.89    5.50
  -2   1   9   61.49    4.70
   2   1  -9   65.89    4.00
  -2   1   9   68.59    5.00
   1  -1  -9  244.58   11.40
  -1  -1   9  237.48   12.30
  -1   1   9  239.48   10.60
  -1   1   9  244.08   11.10
  -1   1   9  256.67   11.30
   1   1  -9  238.08    9.20
   0  -1  -9   13.50    3.00
   0  -1   9   11.70    3.50
   0   1   9    8.30    2.80
   0   1   9    7.70    2.40
   0   1  -9   12.20    1.30
   0   1  -9   11.30    1.20
   0   1  -9    7.70    3.00
   0   1   9   10.50    2.60
   1  -1   9   13.70    3.60
  -1  -1  -9    6.30    2.00
   1   1   9   11.70    2.90
  -1   1  -9   11.30    2.90
   1   1   9   13.60    2.90
   1   1   9    8.90    2.70
  -2  -1  -9    5.90    2.10
   2  -1   9    5.90    2.80
   2   1   9    9.20    2.60
  -2   1  -9    5.60    2.30
   2   1   9    4.30    2.20
  -3  -1  -9   49.80    5.20
   3  -1   9   51.69    6.00
   3   1   9   45.80    5.90
   3   1   9   54.19    5.60
  -3   1  -9   35.80    4.70
   3   1   9   47.20    5.00
   4  -1   9    7.60    2.80
  -4  -1  -9    7.30    2.70
  -4   1  -9    4.60    2.20
   4   1   9    8.80    3.10
   4   1   9    7.50    3.20
   4   1   9   11.90    2.90
   5  -1   9    6.60    3.00
  -5  -1  -9    3.80    2.70
   5  -1   9    8.30    1.30
   5  -1   9    9.40    1.50
   5   1   9    3.40    2.70
   5   1   9   10.60    2.90
   6  -1   9  124.19    8.40
  -6  -1  -9  110.79    7.30
   6  -1   9  122.99    5.70
   6   1   9  127.79    7.90
   6   1   9   98.59   12.20
   7  -1   9   66.09    4.40
   7  -1   9   72.19    4.60
  -7  -1  -9   75.69    6.10
   7   1   9   77.79    6.50
   7   1   9   78.79    7.00
   8  -1   9   49.60    4.30
   8  -1   9   43.40    5.90
   8  -1   9   48.20    4.20
   8   1   9   56.09    7.20
   8   1   9   54.49    6.20
   9  -1   9    3.00    2.30
   9  -1   9    2.40    2.10
   9  -1   9    3.80    3.50
   9   1   9   -1.10    3.20
  10  -1   9    4.80    2.60
  10  -1   9    7.20    2.90
  10  -1   9    4.40    3.90
  10   1   9    9.10    4.10
  10   1   9    9.50    4.50
  11  -1   9   11.90    3.50
  11  -1   9   12.00    4.20
  11  -1   9    7.20    3.20
  11   1   9   21.40    5.10
  11   1   9    9.70    4.20
  12  -1   9   43.00    5.90
  12  -1   9   36.00    6.40
  12   1   9   28.60    6.10
  12   1   9   31.10    6.00
  13  -1   9    9.10    5.00
  13  -1   9   14.30    4.30
  13   1   9   13.30    5.30
  13   1   9   17.50    6.20
  14  -1   9    7.70    5.00
  14  -1   9   20.90    5.10
  14   1   9   16.30    5.60
  14   1   9   21.10    6.20
  15   2  -9    0.80    3.40
 -15   2   9    2.90    3.90
 -14  -2   9    7.10    5.40
 -14   2   9    6.10    4.10
 -13  -2   9    1.70    4.30
 -13   2   9   11.80    4.50
  13   2  -9   10.80    4.20
 -12  -2   9   40.90    8.60
 -12   2   9   23.90    5.50
  12   2  -9   42.80    7.00
 -11  -2   9   10.30    5.30
  11   2  -9   17.00    4.20
 -11   2   9    6.60    3.60
 -10  -2   9   15.40    5.40
  10   2  -9   22.40    4.80
 -10   2   9   25.70    5.70
  -9  -2   9   10.00    5.10
   9   2  -9   10.10    3.40
  -9   2   9   21.50    5.20
  -8  -2   9   21.30    6.10
  -8   2   9   18.00    3.90
   8   2  -9   26.00    5.40
  -7  -2   9   73.59    9.10
   7   2  -9   77.09    6.30
  -7   2   9   57.29    6.50
  -6  -2   9   43.00    7.30
   6   2  -9   44.30    5.30
  -6   2   9   52.89    6.70
   6   2  -9   37.80    5.30
  -5  -2   9  349.47   18.00
   5   2  -9  344.87   14.80
   5   2  -9  307.47   14.40
  -5   2   9  339.17   15.80
  -5   2   9  348.67   13.60
  -5   2   9  336.37   12.60
  -4  -2   9   60.39    8.60
   4   2  -9   55.09    4.90
  -4   2   9   61.39    4.00
  -4   2   9   55.09    4.40
  -4   2   9   61.39    6.60
   4   2  -9   67.39    5.20
  -3  -2   9   21.60    5.00
  -3   2   9   29.10    3.90
   3   2  -9   31.40    3.90
   3   2  -9   36.90    4.10
  -3   2   9   33.80    3.60
  -3   2   9   36.00    5.50
  -2  -2   9   25.10    5.40
  -2   2   9   15.10    3.30
   2   2  -9   29.20    3.40
  -2   2   9   23.80    3.90
  -2   2   9   26.10    3.30
   2   2  -9   21.90    3.20
  -1  -2   9   44.70    7.00
   1   2  -9   35.80    3.30
  -1   2   9   46.80    4.60
  -1   2   9   40.40    5.20
   1   2  -9   41.50    3.40
  -1   2   9   44.20    5.90
   0  -2   9  157.68   10.40
   0   2   9  152.48    8.10
   0   2   9  157.18    9.30
   0   2   9  158.58    9.60
   0   2  -9  156.78    6.80
  -1  -2  -9   45.10    5.50
   1  -2   9   48.00    6.40
  -1   2  -9   33.30    2.30
   1   2   9   37.60    5.70
   1   2   9   37.20    5.50
  -1   2  -9   35.90    2.40
  -2  -2  -9    5.30    3.00
   2  -2   9    8.30    3.60
   2   2   9   16.50    4.00
   2   2   9   10.00    3.90
  -3  -2  -9  246.88   13.10
   3  -2   9  236.68   13.30
   3   2   9  236.18   12.70
   4  -2   9    8.70    4.10
  -4  -2  -9   -0.50    2.70
   4   2   9    0.50    2.20
  -5  -2  -9  302.67   16.40
   5  -2   9  333.57   17.20
   5  -2   9  331.97   11.20
   5   2   9  303.27   17.20
   6  -2   9    5.40    3.60
  -6  -2  -9    0.70    3.60
   6  -2   9   -1.00    1.10
   6   2   9   -2.50    2.20
   7  -2   9   16.70    2.40
   7  -2   9   22.70    5.20
  -7  -2  -9   11.20    5.20
   7   2   9   16.80    5.10
   8  -2   9  107.09    6.00
   8  -2   9  125.59    9.60
  -8  -2  -9  102.59   10.60
   8   2   9  129.39    9.80
  -9  -2  -9    7.50    4.80
   9  -2   9    9.30    2.50
   9  -2   9    6.60    2.40
   9  -2   9   13.20    4.50
   9   2   9    7.10    3.60
  10  -2   9    1.80    3.70
 -10  -2  -9    1.30    3.90
  10  -2   9   -1.70    2.00
  10  -2   9    1.60    2.20
  10   2   9    2.40    3.70
  11  -2   9    0.30    2.90
 -11  -2  -9    4.90    4.60
  11  -2   9    5.60    4.20
  11  -2   9   -0.50    2.50
  11   2   9    5.70    4.40
  12  -2   9    1.50    3.60
  12  -2   9   -0.60    2.60
  12  -2   9   -1.40    2.90
  12   2   9    0.60    3.70
  13  -2   9   17.00    5.50
 -13  -2  -9   13.00    6.10
  13   2   9   39.60    8.90
 -13  -3   9   -5.60    4.10
 -13   3   9   -3.50    3.40
  13   3  -9    1.00    4.00
 -12  -3   9   26.20    8.30
  12   3  -9   16.40    5.00
 -12   3   9   22.60    5.80
 -11  -3   9   -2.30    4.40
  11   3  -9   -0.60    3.50
 -11   3   9   -2.70    3.40
 -10  -3   9   65.59   11.50
 -10   3   9   34.80    6.30
  10   3  -9   54.79    8.20
  -9  -3   9    3.80    5.00
  -9   3   9    3.30    3.10
   9   3  -9   -0.70    3.00
  -8  -3   9   12.10    6.10
  -8   3   9    7.10    3.70
   8   3  -9   12.10    4.60
  -7  -3   9   -2.20    4.10
  -7   3   9   -1.90    2.80
   7   3  -9    0.00    2.50
  -6  -3   9    9.90    5.20
   6   3  -9    5.40    3.20
  -6   3   9   10.00    4.30
  -5  -3   9    2.90    4.40
  -5   3   9   -3.40    2.30
   5   3  -9    0.30    2.30
  -5   3   9    1.70    1.60
  -5   3   9    0.20    1.30
  -4  -3   9   37.50    7.50
   4   3  -9   46.90    6.10
   4   3  -9   36.60    5.20
  -4   3   9   32.40    5.90
  -4   3   9   38.90    3.70
  -4   3   9   34.20    4.20
  -3  -3   9   -0.40    3.90
  -3   3   9    1.20    2.90
   3   3  -9   -1.40    1.90
  -3   3   9   -1.30    2.70
  -3   3   9    0.50    1.80
   3   3  -9   -4.30    2.20
  -2  -3   9  176.28   13.10
  -2   3   9  185.68    8.90
  -2   3   9  163.68   10.20
   2   3  -9  179.78    9.60
  -2   3   9  178.68   11.70
   2   3  -9  166.98    9.30
  -1  -3   9  167.68   12.60
   1  -3  -9  171.48    9.50
  -1   3   9  147.69   10.60
   1   3  -9  141.39    8.50
   1   3  -9  142.19    8.20
  -1   3   9  170.78   13.00
   0  -3  -9    7.30    3.40
   0  -3   9   15.00    5.10
   0  -3   9    3.80    2.10
   0   3  -9    7.50    2.30
   0   3   9    1.00    3.50
   0   3   9   24.30    5.30
   1  -3   9    4.60    2.20
   1  -3   9   13.90    5.10
  -1  -3  -9    4.20    3.40
   1   3   9    3.50    3.20
  -1   3  -9    6.70    2.30
   2  -3   9   40.30    7.10
   2  -3   9   24.50    3.20
  -2   3  -9   30.50    3.30
   2   3   9   17.50    4.00
  -3  -3  -9  407.26   19.70
   3  -3   9  412.36   20.50
   3  -3   9  401.46   15.40
  -3   3  -9  407.06   15.30
   3   3   9  425.46   20.50
   4  -3   9   -0.50    4.00
   4  -3   9    0.90    1.70
  -4  -3  -9    0.50    3.80
   4   3   9    4.60    3.90
  -4   3  -9   -3.40    1.50
  -5  -3  -9   39.30    7.10
   5  -3   9   42.10    3.90
   5  -3   9   41.60    7.10
   5   3   9   31.20    5.40
  -5   3  -9   45.90    3.70
  -6  -3  -9  135.69   11.50
   6  -3   9  123.59    6.90
   6  -3   9  154.88   11.60
  -6   3  -9  134.29    6.60
   6   3   9  146.69   11.20
   7  -3   9   20.10    5.70
  -7  -3  -9    9.90    5.00
   7  -3   9   15.00    3.00
   7   3   9   14.00    4.60
  -7   3  -9   15.80    2.80
   8  -3   9   -2.90    4.00
   8  -3   9    2.10    2.20
  -8  -3  -9    2.70    4.40
   8   3   9   -0.20    3.70
  -8   3  -9    3.20    2.40
  -9  -3  -9   -4.70    3.90
   9  -3   9    1.60    2.50
   9  -3   9    1.50    4.30
   9   3   9   -0.10    3.70
  -9   3  -9    0.00    2.60
  10  -3   9   20.40    4.30
  10  -3   9   35.50    7.70
 -10  -3  -9   43.60    9.70
  10   3   9   49.80    9.80
 -10   3  -9   42.80    5.40
  11  -3   9    7.90    5.30
 -11  -3  -9   -1.70    4.80
  11   3   9    7.80    5.30
 -11   3  -9    2.90    3.60
 -10  -4   9   13.40    7.30
 -10   4   9    8.30    5.50
  -9  -4   9   45.50   10.00
   9   4  -9   63.79    9.60
  -9   4   9   35.50    6.90
  -8  -4   9   73.89   12.50
   8   4  -9   59.59    8.00
  -8   4   9   51.19    8.70
  -7  -4   9    8.00    7.40
   7   4  -9   -1.30    3.00
  -6  -4   9   56.49   10.10
  -6   4   9   34.00    5.70
   6   4  -9   50.69    8.00
  -5  -4   9    5.00    6.10
  -5   4   9    6.80    3.80
   5   4  -9   10.50    3.90
  -5   4   9   10.00    1.90
  -4  -4   9   23.30    8.00
   4   4  -9   30.30    5.90
  -4   4   9   26.80    4.40
  -4   4   9   27.60    7.00
  -4   4   9   26.30    3.50
  -3  -4   9   20.40    6.90
   3   4  -9   25.50    5.10
  -3   4   9   15.90    4.30
  -3   4   9   19.40    6.10
  -3   4   9   24.40    3.80
  -2  -4   9   63.29   10.30
   2  -4  -9   51.79    6.30
  -2   4   9   46.60    6.80
   1  -4  -9   61.79    7.50
  -1  -4   9   62.99   10.40
   1   4  -9   66.39    7.40
  -1   4   9   87.89   11.10
   0  -4   9   38.00    8.40
   0  -4  -9   38.40    6.30
   0  -4   9   25.60    4.80
   0   4   9   32.90    7.30
   0   4  -9   49.70    6.10
  -1  -4  -9   53.69    7.80
   1  -4   9   43.00    5.20
   1  -4   9   58.99    9.60
  -1   4  -9   48.60    5.60
   1   4   9   85.09   11.20
   2  -4   9    0.40    2.50
   2  -4   9   -2.40    4.20
  -2  -4  -9    2.10    4.20
   2   4   9    0.90    2.90
  -2   4  -9   -0.80    2.30
   3  -4   9    7.20    3.70
   3  -4   9   24.20    7.00
  -3  -4  -9   11.90    5.60
  -3   4  -9   21.90    4.00
   3   4   9   19.70    6.20
  -4  -4  -9    7.10    5.20
   4  -4   9   13.60    6.00
   4  -4   9    8.60    5.60
   4   4   9    4.70    3.10
  -4   4  -9    6.90    2.90
  -5  -4  -9  179.28   14.30
   5  -4   9  182.58   14.30
   5  -4   9  163.88   11.00
  -5   4  -9  176.08    9.10
   6  -4   9   33.80    7.80
   6  -4   9   21.70    5.00
  -6  -4  -9   30.00    7.60
  -6   4  -9   32.20    4.40
   6   4   9   27.50    6.90
   7  -4   9   64.79   10.20
  -7   4  -9   76.99    6.20
   7   4   9   75.79   11.40
  -8  -4  -9   16.80    7.40
   8  -4   9    9.70    6.10
   8   4   9    0.20    4.50
  -8   4  -9    6.70    3.20
 -16   0  10   29.80    6.00
 -16   0  10   32.80    8.00
 -15   0  10    1.10    3.80
 -15   0  10   -3.60    2.90
 -14   0  10   49.60    8.40
 -14   0  10   39.50    6.50
 -13   0  10    2.50    3.00
 -13   0  10    0.50    3.00
 -12   0  10   63.39    7.90
 -12   0  10   41.40    6.40
 -11   0  10   -0.60    2.70
  11   0 -10   -2.50    2.50
 -11   0  10    2.10    3.20
  10   0 -10    0.20    2.30
 -10   0  10    4.10    3.20
 -10   0  10    2.00    2.80
  -9   0  10    0.80    2.70
   9   0 -10    1.30    2.50
  -9   0  10   -3.30    1.90
   8   0 -10    3.60    2.60
  -8   0  10    9.60    3.10
  -8   0  10    4.80    2.90
  -7   0  10   -1.50    1.60
   7   0 -10   -1.20    1.80
  -7   0  10   -3.30    2.20
   7   0 -10   -1.50    1.70
  -6   0  10  136.69    8.50
   6   0 -10  122.79    7.50
   6   0 -10  133.59    7.80
  -6   0  10  128.49    7.60
   5   0 -10   -0.70    1.60
  -5   0  10    0.60    1.60
  -5   0  10    0.70    2.50
   5   0 -10    0.00    1.80
  -4   0  10 2635.14   89.79
   4   0 -10 2646.64   88.89
  -4   0  10 2671.93   88.69
   4   0 -10 2627.44   89.09
   3   0 -10    1.10    1.70
   3   0 -10   -0.20    1.40
  -3   0  10   -4.00    2.10
  -3   0  10   -1.50    1.40
   2   0 -10 1513.65   53.39
  -2   0  10 1562.74   52.49
   2   0 -10 1563.54   52.89
  -2   0  10 1546.35   53.99
   1   0 -10    3.00    1.70
  -1   0  10    0.70    2.10
   1   0 -10    0.90    1.70
  -1   0  10    2.20    1.40
   0   0 -10   92.89    6.00
   0   0  10   88.49    4.80
   0   0  10   88.79    6.40
   0   0 -10   83.79    5.00
   1   0  10   -1.50    1.00
  -1   0 -10    1.10    1.80
   1   0  10   -0.10    2.00
  -1   0 -10   -0.70    1.20
   2   0  10   46.70    5.40
   2   0  10   40.40    3.20
  -2   0 -10   31.40    4.00
  -2   0 -10   38.00    3.20
  -3   0 -10    0.30    1.30
   3   0  10    2.30    2.60
   3   0  10    2.70    2.20
   3   0  10    1.60    1.20
   4   0  10  115.29    9.20
  -4   0 -10  116.99    5.90
   4   0  10  123.99    8.00
   4   0  10  131.59    6.30
   5   0  10    0.30    1.70
   5   0  10   -0.50    1.20
   5   0  10    0.70    2.20
   6   0  10   65.79    5.20
   6   0  10   70.99    9.10
   6   0  10   73.39    5.00
   7   0  10   -3.30    1.90
   7   0  10   -1.60    2.40
   7   0  10    1.50    1.50
   8   0  10    0.50    2.00
   8   0  10    1.80    2.40
   8   0  10    0.50    3.00
   9   0  10   -0.90    1.90
   9   0  10    1.20    2.60
   9   0  10    2.80    3.10
  10   0  10  267.77   14.40
  10   0  10  229.08   12.20
  10   0  10  261.67   13.00
  11   0  10    4.60    3.50
  11   0  10    1.20    2.90
  12   0  10  102.39    8.60
  12   0  10   98.99   10.30
  13   0  10    1.00    3.90
  13   0  10   -2.40    3.00
  14   0  10   10.20    4.70
 -16  -1  10   42.60    8.30
  16   1 -10   61.49    9.80
 -16   1  10   39.10    4.70
 -16   1  10   40.80    7.10
  15  -1 -10   19.30    3.80
 -15  -1  10   28.90    6.70
 -15  -1  10   18.20    5.90
  15   1 -10   18.20    5.10
 -15   1  10   30.40    6.50
 -15   1  10   28.70    4.10
 -14  -1  10   43.00    8.20
 -14  -1  10   41.10    6.90
  14  -1 -10   37.70    4.70
 -14   1  10   50.59    5.40
 -14   1  10   37.40    7.00
 -13  -1  10    7.60    4.60
 -13  -1  10    8.30    4.20
  13  -1 -10   13.10    3.00
 -13   1  10   17.10    5.40
 -13   1  10   16.40    3.40
  12  -1 -10   30.80    3.80
 -12  -1  10   39.10    7.20
 -12  -1  10   29.30    6.70
 -12   1  10   38.30    4.60
 -12   1  10   50.39    8.30
  11  -1 -10   -0.40    1.60
 -11  -1  10   -0.40    2.50
 -11  -1  10    2.00    3.60
 -11   1  10    0.40    2.10
 -11   1  10    0.70    3.00
  10  -1 -10   20.20    3.00
 -10  -1  10   19.90    4.70
 -10  -1  10   22.40    5.50
 -10   1  10   28.80    5.50
 -10   1  10   18.40    3.40
  -9  -1  10   62.79    7.90
   9  -1 -10   52.99    4.00
  -9   1  10   64.19    7.50
  -9   1  10   57.79    5.40
  -8  -1  10   22.90    5.40
  -8  -1  10   13.90    4.00
   8  -1 -10   17.40    2.60
  -8   1  10   17.10    3.90
  -8   1  10   18.30    3.20
  -7  -1  10   26.40    4.50
  -7  -1  10   21.20    5.10
   7  -1 -10   32.00    3.50
   7   1 -10   22.00    4.10
  -7   1  10   27.70    3.90
  -7   1  10   27.00    7.30
  -6  -1  10   44.10    6.90
   6  -1 -10   44.00    4.10
  -6  -1  10   40.10    5.10
   6   1 -10   33.20    4.30
  -6   1  10   46.20    5.00
   6   1 -10   34.00    5.40
  -6   1  10   45.40    5.40
   5  -1 -10  194.08   10.60
  -5  -1  10  201.58   10.00
  -5  -1  10  196.18   11.70
   5  -1 -10  201.58    8.70
   5   1 -10  184.28    9.30
  -5   1  10  194.58   10.10
   5   1 -10  193.38   11.00
  -5   1  10  195.98    9.40
  -4  -1  10    0.90    1.70
   4  -1 -10    1.80    1.50
  -4  -1  10   -1.90    2.60
   4  -1 -10    2.90    2.10
  -4   1  10    0.90    1.90
   4   1 -10    1.80    2.60
  -4   1  10   -1.50    1.70
   4   1 -10    0.00    1.40
  -3  -1  10   66.89    4.80
   3  -1 -10   72.99    7.50
   3  -1 -10   70.89    4.60
  -3  -1  10   71.49    7.40
  -3   1  10   64.79    5.00
  -3   1  10   71.69    5.50
   3   1 -10   67.59    4.40
   3   1 -10   64.09    7.00
  -2  -1  10   54.69    3.90
  -2  -1  10   53.49    6.40
   2  -1 -10   49.70    5.60
   2   1 -10   47.80    3.50
   2   1 -10   41.20    5.00
  -2   1  10   60.89    4.70
  -2   1  10   53.59    5.30
  -2   1  10   65.09    5.10
  -1  -1  10    2.20    2.50
  -1  -1  10    0.80    1.30
   1  -1 -10    3.10    1.90
   1   1 -10    3.00    2.30
  -1   1  10    3.10    2.30
  -1   1  10    2.10    2.10
  -1   1  10    6.20    2.30
   0  -1  10   21.80    4.50
   0  -1 -10   12.80    2.80
   0   1 -10   15.10    1.50
   0   1  10   12.40    3.10
   0   1  10   12.70    2.80
   0   1 -10   12.20    1.30
   0   1  10    7.40    2.50
   0   1 -10   12.60    3.10
  -1  -1 -10   58.39    5.00
   1  -1  10   62.89    7.20
   1   1  10   66.39    5.30
   1   1  10   63.79    5.20
  -1   1 -10   59.39    6.40
  -2  -1 -10   40.30    4.50
   2  -1  10   47.20    5.60
   2   1  10   35.10    5.00
   2   1  10   40.50    4.80
  -2   1 -10   29.00    4.20
   2   1  10   36.90    4.40
   3  -1  10    3.10    2.80
  -3  -1 -10    6.20    2.60
  -3   1 -10    6.60    2.60
   3   1  10    5.20    2.90
   3   1  10    7.80    2.90
   3   1  10   11.00    3.10
  -4  -1 -10    3.70    2.50
   4  -1  10    4.40    2.80
   4   1  10    3.10    2.00
   4   1  10    1.30    2.20
   5  -1  10  172.58   10.50
  -5  -1 -10  184.08   10.80
   5   1  10  187.18    9.90
  -6  -1 -10   -1.90    2.20
   6  -1  10   -0.10    1.00
   6  -1  10    0.50    1.10
   6  -1  10    2.20    2.90
   6   1  10   -0.40    2.50
   6   1  10    0.50    2.20
   7  -1  10    1.20    1.50
   7  -1  10    5.10    3.30
   7  -1  10    1.60    1.70
  -7  -1 -10    7.70    2.80
   7   1  10    3.80    2.90
   7   1  10    2.80    3.00
   8  -1  10   74.59    4.80
   8  -1  10   55.89    7.20
   8  -1  10   53.19    4.40
   8   1  10   70.19    7.50
   8   1  10   68.09    7.30
   9  -1  10   19.40    4.70
   9  -1  10   17.70    3.20
   9  -1  10   21.90    3.60
   9   1  10   14.80    4.80
   9   1  10   21.20    4.50
  10  -1  10   84.99    6.20
  10  -1  10   51.49    5.40
  10  -1  10   79.39    8.50
  10   1  10   82.79    8.80
  10   1  10   69.39    7.70
  11  -1  10   16.40    4.00
  11  -1  10   20.70    4.20
  11  -1  10   26.80    5.90
  11   1  10   26.80    5.60
  11   1  10   18.40    5.20
  12  -1  10   32.20    6.40
  12  -1  10   21.10    4.70
  12   1  10   21.20    5.40
  12   1  10   25.30    6.00
  13  -1  10  234.78   14.70
  13  -1  10  220.48   12.70
  13   1  10  211.68   14.40
  14  -1  10   12.30    4.80
  14  -1  10    1.80    4.50
  14   1  10    6.80    5.00
  14   1  10    6.40    5.00
 -15  -2  10    6.80    5.70
 -15   2  10    9.10    4.80
  15   2 -10    7.90    4.40
 -14  -2  10   47.20    9.00
  14   2 -10   79.19   11.30
 -14   2  10   77.09    9.40
 -13  -2  10    2.70    4.40
  13   2 -10   -2.20    3.30
 -13   2  10    1.60    3.60
 -12  -2  10   54.99    9.40
 -12   2  10   65.79    9.10
  12   2 -10   45.60    7.10
 -11  -2  10   -2.10    3.70
  11   2 -10    8.50    4.30
 -11   2  10    1.60    3.50
 -10  -2  10  146.29   12.70
  10   2 -10  158.98   10.70
 -10   2  10  140.09   10.30
  -9  -2  10   10.10    5.00
  -9   2  10   10.20    4.00
   9   2 -10    3.00    3.00
  -8  -2  10   18.90    5.90
  -8   2  10   27.10    5.10
   8   2 -10   24.10    4.50
  -7  -2  10   68.99    9.40
   7   2 -10   66.69    6.20
  -7   2  10   82.89    9.00
  -6  -2  10   21.20    6.40
  -6   2  10   16.60    2.30
  -6   2  10   25.50    5.30
   6   2 -10   13.70    3.40
  -6   2  10   17.60    2.30
   6   2 -10   17.90    3.40
  -5  -2  10   39.70    7.50
   5   2 -10   39.90    4.90
   5   2 -10   55.99    5.70
  -5   2  10   55.69    4.60
  -5   2  10   42.90    5.20
  -5   2  10   46.60    4.00
  -4  -2  10  105.09   10.90
  -4   2  10   97.49    5.60
  -4   2  10  103.49    7.70
   4   2 -10   96.59    6.30
  -4   2  10  108.09    6.30
   4   2 -10   87.59    6.10
  -3  -2  10   17.70    4.90
   3   2 -10   21.20    3.20
  -3   2  10   21.30    3.70
   3   2 -10   26.20    3.50
  -3   2  10   24.50    3.30
  -3   2  10   35.10    7.10
   2   2 -10   85.79    5.10
  -2   2  10   70.99    6.60
  -2   2  10   78.09    6.10
   2   2 -10   76.89    5.00
  -2   2  10   93.59    5.70
  -1  -2  10   30.30    6.30
  -1   2  10   36.20    4.30
  -1   2  10   33.10    5.00
   1   2 -10   34.50    3.00
   1   2 -10   36.00    3.10
  -1   2  10   35.90    5.30
   0  -2  10  196.28   12.90
   0   2 -10  191.88    7.60
   0   2 -10  198.88    7.80
   0   2  10  196.38    9.80
   0   2  10  209.38   11.30
   1  -2  10  137.29   11.30
   1   2  10  135.69    9.20
   1   2  10  149.59    8.40
   1   2  10  143.09    9.50
   2   2  10   11.40    4.30
   2   2  10   10.70    3.20
   2   2  10   13.20    3.30
   3  -2  10   22.60    5.80
  -3  -2 -10   27.50    5.20
   3   2  10   31.20    5.20
  -4  -2 -10  120.69    9.40
   4  -2  10  138.29   10.10
   5  -2  10   16.50    4.70
  -5  -2 -10   15.60    4.80
   5   2  10   18.80    4.80
  -6  -2 -10    9.10    4.30
   6  -2  10    6.20    4.00
   6   2  10   15.70    4.80
   7  -2  10   -0.90    1.10
   7  -2  10    0.80    1.10
  -7  -2 -10    0.70    3.60
   7  -2  10    0.70    3.40
   7   2  10    1.00    3.20
   8  -2  10   98.19    5.30
   8  -2  10  113.49    5.70
  -8  -2 -10   99.89   11.20
   8  -2  10  115.19    9.80
   8   2  10  117.59    9.70
   9  -2  10    6.90    2.20
   9  -2  10    3.70    1.90
  -9  -2 -10    2.10    3.90
   9  -2  10    4.60    4.30
   9   2  10    6.40    3.90
  10  -2  10   29.20    3.90
  10  -2  10   19.80    5.50
  10  -2  10   18.20    3.30
 -10  -2 -10   21.20    6.80
  10   2  10   20.90    5.20
  11  -2  10    4.50    2.60
  11  -2  10    1.80    4.20
 -11  -2 -10   -3.00    3.70
  11  -2  10    0.50    2.30
  11   2  10   -0.20    3.40
  12  -2  10   10.30    5.10
 -12  -2 -10   11.30    5.90
  12  -2  10    8.80    3.40
  12  -2  10    6.20    3.50
  12   2  10    6.00    4.70
  13  -2  10    4.10    3.50
  13  -2  10    0.90    4.60
 -13  -2 -10    3.80    5.00
  13   2  10    0.70    4.30
 -13  -3  10   -0.10    5.10
 -13   3  10    1.60    4.00
  13   3 -10    3.70    4.40
 -12  -3  10    7.70    6.60
  12   3 -10    3.30    3.80
 -12   3  10    1.90    4.60
 -11   3  10   66.19   10.70
  11   3 -10  101.09   11.40
 -10  -3  10   16.30    7.40
 -10   3  10   22.80    5.70
  10   3 -10   29.70    6.10
  -9  -3  10   55.69    9.70
  -9   3  10   58.29    7.60
   9   3 -10   51.69    7.10
  -8  -3  10   20.20    7.00
   8   3 -10   12.20    4.70
  -8   3  10   11.10    4.30
  -7  -3  10    3.90    5.10
   7   3 -10    6.50    3.40
  -7   3  10    1.50    2.50
  -6  -3  10   51.99    9.60
   6   3 -10   42.90    5.90
  -6   3  10   37.20    6.60
  -5  -3  10   39.80    7.80
   5   3 -10   62.09    7.20
  -5   3  10   53.39    3.90
  -5   3  10   42.90    6.10
  -4  -3  10  320.47   19.20
   4   3 -10  324.07   15.00
  -4   3  10  340.97   17.10
  -4   3  10  314.27   12.70
  -4   3  10  324.17   13.80
   4   3 -10  305.37   14.80
  -3  -3  10   57.99    9.00
  -3   3  10   56.49    6.20
   3   3 -10   55.69    6.10
  -3   3  10   53.19    4.70
  -3   3  10   53.49    8.00
   3   3 -10   39.40    5.30
  -2  -3  10  138.89   13.90
   2   3 -10  135.49    8.10
   2   3 -10  126.79    7.70
  -2   3  10  125.49   10.10
  -2   3  10  132.09    9.20
  -2   3  10  125.79    7.40
  -1  -3  10   93.79   10.70
   1   3 -10  101.09    6.50
   1   3 -10   92.79    6.50
  -1   3  10   98.79    9.50
  -1   3  10  106.29    6.90
  -1   3  10   96.69    8.70
   0  -3  10    4.90    4.90
   0  -3 -10    4.40    3.10
   0   3  10    3.10    2.80
   0   3  10    7.90    4.10
   0   3 -10    2.90    1.90
   0   3 -10    2.80    2.40
   1  -3  10    6.80    4.60
  -1  -3 -10    5.00    3.60
  -1   3 -10    6.30    2.00
  -1   3 -10    7.80    2.40
   1   3  10   12.20    4.60
  -2  -3 -10    0.30    3.40
   2  -3  10   -2.10    3.80
  -2   3 -10   -0.30    1.60
   2   3  10    0.80    2.60
   3  -3  10   59.09    8.80
  -3  -3 -10   57.69    7.80
  -3   3 -10   49.30    3.60
   3   3  10   80.79   10.20
  -4  -3 -10   15.10    5.20
   4  -3  10    0.00    4.10
   4  -3  10   13.20    2.30
  -4   3 -10    9.90    1.70
   4   3  10   13.40    4.90
  -5  -3 -10   21.00    6.10
   5  -3  10    8.30    4.90
   5  -3  10   15.20    2.20
   5   3  10   18.70    5.60
  -5   3 -10   16.80    2.00
  -6  -3 -10   -2.10    3.80
   6  -3  10   -1.00    4.10
   6   3  10   -0.20    3.00
  -6   3 -10    2.70    1.60
   7  -3  10   14.30    2.60
   7  -3  10   16.80    6.10
  -7  -3 -10   12.50    5.40
   7   3  10   10.90    4.60
  -7   3 -10   15.60    2.90
   8  -3  10    3.80    2.10
  -8  -3 -10    6.30    4.70
   8  -3  10   15.20    5.70
   8   3  10    9.70    4.70
  -8   3 -10    8.00    3.30
   9  -3  10    2.00    4.60
  -9  -3 -10    8.20    5.70
   9  -3  10    2.40    2.30
   9   3  10   -0.50    3.90
  10  -3  10    3.80    4.80
  10  -3  10   -1.10    2.50
 -10  -3 -10    1.60    4.80
  11  -3  10    9.40    2.90
 -11  -3 -10    4.20    6.30
  11  -3  10    3.30    5.30
  11   3  10    4.80    4.90
  -9  -4  10    1.90    6.20
  -9   4  10    4.80    4.50
   9   4 -10    6.10    4.10
  -8  -4  10   -4.50    4.70
  -8   4  10    0.20    3.80
   8   4 -10    1.60    3.60
  -7  -4  10  119.29   15.40
  -7   4  10  128.89   11.20
   7   4 -10  115.69   10.20
   6   4 -10   85.79    9.90
  -6   4  10   75.59   10.70
  -5  -4  10   -1.80    4.80
   5   4 -10    1.50    3.30
  -5   4  10   -1.40    1.50
  -5   4  10   -3.10    3.60
  -4  -4  10    2.60    5.50
  -4   4  10    3.10    2.20
   4   4 -10   -0.20    2.70
  -4   4  10    2.30    3.10
  -4   4  10    4.80    3.50
  -3  -4  10    0.30    5.20
  -3   4  10    1.40    4.10
   3   4 -10    5.60    3.60
  -3   4  10    4.80    2.50
  -2  -4  10   83.19   11.80
   2   4 -10   71.39    7.90
  -2   4  10   72.29    6.20
  -2   4  10   60.69    8.00
   1  -4 -10   13.40    4.60
  -1  -4  10    7.20    6.00
   1   4 -10   10.60    6.90
   1   4 -10   13.50    3.80
  -1   4  10    5.50    3.50
   0  -4 -10    6.10    4.20
   0  -4  10   -5.10    4.60
   0   4 -10    6.80    3.60
   0   4  10    4.10    3.30
   0   4 -10    3.80    2.80
   1  -4  10    0.10    2.80
   1  -4  10    4.80    5.40
  -1  -4 -10    5.10    4.40
   1   4  10    3.50    3.80
  -1   4 -10    2.60    2.70
  -2  -4 -10   15.00    5.70
   2  -4  10   17.00    6.90
   2  -4  10   15.90    3.50
  -2   4 -10   19.30    3.60
   2   4  10   15.00    5.20
  -3  -4 -10    6.70    4.80
   3  -4  10    2.20    5.00
   3  -4  10    3.60    2.60
   3   4  10    2.10    3.30
  -3   4 -10    4.20    2.60
   4  -4  10    2.60    2.40
  -4  -4 -10    8.70    5.10
   4  -4  10    3.00    5.20
  -4   4 -10    3.50    2.50
  -5  -4 -10  164.38   13.80
   5  -4  10  159.58    8.80
   5  -4  10  192.68   14.90
  -5   4 -10  178.98    8.50
   6  -4  10   13.30    6.10
  -6  -4 -10   28.60    7.80
   6   4  10   16.20    5.60
  -6   4 -10   19.80    3.20
  -7  -4 -10   42.90    8.70
   7  -4  10   71.99   10.50
   7   4  10   43.20    7.60
  -7   4 -10   69.69    5.30
 -16   0  11   -0.90    3.60
 -16   0  11   -0.80    3.20
 -15   0  11   31.30    6.00
 -15   0  11   48.20    8.10
 -14   0  11    5.10    3.30
 -14   0  11    0.10    3.30
 -13   0  11    7.60    4.30
 -13   0  11    6.10    3.90
 -12   0  11    2.20    3.00
 -12   0  11    0.00    2.90
  11   0 -11 1284.87   47.70
 -11   0  11 1271.87   48.20
 -11   0  11 1329.87   49.00
 -10   0  11   -2.80    2.60
 -10   0  11    1.00    2.60
  10   0 -11    0.90    2.70
  -9   0  11  379.76   17.20
   9   0 -11  349.17   16.40
  -9   0  11  370.66   17.40
  -8   0  11    0.40    2.70
   8   0 -11    0.40    2.10
  -7   0  11  362.26   17.30
  -7   0  11  409.36   17.00
  -6   0  11   -1.80    2.20
   6   0 -11    0.80    2.00
  -6   0  11    0.50    2.00
   6   0 -11   -0.30    2.20
  -5   0  11  109.39    7.90
   5   0 -11  115.29    7.20
   5   0 -11  110.69    7.60
  -5   0  11  115.89    7.00
   4   0 -11   -0.30    1.70
   4   0 -11   -1.70    1.40
  -4   0  11    0.80    2.50
  -4   0  11   -2.10    1.40
  -3   0  11  362.16   14.80
  -3   0  11  380.36   16.50
   3   0 -11  385.36   15.30
   3   0 -11  367.36   15.60
  -2   0  11   -1.70    1.30
  -2   0  11   -2.30    2.30
   2   0 -11    0.60    1.50
  -1   0  11  214.48   11.30
  -1   0  11  242.98    9.70
   1   0 -11  213.28    9.90
   1   0 -11  235.28   11.00
   0   0  11    5.10    2.70
   0   0 -11    8.00    2.00
   0   0 -11    1.60    2.00
   0   0  11    4.50    1.60
   1   0  11  347.27   13.00
   1   0  11  331.07   15.10
  -1   0 -11  344.57   13.30
  -1   0 -11  326.87   14.60
   2   0  11   -0.20    1.30
   2   0  11   -0.20    2.10
  -2   0 -11   -0.20    1.40
  -2   0 -11    2.60    2.00
  -3   0 -11  453.45   17.00
   3   0  11  474.95   17.20
   3   0  11  460.95   19.50
   4   0  11   -1.70    1.20
   4   0  11    4.60    2.80
  -4   0 -11    0.90    1.40
   5   0  11   54.89    4.10
   5   0  11   52.69    6.10
   6   0  11   -2.60    2.20
   6   0  11    0.70    2.10
   6   0  11    0.20    1.40
   7   0  11   -1.00    3.20
   7   0  11   -0.90    2.20
   7   0  11   -0.30    1.70
   8   0  11    0.50    2.50
   8   0  11   -1.30    1.90
   8   0  11   -2.10    2.60
   9   0  11   34.00    5.90
   9   0  11   19.90    4.00
   9   0  11   22.70    4.20
  10   0  11    4.10    3.50
  10   0  11    0.50    2.90
  10   0  11    0.00    2.40
  11   0  11   17.80    5.50
  11   0  11   14.90    4.10
  12   0  11   -2.00    2.70
  12   0  11    0.70    3.70
  13   0  11    5.90    4.60
  13   0  11   14.00    4.90
  14   0  11   -4.60    3.90
  14   0  11   -2.10    3.20
 -15  -1  11    2.70    4.10
 -15  -1  11    4.40    4.20
 -15   1  11    0.60    3.90
 -15   1  11    1.30    2.30
  14  -1 -11    0.70    2.20
 -14  -1  11   -3.00    3.30
 -14  -1  11    1.90    3.50
 -14   1  11    3.20    2.40
  13  -1 -11   -2.00    1.80
 -13  -1  11    2.30    3.10
 -13  -1  11    0.30    3.60
 -13   1  11    0.90    2.10
 -13   1  11    2.10    3.30
  12  -1 -11  218.58   10.00
 -12  -1  11  228.18   14.90
 -12  -1  11  222.48   14.00
 -12   1  11  212.88   10.40
 -12   1  11  219.78   13.40
 -11  -1  11   39.20    7.50
 -11  -1  11   39.20    6.60
  11  -1 -11   35.00    4.00
 -11   1  11   42.80    4.80
 -11   1  11   37.50    6.50
 -10  -1  11   42.00    7.20
  10  -1 -11   16.10    2.90
 -10  -1  11   19.40    5.80
 -10   1  11   25.00    3.90
 -10   1  11   18.00    4.40
   9  -1 -11  385.66   15.40
  -9  -1  11  401.56   18.90
  -9  -1  11  439.76   20.70
  -9   1  11  389.76   18.20
  -9   1  11  392.76   16.40
  -8  -1  11  135.09   11.30
   8  -1 -11  126.39    6.50
  -8   1  11  116.39    7.40
  -8   1  11  124.99    8.50
  -7  -1  11   61.49    7.50
  -7  -1  11   56.69    7.80
   7  -1 -11   46.10    3.90
  -7   1  11   57.99    5.80
  -7   1  11   50.99    6.00
   7   1 -11   65.59    7.50
  -6  -1  11  361.06   16.00
   6  -1 -11  354.46   14.20
  -6  -1  11  346.77   17.70
  -6   1  11  363.96   15.10
  -6   1  11  374.26   16.20
   6   1 -11  361.86   15.50
  -5  -1  11  101.99    8.60
  -5  -1  11  105.29    6.90
   5  -1 -11  114.09    6.10
   5   1 -11  110.09    6.60
  -5   1  11   99.29    7.10
  -5   1  11   99.19    6.80
   4  -1 -11   53.99    5.70
  -4  -1  11   67.79    7.60
   4  -1 -11   46.40    4.10
  -4  -1  11   52.49    4.70
   4   1 -11   63.89    7.70
  -4   1  11   60.59    5.40
  -4   1  11   66.59    6.20
   4   1 -11   61.69    4.60
   3  -1 -11   94.79    6.90
  -3  -1  11   97.89    5.90
  -3  -1  11   93.09    7.90
   3  -1 -11   86.79    5.60
  -3   1  11   94.09    6.50
   3   1 -11   89.29    5.40
   3   1 -11   94.89    7.10
  -3   1  11  106.79    6.50
   2  -1 -11  911.71   34.20
  -2  -1  11  894.51   34.00
  -2  -1  11  834.22   30.50
  -2   1  11  867.81   31.70
   2   1 -11  854.81   30.20
  -2   1  11  882.11   32.00
   2   1 -11  874.41   32.90
  -1  -1  11   72.09    4.30
   1  -1 -11   84.29    6.30
  -1  -1  11   84.39    7.50
  -1   1  11   78.49    6.00
  -1   1  11   74.29    6.00
   1   1 -11   72.79    6.20
  -1   1  11   76.79    5.70
   1   1 -11   84.39    5.70
   0  -1 -11  341.37   14.80
   0  -1  11  320.47   15.70
   0   1  11  328.67   14.40
   0   1 -11  325.77   11.60
   0   1 -11  331.97   11.50
   0   1  11  319.77   14.90
   0   1  11  339.47   14.50
   0   1 -11  337.17   16.30
  -1  -1 -11  119.99    7.50
   1  -1  11  117.09    8.60
   1   1  11  129.59    7.40
   1   1  11  115.69    7.50
   1   1  11  113.59    8.00
  -2  -1 -11   91.29    6.60
   2  -1  11   88.89    7.70
   2   1  11   85.59    6.30
   2   1  11   97.99    7.50
   2   1  11   97.39    6.80
   3  -1  11   28.70    5.20
  -3  -1 -11   17.50    3.70
   3   1  11   15.80    3.60
   3   1  11   19.30    3.90
   4   1  11   19.60    3.80
   5  -1  11    8.20    3.60
  -5  -1 -11    8.70    2.90
   5   1  11    6.70    3.10
   5   1  11    9.70    3.20
   6  -1  11   96.09    4.20
   6  -1  11  111.09    8.60
  -6  -1 -11  102.09    7.10
   6  -1  11   99.09    4.30
   6   1  11   93.09    7.70
   6   1  11  103.29    7.40
  -7  -1 -11  124.49    9.30
   7  -1  11  149.29   10.20
   7  -1  11  119.59    6.10
   7   1  11  138.19    9.60
   7   1  11  142.09    8.90
   8  -1  11   15.20    2.70
   8  -1  11   13.40    4.90
   8  -1  11    9.20    2.20
   8   1  11   12.60    4.20
   8   1  11   24.30    4.90
   9  -1  11   -0.60    1.80
   9  -1  11   -2.20    3.20
   9  -1  11    1.20    2.00
   9   1  11    2.50    2.80
   9   1  11   -3.30    2.90
  10  -1  11   33.90    6.50
  10  -1  11   19.90    3.70
  10  -1  11   17.90    3.40
  10   1  11   22.00    5.30
  10   1  11   24.80    5.40
  11  -1  11   10.70    4.80
  11  -1  11    6.30    3.00
  11  -1  11    8.20    3.90
  11   1  11    8.60    4.50
  11   1  11    9.20    4.60
  12  -1  11  108.99    8.40
  12  -1  11  146.49   11.60
  12  -1  11  123.89    8.70
  12   1  11  135.99   11.40
  12   1  11  166.98   11.70
  13  -1  11   57.19    8.30
  13   1  11   56.09    8.60
  13   1  11   40.30    8.00
  14  -1  11    7.60    5.60
  14  -1  11    5.60    4.10
  14   1  11   13.90    5.60
  14   1  11    0.30    4.30
 -14  -2  11    5.60    5.00
  14   2 -11    2.30    4.50
 -14   2  11    2.90    3.70
 -13  -2  11   -0.80    4.30
 -13   2  11   -1.40    2.90
  13   2 -11   -3.70    3.20
 -12  -2  11    1.50    4.40
  12   2 -11    3.40    3.50
 -12   2  11    0.70    2.90
 -11  -2  11   98.89   11.90
  11   2 -11  115.39    9.50
 -11   2  11   99.29    9.10
 -10  -2  11   71.79   10.00
  10   2 -11  113.59   11.10
 -10   2  11   55.69    6.80
  -9  -2  11  243.18   16.70
  -9   2  11  274.07   14.70
   9   2 -11  280.67   14.60
  -8  -2  11   -2.80    3.60
  -8   2  11    0.50    3.00
   8   2 -11   -1.30    2.40
  -7  -2  11   -1.50    3.60
  -7   2  11    0.90    1.40
  -7   2  11    1.80    2.70
   7   2 -11   -1.10    2.10
  -7   2  11   -0.30    1.40
  -6  -2  11   31.10    6.60
  -6   2  11   35.80    6.00
   6   2 -11   33.00    4.90
  -6   2  11   25.90    3.20
   6   2 -11   40.70    5.50
  -5  -2  11   22.40    5.80
  -5   2  11   23.40    5.10
  -5   2  11   13.90    2.90
   5   2 -11   17.50    3.50
  -5   2  11   23.50    3.40
   5   2 -11   18.80    3.60
  -4  -2  11   24.10    5.60
   4   2 -11   23.10    3.60
  -4   2  11   17.40    3.60
  -4   2  11   35.30    4.00
   4   2 -11   36.90    4.50
  -4   2  11   22.80    3.60
  -3  -2  11   50.79    8.10
   3   2 -11   45.40    4.20
  -3   2  11   52.09    4.60
  -3   2  11   49.10    6.00
  -3   2  11   50.89    5.50
   3   2 -11   58.39    4.40
  -2  -2  11   37.50    6.50
  -2   2  11   58.69   10.20
   2   2 -11   39.20    3.50
  -2   2  11   39.20    5.20
  -2   2  11   45.60    4.70
   2   2 -11   37.80    3.40
  -1  -2  11  322.97   16.90
  -1   2  11  323.57   13.90
  -1   2  11  320.87   18.20
   1   2 -11  324.47   12.10
   0  -2  11   75.29    8.60
   0   2  11   83.79    6.20
   0   2 -11   82.19    3.60
   0   2 -11   82.79    3.80
   0   2  11   80.89    8.00
   0   2  11  100.79    7.90
   1  -2  11   16.70    4.90
   1   2  11   12.60    3.50
   1   2  11   21.20    5.00
   1   2  11    8.20    3.60
   2  -2  11   43.00    6.80
   2   2  11   51.99    5.80
   3  -2  11    3.60    3.90
   3   2  11   -1.10    2.50
   3   2  11    3.00    2.80
   4  -2  11   32.50    6.40
   4   2  11   28.10    5.30
   4   2  11   38.00    5.80
   5  -2  11    3.10    3.70
   5   2  11    2.90    3.40
   5   2  11   11.80    3.90
  -6  -2 -11   28.00    5.80
   6  -2  11   28.40    6.10
   6   2  11   26.80    5.60
  -7  -2 -11   -1.60    3.20
   7  -2  11    1.20    4.10
   7   2  11   -1.50    3.10
  -8  -2 -11    7.80    4.60
   8  -2  11   23.60    2.00
   8  -2  11   20.60    5.60
   8  -2  11   24.70    2.00
   8   2  11   17.90    4.70
   9  -2  11    1.80    3.90
  -9  -2 -11    2.90    4.20
   9  -2  11   -1.40    1.40
   9   2  11    0.20    3.30
 -10  -2 -11   13.40    6.00
  10  -2  11   14.30    2.90
  10  -2  11   11.90    5.00
  10  -2  11    6.60    2.30
  10   2  11    8.60    4.30
  11  -2  11    1.40    4.30
  11  -2  11    8.20    2.80
  11  -2  11    4.30    2.60
  11   2  11    3.50    4.00
  11   2  11    5.50    5.40
  12  -2  11   -3.60    4.40
  12  -2  11    1.80    2.90
  12   2  11   -0.20    4.50
  12   2  11    8.10    5.30
 -12  -3  11   28.90    8.10
  12   3 -11   39.80    8.30
 -12   3  11   36.90    7.50
 -11  -3  11    4.10    5.90
 -11   3  11   -4.00    3.40
  11   3 -11    1.10    4.10
 -10  -3  11   98.19   13.20
  10   3 -11  117.59   12.20
 -10   3  11   78.09   10.10
  -9  -3  11   27.80    7.50
   9   3 -11   37.50    6.40
  -9   3  11   43.90    7.70
  -8  -3  11   25.60    7.70
   8   3 -11    9.40    4.10
  -8   3  11   11.00    3.90
  -7  -3  11   10.00    6.00
  -7   3  11   12.40    3.90
   7   3 -11   24.00    5.40
  -6  -3  11   10.20    5.30
   6   3 -11   12.40    3.90
  -6   3  11    4.70    2.90
  -5  -3  11    8.50    5.30
  -5   3  11    8.10    2.50
  -5   3  11    5.10    3.70
   5   3 -11   11.90    3.50
  -5   3  11   10.90    2.70
  -4  -3  11  247.98   16.40
   4   3 -11  200.98   11.30
  -4   3  11  226.68   11.10
   4   3 -11  235.48   11.80
  -4   3  11  218.78    9.90
  -4   3  11  226.78   13.70
  -3  -3  11   90.29   10.90
   3   3 -11   72.09    5.90
   3   3 -11   60.29    7.80
  -3   3  11   72.79    7.30
  -3   3  11   72.69    5.50
  -2  -3  11   15.90    5.80
  -2   3  11   22.40    5.70
   2   3 -11   16.50    3.50
  -2   3  11   16.20    3.50
  -2   3  11   11.90    5.40
   2   3 -11   17.00    3.50
  -1  -3  11   48.80    8.20
   1   3 -11   72.19    5.30
  -1   3  11   63.29    8.30
  -1   3  11   69.49    6.00
  -1   3  11   66.99    7.90
   1   3 -11   68.39    5.20
   0  -3  11   33.50    7.30
   0   3 -11   34.80    3.70
   0   3 -11   36.50    3.90
   0   3  11   44.10    5.70
   0   3  11   29.70    5.30
   1  -3  11  131.79   11.60
   1   3  11  120.59    9.80
  -1   3 -11  107.49    5.70
   2  -3  11   19.80    5.80
  -2  -3 -11   27.70    5.90
   2   3  11   24.10    5.90
  -2   3 -11   25.00    2.30
   3  -3  11   33.50    7.20
  -3  -3 -11   15.30    5.00
   3   3  11   20.10    5.60
   4  -3  11   -0.40    4.70
  -4  -3 -11   -2.90    3.40
   4   3  11   -1.70    2.40
  -5  -3 -11    2.50    4.40
   5  -3  11   -2.90    4.20
   5   3  11    0.50    2.80
   6  -3  11   49.00    9.00
  -6  -3 -11   51.89    8.50
   6   3  11   56.99    9.00
  -7  -3 -11   -2.60    4.10
   7  -3  11    3.10    4.90
   7   3  11    0.00    3.50
  -8  -3 -11    1.00    5.00
   8  -3  11    1.20    4.80
   8   3  11    4.10    3.70
   9  -3  11    1.30    1.30
  -9  -3 -11    2.70    5.40
   9  -3  11   -4.20    4.40
   9   3  11   -2.80    3.10
 -10  -3 -11    6.50    5.90
  10  -3  11    4.30    5.40
  10   3  11   -0.10    4.10
  -8  -4  11    0.00    5.50
   8   4 -11   -0.40    3.30
  -8   4  11    4.30    4.90
  -7  -4  11    3.90    5.60
  -7   4  11    4.20    4.70
   7   4 -11   -2.60    3.10
  -6  -4  11    7.80    6.10
   6   4 -11    8.30    4.00
  -6   4  11    7.30    3.60
  -5  -4  11   -3.60    6.20
  -5   4  11   -0.80    1.80
  -5   4  11   -2.10    2.90
   5   4 -11    0.20    3.10
  -4  -4  11    1.50    5.40
  -4   4  11    4.20    2.40
  -4   4  11    5.10    3.40
   4   4 -11    9.40    3.90
  -3  -4  11    2.20    5.10
  -3   4  11   -1.40    3.70
  -3   4  11    3.60    5.00
  -3   4  11   -0.50    2.40
  -2  -4  11   64.69   10.60
   2   4 -11   57.59    6.70
  -2   4  11   72.49    6.30
  -2   4  11   63.99    9.00
  -1  -4  11    8.20    5.70
   1   4 -11    5.10    3.70
   1   4 -11   15.60    3.70
  -1   4  11   10.50    4.50
   0  -4  11    0.80    5.40
   0   4 -11    6.40    2.90
   0   4  11    8.20    5.30
   0   4 -11   -0.30    3.40
  -1  -4 -11   -1.70    3.80
   1  -4  11    4.30    5.60
  -1   4 -11    2.30    3.00
  -1   4 -11   -0.10    2.20
   1   4  11    2.30    3.10
  -2  -4 -11   19.00    5.90
   2  -4  11   11.80    6.10
  -2   4 -11   13.00    3.00
  -2   4 -11   10.70    3.60
   2   4  11    6.20    4.50
   3  -4  11    8.40    5.90
  -3  -4 -11   13.90    5.80
   3   4  11    7.30    8.40
  -3   4 -11   10.80    2.70
  -4  -4 -11   -1.50    4.90
   4  -4  11    6.00    5.60
   4   4  11   -1.20    4.40
  -4   4 -11    1.20    1.90
  -5  -4 -11   93.49   11.70
   5  -4  11  100.59   12.60
  -5   4 -11   98.99    7.10
   5   4  11  137.19   15.50
   6  -4  11    3.10    6.00
   6   4  11    3.60    4.00
  -6   4 -11    3.40    2.30
 -15   0  12    0.40    3.10
 -15   0  12    1.40    3.30
 -14   0  12  133.19   11.30
 -14   0  12  130.19   10.10
 -13   0  12   -0.70    3.00
 -12   0  12   13.50    4.60
 -12   0  12   20.20    5.20
 -11   0  12   -0.40    2.70
 -11   0  12    2.80    3.40
 -10   0  12   74.59    8.50
  10   0 -12   67.69    7.60
 -10   0  12   51.89    6.90
   9   0 -12   -1.80    2.10
  -9   0  12    1.00    2.30
  -9   0  12    5.40    3.40
  -8   0  12   12.00    3.70
   8   0 -12   10.30    3.30
  -8   0  12    8.30    3.80
  -7   0  12    1.90    2.10
   7   0 -12    1.20    2.10
  -7   0  12    3.60    3.20
  -6   0  12   -2.30    2.60
   6   0 -12   -0.80    1.80
   6   0 -12    0.80    1.90
  -6   0  12    1.30    2.10
  -5   0  12    0.40    2.80
  -5   0  12   -0.80    1.90
   5   0 -12   -1.30    1.60
   5   0 -12   -0.80    2.00
  -4   0  12  314.67   13.20
   4   0 -12  310.27   13.80
  -4   0  12  284.97   14.40
   4   0 -12  308.37   13.60
   3   0 -12    3.50    2.00
  -3   0  12    0.70    1.60
  -3   0  12    0.20    2.60
   3   0 -12   -0.20    1.60
  -2   0  12   51.39    6.10
   2   0 -12   37.30    4.60
   2   0 -12   48.60    4.60
  -2   0  12   51.19    4.10
  -1   0  12   -1.00    2.40
   1   0 -12   -0.40    1.50
   1   0 -12   -0.40    1.50
  -1   0  12   -0.10    1.50
   0   0 -12   67.19    4.60
   0   0  12   69.89    4.30
   0   0  12   73.99    7.60
   0   0 -12   55.39    6.00
   1   0  12    3.80    2.70
   1   0  12   -0.40    1.40
  -1   0 -12    1.50    1.50
  -2   0 -12   12.00    2.40
   2   0  12   13.60    3.50
   2   0  12    7.60    1.80
  -3   0 -12    0.00    1.40
   3   0  12   -0.10    2.80
   3   0  12    0.00    1.40
   4   0  12   -1.50    2.30
   4   0  12    0.60    1.40
  -4   0 -12    1.50    1.50
   5   0  12    2.50    3.20
   5   0  12   -1.20    1.40
   6   0  12   17.20    3.20
   6   0  12   28.20    3.60
   6   0  12   17.60    4.30
   7   0  12   -2.60    2.20
   7   0  12    1.70    3.00
   7   0  12   -1.60    1.70
   8   0  12  117.99    7.30
   8   0  12  113.49    7.40
   8   0  12  110.79    9.20
   9   0  12   -1.90    3.50
   9   0  12    0.60    2.20
   9   0  12    0.10    2.70
  10   0  12    0.50    3.80
  10   0  12   -2.20    2.90
  10   0  12   -0.40    2.30
  11   0  12   -0.40    2.70
  11   0  12   -4.10    3.20
  12   0  12   39.70    7.10
  12   0  12   58.79    7.30
  13   0  12    2.60    3.50
  13   0  12   -2.70    4.10
 -15  -1  12   25.90    6.80
 -15  -1  12   36.10    7.80
 -15   1  12   23.90    6.20
 -15   1  12   42.30    4.90
  14  -1 -12    8.20    2.80
 -14  -1  12    1.90    4.20
 -14  -1  12    5.80    4.40
 -14   1  12    9.60    3.00
 -14   1  12   12.20    5.10
 -13  -1  12  118.19   12.50
  13  -1 -12  126.89    7.20
 -13  -1  12  150.88   11.70
 -13   1  12  138.69   10.70
 -13   1  12  124.29    7.70
 -12  -1  12    5.90    4.30
  12  -1 -12   14.50    3.00
 -12  -1  12   13.90    5.80
 -12   1  12   10.70    4.40
 -12   1  12   11.00    3.30
  11  -1 -12   54.09    4.70
 -11  -1  12   63.59    8.10
 -11  -1  12   86.49   10.50
 -11   1  12   74.79    6.70
 -11   1  12   88.09    9.80
 -10  -1  12   33.00    6.80
  10  -1 -12   30.10    3.80
 -10  -1  12   36.90    7.40
 -10   1  12   41.60    5.10
 -10   1  12   23.60    4.60
   9  -1 -12 1075.99   37.00
  -9  -1  12 1039.00   42.00
  -9  -1  12 1082.29   40.60
  -9   1  12 1037.60   39.90
  -9   1  12 1018.60   37.90
  -8  -1  12  173.78   12.50
   8  -1 -12  165.68    8.10
  -8  -1  12  164.58   10.70
  -8   1  12  157.58    9.10
  -8   1  12  164.38   10.10
  -7  -1  12   66.09    9.40
  -7  -1  12   66.69    7.80
   7  -1 -12   56.69    4.60
  -7   1  12   77.99    7.90
  -7   1  12   77.49    7.00
  -6  -1  12    5.60    2.60
   6  -1 -12    0.90    1.70
  -6  -1  12    1.20    3.50
   6   1 -12    1.30    1.90
  -6   1  12    1.60    2.70
  -5  -1  12   -0.70    2.00
   5  -1 -12    3.60    1.80
  -5  -1  12    5.00    3.30
  -5   1  12    6.10    3.00
   5   1 -12   -0.10    1.80
  -5   1  12    3.30    2.50
  -4  -1  12  178.18   11.50
   4  -1 -12  179.18    8.80
   4  -1 -12  179.38   10.40
  -4  -1  12  169.78    9.10
  -4   1  12  177.88    9.70
   4   1 -12  185.88    8.90
  -4   1  12  188.18    9.70
   3  -1 -12  269.87   13.20
  -3  -1  12  271.57   11.70
   3  -1 -12  258.47   11.80
  -3  -1  12  253.47   14.10
  -3   1  12  271.77   12.50
  -3   1  12  268.27   12.50
   3   1 -12  278.47   11.30
  -2  -1  12  125.59    9.20
   2  -1 -12  112.09    7.60
  -2  -1  12  106.09    5.80
   2   1 -12   97.69    5.50
  -2   1  12  103.89    6.90
  -2   1  12  101.49    6.90
  -1  -1  12  193.68    8.50
   1  -1 -12  179.88   10.10
  -1  -1  12  193.48   11.60
  -1   1  12  182.38    9.70
  -1   1  12  180.28   10.00
   1   1 -12  177.28    7.60
  -1   1  12  180.58    9.50
   0  -1  12   74.39    7.90
   0   1  12   65.89    5.50
   0   1  12   65.79    5.70
   0   1 -12   59.49    3.00
   0   1  12   55.69    6.30
   1  -1  12  356.76   17.10
  -1  -1 -12  322.07   16.60
   1   1  12  355.56   16.30
   1   1  12  331.67   15.30
   1   1  12  358.96   15.20
  -2  -1 -12   43.70    6.60
   2  -1  12   40.30    9.10
   2   1  12   45.40    5.30
   2   1  12   39.90    5.50
   3  -1  12    3.40    2.90
   3   1  12    3.00    2.10
  -4  -1 -12   35.30    4.70
   4  -1  12   32.50    5.50
   4   1  12   34.10    5.00
   4   1  12   38.10    5.50
  -5  -1 -12  191.68   10.30
   5  -1  12  205.78   12.10
   5   1  12  179.58   11.00
   5   1  12  193.48   10.60
   6  -1  12  363.96   17.30
  -6  -1 -12  328.97   15.10
   6   1  12  344.27   16.60
   6   1  12  321.67   15.50
   7  -1  12    2.00    1.20
   7  -1  12    0.70    3.30
   7  -1  12    1.50    1.20
   7   1  12    1.30    2.50
   7   1  12    2.60    3.40
   8  -1  12   48.70    3.80
   8  -1  12   59.39    4.10
   8  -1  12   66.99    8.90
   8   1  12   67.39    8.30
   8   1  12   51.69    7.40
   9  -1  12    2.10    2.10
   9  -1  12    0.70    3.60
   9  -1  12    0.60    1.80
   9   1  12   -0.90    3.10
   9   1  12    7.10    3.70
  10  -1  12   77.19    9.60
  10  -1  12   64.49    5.40
  10  -1  12   41.90    4.60
  10   1  12   67.79    8.00
  10   1  12   69.49    9.30
  11  -1  12   23.10    6.00
  11  -1  12   17.90    3.80
  11  -1  12   25.60    4.30
  11   1  12   12.20    5.10
  11   1  12   26.80    5.80
  12  -1  12    5.40    3.50
  12  -1  12    6.00    5.10
  12  -1  12    7.70    3.50
  12   1  12   14.40    5.50
  12   1  12    4.00    4.50
  13  -1  12   14.10    4.30
  13   1  12   24.50    6.60
  13   1  12   11.80    5.20
 -14   2  12   19.90    5.70
  14   2 -12   21.20    7.00
 -13  -2  12    1.80    4.60
  13   2 -12    5.60    4.60
 -13   2  12   -1.20    3.40
 -12  -2  12    0.20    4.30
  12   2 -12    3.20    3.50
 -12   2  12   -2.50    2.80
 -11  -2  12   -0.50    4.10
 -11   2  12    3.20    3.20
  11   2 -12    2.70    3.20
 -10  -2  12   -0.20    4.20
  10   2 -12   13.00    4.70
 -10   2  12    9.80    4.10
  -9  -2  12  117.09   12.70
   9   2 -12  126.29    9.50
  -9   2  12  124.89    9.60
  -8  -2  12   48.70    8.80
   8   2 -12   59.29    7.50
  -8   2  12   42.30    7.00
  -7  -2  12  173.08   13.60
  -7   2  12  163.88   10.90
  -7   2  12  176.58    8.30
   7   2 -12  182.08   10.40
  -6  -2  12  122.29   12.20
  -6   2  12   99.39    8.30
   6   2 -12  111.59    7.30
  -6   2  12   95.89    6.00
   6   2 -12   94.79    7.10
  -6   2  12   91.29    6.10
  -5  -2  12    6.70    4.90
  -5   2  12   -0.90    2.50
   5   2 -12    2.00    2.20
   5   2 -12    1.00    2.00
  -5   2  12   -3.40    2.00
  -5   2  12   -0.20    2.10
  -4  -2  12    3.10    3.40
   4   2 -12    3.80    2.20
  -4   2  12    3.80    2.80
   4   2 -12    4.90    2.40
  -4   2  12    2.50    2.40
  -4   2  12    4.20    2.60
  -3  -2  12   20.60    5.70
  -3   2  12   37.90    4.70
   3   2 -12   22.30    3.30
  -3   2  12   22.30    4.00
   3   2 -12   32.00    3.80
  -3   2  12   30.50    5.10
  -2  -2  12  251.27   15.00
  -2   2  12  241.08   11.50
  -2   2  12  245.28   13.10
   2   2 -12  240.78   10.00
   2   2 -12  248.58   10.30
  -1  -2  12  394.46   20.00
   1   2 -12  397.16   14.80
  -1   2  12  423.46   17.20
  -1   2  12  430.36   18.90
  -1   2  12  400.76   18.40
   0  -2  12    1.30    3.70
   0   2  12   -1.30    2.20
   0   2  12    2.50    2.50
   0   2  12   -1.70    2.90
   1  -2  12  271.37   15.10
   1   2  12  226.58   12.90
   1   2  12  239.68   12.20
   2  -2  12    8.60    4.80
   2   2  12    5.40    2.80
   3  -2  12    3.30    4.00
   3   2  12   -3.60    1.80
   3   2  12   -3.10    2.40
   4  -2  12   30.00    6.30
   4   2  12   22.00    4.30
   4   2  12   31.80    5.40
   5  -2  12   27.40    6.30
   5   2  12   55.99    7.90
   5   2  12   45.50    6.80
   6  -2  12   49.99    7.70
   6   2  12   72.39    8.50
   6   2  12   71.59    8.60
   7  -2  12   35.00    7.20
   7   2  12   43.60    7.30
   7   2  12   39.10    6.70
   8  -2  12    5.10    4.70
   8   2  12   21.00    5.70
   8   2  12   25.60    5.60
   9  -2  12    0.60    4.60
   9   2  12    3.20    4.10
   9   2  12   -2.20    3.00
  10  -2  12   39.90    4.80
  10  -2  12   38.10    7.20
  10   2  12   27.80    7.70
  10   2  12   38.40    6.90
  11  -2  12    0.20    2.10
  11  -2  12   -0.50    2.00
  11  -2  12    4.00    4.80
  11   2  12    0.40    4.00
  11   2  12    5.50    4.60
  12  -2  12    2.80    4.90
  12  -2  12    1.00    2.50
  12   2  12    4.50    5.20
  12   2  12   -1.60    4.40
 -12  -3  12   -4.30    5.20
 -12   3  12   -1.90    3.60
 -11  -3  12    0.30    5.10
  11   3 -12    2.80    3.60
 -11   3  12   -0.30    4.00
 -10  -3  12   -4.50    5.40
  10   3 -12    6.50    4.10
 -10   3  12   -1.30    3.60
  -9  -3  12   35.80    8.70
   9   3 -12   33.50    7.00
  -9   3  12   24.00    5.70
  -8  -3  12    2.70    5.00
  -8   3  12    0.70    3.00
   8   3 -12    1.30    3.00
  -7  -3  12  150.88   16.00
  -7   3  12  124.39   10.30
   7   3 -12  118.59    9.30
  -6  -3  12   87.99   11.80
  -6   3  12   90.19   10.60
   6   3 -12   82.09    7.40
  -5  -3  12   29.50    7.60
  -5   3  12   26.90    3.50
   5   3 -12   39.60    5.70
  -5   3  12   37.70    4.30
  -5   3  12   25.70    6.20
  -4  -3  12   46.40    9.00
  -4   3  12   39.10    4.40
   4   3 -12   44.10    5.50
  -4   3  12   60.89    8.70
   4   3 -12   32.90    4.90
  -4   3  12   38.10    5.20
  -3  -3  12   19.20    6.20
  -3   3  12   28.70    6.00
  -3   3  12   20.30    4.70
   3   3 -12   28.70    4.50
   3   3 -12   21.10    4.30
  -3   3  12   23.70    3.90
  -2  -3  12   13.90    6.20
  -2   3  12   -1.70    2.60
   2   3 -12    5.20    2.50
   2   3 -12   -0.10    2.30
  -2   3  12   -0.80    3.60
  -2   3  12    5.00    2.80
  -1  -3  12    9.00    4.80
  -1   3  12   -0.30    2.80
   1   3 -12    2.00    1.80
  -1   3  12   -0.10    2.70
   1   3 -12    2.50    2.00
   0  -3  12   56.69    9.00
   0   3  12   76.69    9.80
   0   3  12   67.19    6.70
   0   3 -12   48.80    3.70
   0   3 -12   41.20    3.60
   1  -3  12    6.40    5.50
  -1   3 -12   10.10    1.50
   1   3  12   15.90    4.20
  -1   3 -12   11.00    1.50
   1   3  12    5.20    3.10
   2  -3  12   18.80    6.00
   2   3  12   12.90    4.80
   2   3  12   19.40    4.80
   3  -3  12  161.38   12.90
   3   3  12  155.48   11.50
   3   3  12  130.89    9.80
  -4  -3 -12   25.70    6.50
   4  -3  12   30.40    7.20
   4   3  12   36.50    7.40
   5  -3  12   13.20    5.90
  -5  -3 -12    0.30    4.30
   5   3  12    5.80    4.40
   6  -3  12   -6.60    4.10
  -6  -3 -12    1.30    4.50
   6   3  12   -3.30    2.60
   7  -3  12    5.00    5.00
  -7  -3 -12    0.80    4.60
   7   3  12   -1.10    3.20
   8  -3  12   -2.70    4.50
   8   3  12   -2.60    3.30
   9  -3  12    3.70    5.60
  -9  -3 -12    1.90    4.80
 -10  -3 -12   -0.40    5.40
  10  -3  12    7.40    6.20
  10   3  12    1.10    4.90
  -8  -4  12   -0.10    6.10
   8   4 -12    4.60    4.10
  -8   4  12    3.50    4.90
  -7  -4  12   15.20    7.40
   7   4 -12   16.50    5.00
  -7   4  12    9.00    5.60
  -6  -4  12   -2.80    5.20
  -6   4  12   -1.30    3.70
   6   4 -12    1.40    3.20
  -5  -4  12    4.30    6.30
  -5   4  12   -1.30    3.70
   5   4 -12    0.50    3.30
  -4  -4  12   33.10    8.60
  -4   4  12   51.39    5.90
   4   4 -12   41.00    6.30
  -4   4  12   62.09    9.70
  -4   4  12   46.70    4.70
  -3   4  12   10.40    5.00
  -3   4  12    2.10    4.30
   3   4 -12    4.90    3.40
  -3   4  12    4.60    2.80
  -2  -4  12    9.20    6.00
   2   4 -12    9.60    3.50
  -2   4  12    5.50    3.40
   2   4 -12   10.20    4.40
  -2   4  12   10.50    6.20
  -1  -4  12   13.60    6.80
  -1   4  12   20.50    9.90
  -1   4  12   20.70    4.50
   1   4 -12   15.30    3.70
   1   4 -12   12.20    4.10
   0  -4  12   -0.10    5.70
   0   4 -12    1.40    2.40
   0   4 -12    1.30    3.10
   0   4  12    1.40    3.10
   0   4  12    1.50    4.30
   1  -4  12   17.20    7.00
  -1   4 -12    8.20    2.50
   1   4  12    6.40    4.20
  -1   4 -12    6.40    3.00
   1   4  12   14.40    4.80
  -2  -4 -12   34.50    7.00
   2  -4  12   45.50    9.90
  -2   4 -12   26.40    3.50
  -2   4 -12   23.50    3.00
   2   4  12   12.30    4.30
  -3  -4 -12   50.69    8.80
   3  -4  12   52.49   10.10
  -3   4 -12   36.30    4.60
   3   4  12   48.90    9.20
  -3   4 -12   46.20    3.60
   4  -4  12   -0.30    5.40
  -4  -4 -12    2.10    5.10
   4   4  12    1.60    3.40
  -5  -4 -12    5.00    5.80
   5  -4  12   -2.40    5.00
   5   4  12    5.80    3.70
 -15   0  13   -2.10    3.30
 -15   0  13    1.60    3.70
 -14   0  13    3.00    5.00
 -14   0  13    0.70    3.60
 -13   0  13   17.90    5.00
 -13   0  13   22.20    5.60
 -12   0  13   -1.90    2.30
 -11   0  13   32.20    6.20
 -11   0  13   15.70    4.90
 -10   0  13   -3.80    2.30
 -10   0  13    2.50    3.20
  -9   0  13  126.39    9.60
  -9   0  13   99.69    8.20
  -8   0  13   -2.60    2.80
  -8   0  13   -2.10    2.20
   8   0 -13   -0.40    2.20
  -7   0  13   18.90    4.80
   7   0 -13   15.90    3.70
  -7   0  13   27.20    5.90
  -6   0  13    1.20    3.20
   6   0 -13   -0.10    2.00
  -6   0  13   -0.80    2.00
   5   0 -13   20.80    3.70
  -5   0  13   15.60    4.50
   5   0 -13   12.10    3.30
  -5   0  13   14.40    3.30
  -4   0  13    2.00    2.10
   4   0 -13    0.10    1.80
  -4   0  13   -1.00    2.90
   3   0 -13   12.90    2.90
  -3   0  13   10.80    2.50
  -3   0  13   12.00    3.90
   3   0 -13    6.80    2.50
  -2   0  13   -0.60    1.60
   2   0 -13    0.70    1.80
   2   0 -13    0.50    1.90
  -2   0  13   -0.20    2.50
   1   0 -13  108.89    6.50
  -1   0  13  108.69    8.20
  -1   0  13  107.49    6.00
   0   0 -13    5.00    2.10
   0   0  13    8.10    3.20
   0   0  13    3.60    1.70
   1   0  13   74.89    7.50
   1   0  13   78.29    4.70
  -1   0 -13   80.19    5.10
   2   0  13   -1.80    1.20
   2   0  13    0.80    3.20
  -2   0 -13    1.90    1.70
   3   0  13  328.57   12.90
   3   0  13  336.47   16.00
  -3   0 -13  318.17   12.80
  -4   0 -13   -1.20    1.40
   4   0  13    1.70    1.60
   4   0  13    4.00    3.00
   5   0  13   40.30    5.70
   5   0  13   41.90    4.30
   6   0  13    0.40    2.20
   6   0  13   -0.50    2.80
   6   0  13   -1.60    1.50
   7   0  13    0.70    2.00
   7   0  13   -0.70    2.40
   7   0  13    1.70    3.40
   8   0  13    0.10    2.70
   8   0  13   -0.90    3.40
   8   0  13   -0.60    1.90
   9   0  13    2.00    3.40
   9   0  13    2.20    3.00
   9   0  13    1.40    2.50
  10   0  13   -4.10    2.10
  10   0  13    3.00    3.30
  10   0  13    5.40    4.00
  11   0  13   18.40    5.80
  11   0  13   16.00    4.40
  12   0  13    2.50    4.60
  12   0  13   -2.50    2.80
  13   0  13   33.80    7.90
  13   0  13   31.40    6.30
 -15  -1  13   -1.00    3.60
 -15  -1  13    3.80    4.70
 -15   1  13    5.40    2.90
 -15   1  13    6.80    4.50
 -14  -1  13    2.40    4.20
 -14  -1  13    4.60    4.00
 -14   1  13    4.20    2.60
 -14   1  13    8.00    4.60
 -13  -1  13   10.10    5.20
 -13  -1  13    0.50    3.20
  13  -1 -13    1.90    2.20
 -13   1  13   -1.30    2.10
 -13   1  13    3.00    3.60
  12  -1 -13    3.40    2.10
 -12  -1  13    7.40    4.30
 -12  -1  13   -1.20    3.90
 -12   1  13   -3.40    2.50
 -12   1  13    0.70    2.50
  11  -1 -13    9.80    2.60
 -11  -1  13   12.80    4.50
 -11  -1  13   16.90    5.90
 -11   1  13   10.30    4.40
 -11   1  13   15.00    3.70
 -10  -1  13   15.20    5.70
 -10  -1  13    6.60    3.80
  10  -1 -13   11.50    2.90
 -10   1  13   10.70    3.30
 -10   1  13    9.20    3.60
  -9  -1  13   46.70    7.00
   9  -1 -13   41.60    4.60
  -9  -1  13   51.79    8.30
  -9   1  13   46.20    5.70
  -9   1  13   50.09    7.20
  -8  -1  13    0.80    3.70
  -8  -1  13   -2.20    2.40
   8  -1 -13    0.40    1.70
  -8   1  13   -1.20    2.40
  -8   1  13   -0.70    2.70
  -7  -1  13  456.65   22.50
   7  -1 -13  473.35   18.60
  -7  -1  13  468.45   20.50
  -7   1  13  489.05   19.80
  -7   1  13  483.45   20.50
  -6  -1  13   60.99    8.00
  -6  -1  13   53.59    6.70
   6  -1 -13   54.19    5.40
  -6   1  13   65.79    7.10
  -6   1  13   63.39    6.70
   6   1 -13   59.99    6.40
   5  -1 -13    2.70    2.00
  -5  -1  13    7.00    4.50
  -5  -1  13    7.70    3.10
  -5   1  13    6.70    3.50
  -5   1  13    5.50    3.00
  -4  -1  13   28.20    5.70
  -4  -1  13   13.00    3.30
  -4   1  13   19.90    4.00
   4   1 -13   19.20    3.30
  -4   1  13   26.20    4.30
   3  -1 -13    7.10    2.80
  -3  -1  13    1.30    3.50
   3  -1 -13    1.60    1.70
  -3  -1  13    5.30    2.40
   3   1 -13    3.20    1.80
  -3   1  13    6.70    3.10
  -3   1  13    8.20    2.80
  -2  -1  13  163.28   12.40
   2  -1 -13  187.28   10.50
  -2  -1  13  184.88    8.50
  -2   1  13  187.38   10.00
   2   1 -13  177.88    8.20
  -2   1  13  172.68   10.00
  -2   1  13  203.98   10.00
   1  -1 -13   85.79    6.90
  -1  -1  13  102.79    8.80
  -1   1  13   91.89    7.30
  -1   1  13   94.89    6.70
   1   1 -13   91.69    4.90
  -1   1  13  104.89    7.30
   0  -1  13   -5.50    2.50
   0  -1 -13    0.10    2.00
   0   1  13   -0.70    2.00
   0   1 -13    1.10    0.90
   0   1  13   -1.70    2.30
  -1  -1 -13  149.19    9.10
   1  -1  13  147.09   10.70
   1   1  13  168.88    9.70
   1   1  13  161.28    9.00
   2  -1  13   10.60    4.20
  -2  -1 -13    4.70    2.70
   2   1  13    4.90    2.40
   2   1  13    6.10    3.40
  -3  -1 -13    1.30    2.40
   3  -1  13    1.20    2.90
   3   1  13    5.70    2.90
   3   1  13    3.50    2.90
  -4  -1 -13    4.80    3.00
   4  -1  13    3.30    3.40
   4   1  13    7.80    3.80
   4   1  13    5.80    2.90
   5  -1  13    4.50    3.60
  -5  -1 -13    2.60    2.80
   5   1  13    4.20    3.10
   5   1  13   10.40    3.50
   6  -1  13   40.90    6.70
  -6  -1 -13   35.80    5.10
   6   1  13   36.10    6.20
   6   1  13   45.00    5.80
   7  -1  13    3.10    3.70
   7   1  13   -0.40    2.30
   7   1  13   -2.20    2.90
   8  -1  13   45.30    7.60
   8  -1  13   40.10    3.20
   8   1  13   37.10    6.20
   9  -1  13   34.40    3.80
   9  -1  13   36.30    7.30
   9  -1  13   29.00    3.30
   9   1  13   42.30    6.20
   9   1  13   38.70    6.60
  10  -1  13    3.40    2.50
  10  -1  13    7.60    4.60
  10  -1  13    5.40    2.50
  10   1  13    4.60    3.50
  10   1  13    7.80    4.50
  11  -1  13   -0.50    2.60
  11  -1  13    4.10    2.70
  11  -1  13    1.90    4.50
  11   1  13    4.60    7.70
  11   1  13    1.90    3.50
  12  -1  13    7.50    3.40
  12   1  13    9.00    5.40
  12   1  13    4.70    4.40
 -13  -2  13   28.20    8.30
  13   2 -13   30.10    6.90
 -13   2  13   18.30    5.80
 -12  -2  13    8.00    5.50
 -12   2  13    3.90    3.30
  12   2 -13    8.60    4.20
 -11  -2  13   58.59   10.20
  11   2 -13   59.89    8.50
 -11   2  13   73.89    9.70
 -10  -2  13   13.20    6.50
  10   2 -13   18.40    4.60
 -10   2  13   25.20    5.60
  -9  -2  13   -3.20    4.20
  -9   2  13    5.90    3.80
   9   2 -13    0.70    3.00
  -8  -2  13  349.87   20.80
  -8   2  13  375.06   18.20
   8   2 -13  365.66   17.50
  -8   2  13  368.96   14.20
  -7  -2  13  105.79   11.70
   7   2 -13  120.89    8.40
  -7   2  13  103.69    8.90
  -7   2  13  106.19    6.30
  -7   2  13  113.49    6.50
  -6  -2  13  149.29   12.20
   6   2 -13  129.69    9.40
  -6   2  13  132.39    7.70
  -6   2  13  127.29    7.50
  -6   2  13  138.29    9.70
   6   2 -13  132.59    8.40
  -5  -2  13   58.69    9.40
  -5   2  13   60.79    6.00
  -5   2  13   41.50    6.00
   5   2 -13   61.49    6.20
   5   2 -13   44.20    5.30
  -5   2  13   55.59    5.60
  -4  -2  13    4.60    4.30
   4   2 -13   -1.20    1.60
  -4   2  13   -0.30    2.40
   4   2 -13    3.30    2.20
  -4   2  13    0.60    3.10
  -4   2  13    0.70    2.50
  -3  -2  13    0.30    4.20
   3   2 -13    2.90    2.00
  -3   2  13    1.60    3.00
  -3   2  13    3.40    2.50
   3   2 -13    0.60    1.80
  -2  -2  13  182.78   13.00
  -2   2  13  170.68   10.40
   2   2 -13  170.18    7.80
  -2   2  13  181.98   11.00
   2   2 -13  167.28    7.70
  -2   2  13  174.98    9.60
  -1  -2  13  179.08   12.80
  -1   2  13  151.68   10.50
   1   2 -13  169.68    6.80
  -1   2  13  172.28   10.80
  -1   2  13  187.68   10.00
   1   2 -13  175.68    7.00
   0  -2  13   20.40    5.50
   0   2  13   15.30    3.90
   0   2  13   19.00    4.20
   1  -2  13    1.00    4.50
   1   2  13    0.30    2.30
   2  -2  13   90.29   10.10
   2   2  13  101.19    8.10
   2   2  13  121.89    8.90
   3  -2  13   68.89    9.40
   3   2  13   65.79    7.40
   3   2  13   70.69    8.30
   4  -2  13   85.99    9.80
   4   2  13   72.69    7.90
   4   2  13  107.79    8.60
   5  -2  13   79.09   10.20
   5   2  13   83.99    9.10
   5   2  13   93.59   10.10
   6  -2  13    1.10    4.20
   6   2  13    9.30    3.90
   6   2  13    0.40    3.40
   7  -2  13    3.80    4.30
   7   2  13    2.20    4.00
   7   2  13    1.70    3.10
   8  -2  13  145.09   12.60
   8   2  13  175.28   12.40
   8   2  13  185.08   12.40
   9  -2  13   -1.90    4.40
   9   2  13    2.20    4.20
   9   2  13   -0.90    3.20
  10  -2  13    1.00    4.70
  10   2  13   -2.20    4.30
  10   2  13    7.20    4.50
  11  -2  13    3.00    5.40
  11   2  13   -1.00    3.90
  11   2  13    3.90    4.10
 -11  -3  13   -1.50    5.10
  11   3 -13   -0.20    3.80
 -11   3  13   -0.10    3.20
 -10  -3  13   48.70   10.80
  10   3 -13   54.79    8.80
 -10   3  13   38.60    6.60
   9   3 -13   17.30    5.50
  -9   3  13   16.00    4.60
  -8  -3  13    0.30    4.60
   8   3 -13   -1.70    2.80
  -8   3  13   -2.20    2.70
  -7  -3  13    7.50    6.20
  -7   3  13   10.60    4.90
   7   3 -13    2.70    3.40
  -6  -3  13   12.20    5.60
  -6   3  13   20.60    3.10
  -6   3  13    9.30    3.60
   6   3 -13   23.50    5.70
  -5  -3  13   -0.40    4.20
  -5   3  13    2.60    3.50
  -5   3  13    2.50    3.00
  -5   3  13   -1.60    2.30
   5   3 -13   -3.20    2.10
  -4  -3  13   42.20    8.70
   4   3 -13   60.49    6.30
   4   3 -13   50.29    5.80
  -4   3  13   59.99    5.70
  -4   3  13   63.19    8.80
  -4   3  13   54.19    6.30
  -3  -3  13   -3.60    4.50
  -3   3  13   -3.30    2.10
   3   3 -13    4.00    2.40
  -3   3  13   -3.60    2.40
  -3   3  13    3.00    3.90
   3   3 -13    0.30    2.30
  -2  -3  13   95.59   12.20
   2   3 -13  109.59    6.60
  -2   3  13  110.99    9.70
   2   3 -13  121.09    6.90
  -2   3  13  121.69    7.90
  -2   3  13  139.19   10.50
  -1  -3  13   -1.70    4.20
   1   3 -13    3.20    1.80
  -1   3  13    8.80    3.70
  -1   3  13    7.80    4.80
   1   3 -13    3.30    1.90
   0  -3  13    2.30    5.10
   0   3  13   -3.30    2.30
   0   3 -13   -0.30    1.10
   0   3 -13   -1.00    1.10
   0   3  13   -2.60    2.70
   1  -3  13   13.40    5.60
   1   3  13    1.90    3.60
   1   3  13    3.80    3.30
   2  -3  13    0.70    5.20
   2   3  13   -0.80    3.10
   2   3  13    0.60    3.30
   3  -3  13    3.90    5.30
   3   3  13   -2.40    2.40
   3   3  13    1.00    3.30
   4  -3  13    5.80    5.00
   4   3  13   -2.30    2.80
   4   3  13    1.10    3.30
   5  -3  13    8.70    5.80
   5   3  13    1.50    3.10
   5   3  13   -1.70    3.30
   6  -3  13   -0.50    5.00
   6   3  13   -3.90    3.20
   6   3  13   -3.00    3.60
   7  -3  13   -1.60    5.10
   7   3  13    4.50    4.50
   7   3  13   -0.80    3.30
   8  -3  13    4.30    5.30
   8   3  13    3.20    5.10
   8   3  13    8.90    5.00
   9  -3  13   -0.50    5.40
   9   3  13   -0.50    4.00
   9   3  13    2.30    4.60
  -7  -4  13    9.40    7.20
   7   4 -13   10.80    4.50
  -7   4  13    6.60    4.70
  -6  -4  13   15.00    7.30
  -6   4  13   13.10    4.30
   6   4 -13   12.70    4.50
  -5  -4  13    2.20    6.00
  -5   4  13    3.30    2.70
  -5   4  13    3.50    3.00
  -5   4  13    5.00    3.70
   5   4 -13    3.10    3.50
  -4  -4  13   30.70    9.00
  -4   4  13   20.00    5.00
  -4   4  13   21.40    6.00
   4   4 -13   19.40    4.70
  -4   4  13   19.20    3.50
  -3  -4  13   10.30    7.10
  -3   4  13    9.10    3.60
  -3   4  13   10.60    5.20
   3   4 -13    5.30    3.20
  -3   4  13    9.40    6.00
  -2  -4  13    0.80    5.80
  -2   4  13    1.30    3.00
   2   4 -13    1.10    3.20
   2   4 -13    3.60    2.70
  -2   4  13   -1.60    2.80
  -1  -4  13    4.40    7.60
   1   4 -13    2.20    3.10
  -1   4  13    4.80    3.70
   1   4 -13    3.00    2.50
  -1   4  13    6.40    5.20
   0   4  13    2.10    3.50
   0   4  13    1.80    3.50
   0   4 -13    1.70    2.60
   0   4 -13    0.90    2.10
  -1   4 -13    7.30    2.40
  -1   4 -13    4.30    2.40
   1   4  13    3.60    3.50
   1   4  13    7.70    4.10
   2  -4  13   -1.80    9.80
   2   4  13    3.20    4.20
   2   4  13    3.60    4.00
   3   4  13   10.70    5.40
   3   4  13    8.40    4.50
   4   4  13    2.10    4.20
   4   4  13    8.00    5.80
 -15   0  14    4.30    4.30
 -15   0  14    0.70    3.30
 -14   0  14   82.29   10.40
 -14   0  14  114.69   11.20
 -13   0  14   -0.80    2.80
 -13   0  14    1.70    3.60
 -12   0  14    1.30    3.40
 -12   0  14    2.90    3.80
 -11   0  14   -3.20    2.40
 -11   0  14    3.80    4.50
 -10   0  14  130.79   11.20
 -10   0  14  138.49   10.10
  -9   0  14   -4.00    1.90
  -9   0  14   -1.40    3.10
  -8   0  14    5.30    3.10
  -8   0  14    4.90    3.80
  -7   0  14    1.30    2.40
  -7   0  14    1.20    2.80
  -6   0  14   39.00    5.10
  -6   0  14   45.10    7.10
  -5   0  14   -1.60    1.80
   5   0 -14   -0.50    2.10
  -5   0  14   -3.60    2.90
   4   0 -14   59.89    6.00
  -4   0  14   82.29    8.30
  -4   0  14   62.89    5.30
  -3   0  14    1.90    1.80
   3   0 -14   -0.30    1.90
  -3   0  14   -2.30    3.10
   2   0 -14  279.97   12.50
  -2   0  14  263.57   11.60
  -2   0  14  270.37   14.10
   1   0 -14   -2.30    1.60
  -1   0  14    1.20    3.10
  -1   0  14   -2.00    1.40
   0   0  14  214.18   13.50
   0   0 -14  216.88   10.20
   0   0  14  228.78    9.70
   1   0  14    2.80    2.90
   1   0  14    0.40    1.50
  -1   0 -14    0.70    1.80
  -2   0 -14   11.00    2.50
   2   0  14    5.30    3.40
   2   0  14    7.00    2.00
   3   0  14    0.80    3.00
  -3   0 -14    3.10    1.80
   3   0  14   -0.40    1.40
   4   0  14    3.80    1.90
   4   0  14    3.90    3.50
  -4   0 -14    4.00    1.90
   5   0  14   -1.70    2.90
   5   0  14    1.30    1.60
   6   0  14   44.70    4.80
   6   0  14   53.89    7.80
   6   0  14   51.49    4.50
   7   0  14   -2.10    1.70
   7   0  14    0.20    2.50
   7   0  14   -2.00    3.20
   8   0  14  188.58   10.30
   8   0  14  229.78   13.90
   8   0  14  215.18   10.60
   9   0  14    1.60    2.60
   9   0  14   -6.80    3.20
   9   0  14   -2.00    2.90
  10   0  14   85.89    7.80
  10   0  14  128.09   11.00
  10   0  14  119.69    8.20
  11   0  14   -1.20    2.90
  11   0  14    2.90    5.90
  12   0  14    5.40    3.70
  12   0  14    5.40    5.00
 -14  -1  14   -0.80    3.80
 -14  -1  14   -0.20    3.80
 -14   1  14   -1.80    2.40
 -14   1  14    3.90    3.60
 -13  -1  14   34.40    6.60
  13  -1 -14   44.40    5.10
 -13  -1  14   44.80    8.30
 -13   1  14   59.89    8.50
 -13   1  14   48.80    5.70
  12  -1 -14   44.20    5.10
 -12  -1  14   45.10    7.70
 -12  -1  14   50.39    8.90
 -12   1  14   46.70    5.70
 -12   1  14   53.39    8.00
 -11  -1  14   92.99   10.10
 -11  -1  14  110.19   12.40
  11  -1 -14   80.29    6.10
 -11   1  14  124.29   12.20
 -11   1  14   98.19    7.40
 -10  -1  14   54.09    8.90
 -10  -1  14   59.49    9.00
  10  -1 -14   52.09    5.50
 -10   1  14   48.10    6.00
 -10   1  14   70.79    9.00
  -9  -1  14  122.99    9.50
   9  -1 -14  105.39    6.90
  -9  -1  14  152.48   14.40
  -9   1  14  127.99    8.60
  -9   1  14  110.09    8.90
   8  -1 -14  168.58    9.50
  -8  -1  14  169.58   12.70
  -8  -1  14  160.48   10.60
  -8   1  14  165.08   10.40
  -8   1  14  175.88   10.20
  -7  -1  14  176.88   10.40
  -7  -1  14  174.78   12.60
  -7   1  14  148.79    9.70
  -7   1  14  152.78    9.90
   6  -1 -14   19.30    3.50
  -6  -1  14   28.00    4.80
  -6  -1  14   18.50    5.50
  -6   1  14   33.00    4.90
  -6   1  14   24.60    4.80
   6   1 -14   20.80    3.90
  -5  -1  14   94.19   10.10
   5  -1 -14   89.79    6.20
  -5  -1  14   81.29    6.60
  -5   1  14   85.99    7.00
  -5   1  14   98.69    8.70
   5   1 -14   76.79    6.10
  -4  -1  14   82.89    9.60
  -4  -1  14   67.39    5.80
   4  -1 -14   66.49    5.60
  -4   1  14   89.29    7.90
   4   1 -14   67.49    5.40
  -4   1  14   68.99    6.20
   3  -1 -14    0.00    1.80
  -3  -1  14    4.50    3.50
  -3  -1  14    1.60    1.90
  -3   1  14    2.80    3.20
   3   1 -14    1.30    1.80
  -3   1  14   -0.10    2.20
  -2  -1  14   17.30    5.10
  -2  -1  14   16.80    3.10
   2  -1 -14   11.10    3.50
  -2   1  14   15.80    3.50
   2   1 -14   14.80    2.60
  -2   1  14   26.20    4.70
  -2   1  14   20.10    4.90
   1  -1 -14   19.90    4.40
  -1  -1  14   37.70    6.90
  -1  -1  14   25.60    3.50
  -1   1  14   36.80    5.30
   1   1 -14   28.80    3.00
  -1   1  14   31.30    5.20
   0  -1 -14    5.90    3.00
   0  -1  14   14.50    4.70
   0   1  14   11.70    3.90
   0   1  14    9.70    3.10
   0   1 -14   15.30    1.70
  -1  -1 -14  705.53   28.50
   1  -1  14  786.12   30.90
   1   1  14  727.53   29.00
   1   1  14  726.63   28.10
  -2  -1 -14    0.40    2.60
   2  -1  14    8.50    4.00
   2   1  14   -0.20    2.30
   2   1  14    7.30    3.60
  -3  -1 -14    0.30    2.80
   3  -1  14    4.70    3.60
   3   1  14    2.50    3.40
   3   1  14    4.30    2.60
   4  -1  14    9.80    4.30
  -4  -1 -14    8.50    3.60
   4   1  14   10.10    3.70
   4   1  14    4.80    2.90
   5  -1  14    0.80    3.70
  -5  -1 -14   -2.50    2.40
   5   1  14    1.90    3.30
   5   1  14   -0.80    2.10
   6  -1  14   57.79    8.20
   6   1  14   50.29    7.00
   6   1  14   50.49    6.40
   7  -1  14    2.80    4.20
   7   1  14    4.80    3.90
   7   1  14    7.30    3.10
   8  -1  14    7.80    4.70
   8   1  14    8.50    4.10
   8   1  14    6.10    3.30
   9  -1  14   63.19    9.10
   9   1  14   66.79    7.90
   9   1  14   66.39    8.60
  10  -1  14    2.70    2.10
  10  -1  14   -4.10    3.70
  10  -1  14    0.20    1.90
  10   1  14    7.30    3.90
  11  -1  14   -0.70    2.20
  11  -1  14   -0.70    2.60
  11   1  14    0.40    5.90
  11   1  14    0.80    3.40
  12  -1  14   -0.50    2.60
  12  -1  14   -3.00    4.60
  12   1  14   -1.10    4.00
  12   1  14    0.50    4.60
 -13  -2  14   -1.90    5.10
  13   2 -14    1.40    7.10
 -13   2  14    1.70    3.80
 -12  -2  14   15.40    6.40
  12   2 -14   15.80    5.50
 -12   2  14   19.00    5.70
 -11  -2  14   22.00    7.10
  11   2 -14   28.10    6.90
 -11   2  14   35.60   10.90
 -10  -2  14   -0.30    4.50
 -10   2  14    5.10    3.90
  10   2 -14    9.30    4.40
  -9  -2  14   46.20    9.30
  -9   2  14   25.60    2.70
   9   2 -14   41.50    6.70
  -9   2  14   23.70    4.20
  -9   2  14   37.20    7.00
  -8  -2  14   18.30    6.40
  -8   2  14   16.20    3.00
  -8   2  14   14.50    2.90
  -8   2  14   10.40    4.40
   8   2 -14   21.90    4.70
  -7  -2  14  115.39   12.40
  -7   2  14   89.19    6.30
  -7   2  14   93.19    6.60
  -7   2  14   97.49    8.70
  -6  -2  14   54.39    9.00
  -6   2  14   54.09    5.70
   6   2 -14   54.49    5.90
  -6   2  14   43.40    5.30
  -6   2  14   60.69    7.80
  -5  -2  14  238.08   15.70
  -5   2  14  208.08   11.20
   5   2 -14  213.48   11.00
  -5   2  14  225.78   11.20
  -5   2  14  227.08   12.90
   5   2 -14  234.98   11.30
  -4  -2  14  308.57   18.20
  -4   2  14  300.87   14.00
   4   2 -14  317.77   13.60
  -4   2  14  303.37   15.60
   4   2 -14  315.67   13.40
  -3  -2  14   46.70    8.30
  -3   2  14   56.69    6.40
   3   2 -14   49.80    4.40
   3   2 -14   50.69    4.40
  -3   2  14   57.59    6.60
  -3   2  14   72.29    8.50
  -2  -2  14    6.60    4.60
   2   2 -14    7.30    2.00
  -2   2  14   12.90    4.30
  -2   2  14   10.30    3.40
   2   2 -14    9.60    2.10
  -2   2  14    8.50    3.30
  -1  -2  14  364.26   19.00
   1   2 -14  331.07   11.60
   1   2 -14  326.37   11.70
  -1   2  14  324.97   16.40
  -1   2  14  340.57   15.40
   0  -2  14  129.89   11.30
   0   2  14  128.39    9.40
   1  -2  14   73.89    9.50
   1   2  14   95.69    8.00
   1   2  14   92.49    8.00
   2  -2  14   45.80    7.90
   2   2  14   42.00    6.20
   2   2  14   47.80    6.80
   3  -2  14   22.40    6.00
   3   2  14   31.70    5.70
   3   2  14   33.80    6.10
   4  -2  14   31.60    6.80
   4   2  14   41.60    6.90
   4   2  14   30.30    5.80
   5  -2  14   38.20    7.90
   5   2  14   32.60    6.00
   5   2  14   61.89    8.50
   6  -2  14    9.90    5.90
   6   2  14    1.20    3.30
   6   2  14   11.50    4.10
   7  -2  14    1.90    4.20
   7   2  14    1.60    3.70
   7   2  14   -1.20    2.80
   8  -2  14   11.30    5.60
   8   2  14   16.20    5.80
   8   2  14   11.80    4.40
   9  -2  14   -0.10    4.70
   9   2  14    1.80    4.40
   9   2  14   -0.80    3.70
  10  -2  14   -3.10    4.80
  10   2  14   -0.30    4.10
  10   2  14    3.50    4.60
 -10  -3  14   16.80    7.80
 -10   3  14    7.70    4.20
  10   3 -14    4.80    4.30
  -9  -3  14    2.50    5.20
   9   3 -14   12.90    5.20
  -9   3  14    8.30    4.50
  -8   3  14   -1.20    3.10
   8   3 -14    2.70    3.40
  -7  -3  14   20.40    7.50
  -7   3  14   13.50    4.20
   7   3 -14   25.60    5.30
  -6  -3  14   32.80    9.00
  -6   3  14   33.40    3.90
  -6   3  14   30.80    6.10
  -6   3  14   25.90    3.70
   6   3 -14   47.50    7.30
  -5  -3  14   13.80    5.90
  -5   3  14   22.70    4.40
  -5   3  14   29.30    6.70
   5   3 -14   23.00    4.60
  -5   3  14   23.80    4.10
  -4  -3  14   44.50    9.60
  -4   3  14   48.60    7.30
  -4   3  14   70.19    6.50
   4   3 -14   50.89    5.70
  -4   3  14   49.99    6.70
   4   3 -14   59.49    6.10
  -3  -3  14   -0.20    4.70
  -3   3  14    1.10    3.70
  -3   3  14    3.40    3.10
   3   3 -14   -1.70    2.20
   3   3 -14    0.30    2.00
  -3   3  14    0.80    3.90
  -2  -3  14   -2.90    4.10
   2   3 -14    2.20    1.90
   2   3 -14    1.60    2.00
  -2   3  14    3.80    3.00
  -2   3  14   -3.10    2.60
  -1  -3  14   13.40    6.60
   1   3 -14   13.90    2.70
  -1   3  14   17.00    5.30
   1   3 -14   12.50    2.50
  -1   3  14    7.10    3.90
   0  -3  14   12.40    5.70
   0   3  14    8.50    3.70
   0   3  14    7.60    4.60
   1  -3  14   16.00    6.60
   1   3  14    9.20    3.80
   1   3  14   11.90    5.30
   2  -3  14    7.60    6.00
   2   3  14    7.00    4.00
   2   3  14    9.30    4.40
   3  -3  14   -6.10    4.00
   3   3  14    5.60    4.70
   3   3  14   -0.90    3.30
   4  -3  14   -2.00    4.90
   4   3  14   -3.80    2.90
   4   3  14   -1.10    3.40
   5  -3  14   -3.60    4.80
   5   3  14   -1.00    3.40
   5   3  14    5.90    4.60
   6  -3  14    4.30    5.50
   6   3  14    0.70    4.10
   6   3  14    0.90    4.60
   7  -3  14   -3.80    4.80
   7   3  14    3.00    4.10
   7   3  14    2.90    4.80
   8  -3  14    5.50   10.80
   8   3  14   -3.30    4.50
   8   3  14    0.70    4.40
  -5  -4  14    5.90    6.70
  -5   4  14    1.10    2.50
  -5   4  14    2.80    3.30
   5   4 -14    3.20    3.50
  -4  -4  14    4.10    6.30
  -4   4  14    1.10    4.50
  -4   4  14   -0.10    2.70
  -3  -4  14    1.60    6.70
  -3   4  14    1.70    2.90
   3   4 -14    1.60    2.90
  -3   4  14   -0.30    3.50
  -2  -4  14    3.40    6.00
  -2   4  14    5.00    3.60
   2   4 -14    3.90    2.90
  -2   4  14    8.60    5.50
  -1  -4  14    5.30    6.50
  -1   4  14    4.20    3.60
  -1   4  14    3.50    4.10
   1   4 -14    7.70    2.70
   0  -4  14    0.50    5.50
   0   4  14   -3.00    2.90
   0   4 -14    0.30    2.00
   0   4  14   -1.40    3.30
   1  -4  14    7.00    6.00
   1   4  14    2.90    4.40
   1   4  14    5.20    4.20
   2  -4  14    9.80    6.30
   2   4  14    3.40    4.10
   2   4  14   -1.70    4.30
   3  -4  14    6.20    6.60
   3   4  14    8.00    4.90
   3   4  14   -2.80    3.70
 -14   0  15   -0.40    3.10
 -14   0  15    0.20    3.30
 -13   0  15    9.50    4.90
 -13   0  15   15.20    5.20
 -12   0  15   -0.90    3.10
 -12   0  15    1.10    3.30
 -11   0  15  217.38   13.80
 -11   0  15  223.68   13.80
 -10   0  15    0.70    3.40
 -10   0  15    0.60    3.00
  -9   0  15  214.88   13.70
  -9   0  15  227.78   12.80
  -8   0  15   -1.20    2.30
  -7   0  15  377.46   17.10
  -6   0  15   -1.90    2.20
  -5   0  15  411.96   17.50
   4   0 -15    0.30    2.30
  -4   0  15   -4.10    1.60
  -3   0  15    2.80    3.50
   3   0 -15    3.10    2.70
  -3   0  15   -1.70    1.70
  -2   0  15   -0.10    1.70
  -2   0  15    2.30    3.60
   2   0 -15    1.70    2.20
  -1   0  15  195.88    9.20
   1   0 -15  203.28   10.00
  -1   0  15  195.08   12.10
   0   0  15    2.00    3.40
   0   0  15    2.30    1.80
   0   0 -15    1.50    1.90
   1   0  15   53.99    7.40
   1   0  15   47.20    4.00
  -1   0 -15   50.59    4.60
  -2   0 -15   -1.30    1.80
   2   0  15    1.10    1.70
   2   0  15    3.80    3.80
   3   0  15  559.14   21.20
   3   0  15  616.54   25.50
  -3   0 -15  591.54   21.40
   4   0  15    0.20    1.60
  -4   0 -15   -0.10    1.80
   4   0  15   -2.20    2.80
   5   0  15   45.40    6.80
   5   0  15   35.90    4.00
   6   0  15   -1.60    3.60
   6   0  15    0.10    2.40
   6   0  15    0.00    1.80
   7   0  15   37.60    4.50
   7   0  15   33.40    4.50
   7   0  15   30.10    6.20
   8   0  15    4.20    3.00
   8   0  15    0.20    2.20
   8   0  15    2.40    3.90
   9   0  15   17.40    6.30
   9   0  15   28.00    6.60
   9   0  15   20.60    4.00
  10   0  15   -3.50    2.30
  10   0  15    0.20    3.30
  10   0  15   -1.80    7.00
  11   0  15  111.69    8.60
  11   0  15  122.19   12.80
 -14  -1  15    1.50    4.30
 -14  -1  15    1.40    4.60
 -14   1  15    5.00    3.00
 -14   1  15    3.30    4.20
 -13  -1  15   22.40    6.90
 -13  -1  15   30.40    7.30
 -13   1  15   22.60    5.40
 -13   1  15   28.20    4.60
 -12  -1  15   44.70    8.40
 -12  -1  15   40.30    7.00
  12  -1 -15   36.80    5.60
 -12   1  15   44.90    6.00
 -12   1  15   58.49    8.90
 -11  -1  15    5.40    4.70
 -11  -1  15    2.30    3.70
  11  -1 -15    4.30    2.80
 -11   1  15    6.00    3.50
 -11   1  15    1.60    3.10
 -10  -1  15   11.30    4.60
 -10  -1  15    4.90    5.00
  10  -1 -15    4.90    2.70
 -10   1  15    7.30    3.40
 -10   1  15    6.90    3.60
   9  -1 -15    3.90    2.40
  -9  -1  15    0.10    4.70
  -9  -1  15   14.90    4.50
  -9   1  15    1.70    2.70
  -9   1  15    6.60    3.40
  -8  -1  15   38.70    7.80
   8  -1 -15   34.50    4.90
  -8  -1  15   44.80    6.70
  -8   1  15   43.50    6.20
  -8   1  15   54.39    7.50
  -7  -1  15   26.10    6.30
   7  -1 -15   19.40    3.60
  -7   1  15   36.90    5.50
  -7   1  15   21.60    5.00
  -6  -1  15  147.09    9.60
   6  -1 -15  165.08    9.00
  -6  -1  15  171.38   12.30
  -6   1  15  167.28    9.90
  -6   1  15  147.49   10.00
  -5  -1  15   11.10    5.20
   5  -1 -15    6.70    2.70
  -5  -1  15    9.00    3.20
   5   1 -15   11.20    3.20
  -5   1  15   13.30    4.40
  -5   1  15    5.60    3.10
  -4  -1  15   -0.90    3.80
   4  -1 -15    0.80    2.20
  -4  -1  15    3.40    2.60
  -4   1  15    1.30    3.20
   4   1 -15    2.90    2.20
  -4   1  15    3.20    2.60
  -3  -1  15   17.70    3.20
  -3  -1  15   30.40    6.70
  -3   1  15   19.00    4.70
  -3   1  15   15.90    3.80
   3   1 -15   15.70    3.10
  -2  -1  15  161.08    8.20
  -2  -1  15  184.08   12.60
  -2   1  15  184.08    9.90
  -2   1  15  173.68   10.60
   2   1 -15  164.88    8.10
  -1  -1  15  187.78   12.60
  -1  -1  15  180.68    8.10
   1  -1 -15  161.38   12.00
   1   1 -15  176.48    7.80
  -1   1  15  191.98   10.10
  -1   1  15  173.08   15.80
   0  -1  15   34.60    7.20
   0  -1 -15   32.50    5.10
   0   1 -15   31.90    2.20
   0   1  15   24.00    4.10
   0   1  15   27.00    5.10
  -1  -1 -15  334.97   16.00
   1  -1  15  350.66   18.30
   1   1  15  348.77   16.90
   1   1  15  342.07   15.40
  -2  -1 -15   80.29    7.20
   2  -1  15   97.59   10.50
   2   1  15   98.39    9.60
   2   1  15   84.39    6.80
  -3  -1 -15   54.99    6.20
   3  -1  15   55.59    7.90
   3   1  15   65.39    6.60
   3   1  15   61.79    7.70
  -4  -1 -15   18.80    4.10
   4  -1  15   18.70    5.10
   4   1  15   25.30    5.10
   4   1  15   30.40    4.90
   5  -1  15   48.30    7.40
   5   1  15   45.40    6.00
   5   1  15   64.99    8.60
   6  -1  15   86.19    9.80
   6   1  15   77.19    8.90
   6   1  15   75.99    7.90
   7  -1  15    2.10    3.60
   7   1  15    5.20    3.90
   8  -1  15   28.90    7.00
   8   1  15   37.90    6.80
   8   1  15   50.39    6.90
   9  -1  15    1.90    4.90
   9   1  15    5.10    3.60
   9   1  15    8.40    5.30
  10  -1  15    8.30    2.90
  10   1  15    9.80    4.20
  10   1  15    5.00    5.20
  11  -1  15    1.00    2.10
  11  -1  15   -3.20    4.40
  11   1  15   -1.10    3.60
  11   1  15    0.20    4.50
  12   2 -15   13.00    5.30
 -12   2  15   15.90    4.40
 -11  -2  15   23.90    7.70
 -11   2  15   15.30    5.20
  11   2 -15   14.60    5.60
 -10  -2  15   -1.90    4.30
 -10   2  15   -2.10    3.00
  10   2 -15    2.70    3.80
  -9  -2  15  200.78   15.50
  -9   2  15  176.88    8.30
   9   2 -15  192.28   12.00
  -9   2  15  165.28    9.20
  -9   2  15  199.98   12.50
  -8  -2  15  362.36   21.50
  -8   2  15  361.56   15.20
  -8   2  15  331.27   18.10
  -8   2  15  359.26   14.90
   8   2 -15  411.16   18.20
  -7  -2  15   36.20    8.40
  -7   2  15   41.00    7.00
   7   2 -15   39.50    6.50
  -7   2  15   34.30    4.80
  -7   2  15   38.30    5.10
  -6  -2  15  174.58   14.00
  -6   2  15  170.28    9.90
  -6   2  15  170.88   11.30
  -6   2  15  150.28    9.40
   6   2 -15  192.48   10.20
  -5  -2  15    8.50    5.00
  -5   2  15   13.10    3.90
  -5   2  15   12.60    4.40
  -5   2  15   13.50    4.70
   5   2 -15   10.80    3.30
   5   2 -15   16.70    3.70
  -4  -2  15   88.69   11.50
  -4   2  15  108.39    8.60
   4   2 -15   94.49    6.40
  -4   2  15   88.99    7.90
   4   2 -15  104.99    6.60
  -4   2  15  102.79    7.80
  -3  -2  15    8.60    5.20
   3   2 -15    3.70    2.10
  -3   2  15    0.50    3.80
  -3   2  15    4.10    3.10
   3   2 -15    5.80    2.40
  -3   2  15    6.50    3.50
  -2  -2  15   98.09   11.20
  -2   2  15   98.99    8.20
  -2   2  15  103.19    7.70
   2   2 -15   79.29    4.70
  -1  -2  15  118.99   13.00
  -1   2  15   86.29    8.00
  -1   2  15  104.09    9.40
   0  -2  15   -7.70    3.30
   0   2  15    0.00    3.40
   0   2  15   -2.90    2.30
   1  -2  15   28.60    7.00
   1   2  15   20.10    4.70
   1   2  15   38.70    6.50
   2  -2  15   41.30    8.40
   2   2  15   51.89    7.60
   2   2  15   43.10    6.70
   3  -2  15    7.10    4.80
   3   2  15    2.10    3.20
   3   2  15    7.10    3.90
   4  -2  15    7.70    5.70
   4   2  15    5.90    4.30
   4   2  15   11.00    4.40
   5  -2  15   16.50    6.20
   5   2  15   11.40    4.80
   5   2  15    8.80    4.40
   6  -2  15   89.39   10.70
   6   2  15   77.59    9.40
   6   2  15  102.09   11.30
   7  -2  15    0.40    5.20
   7   2  15    8.60    4.50
   7   2  15   -2.30    3.30
   8  -2  15    6.00    5.60
   8   2  15    4.90    8.30
   8   2  15    3.50    4.20
   9   2  15    1.60    4.40
   9   2  15    1.90    3.80
  10  -2  15    2.50    5.70
  10   2  15    6.30    5.20
  10   2  15   -0.40    3.70
 -10  -3  15    8.90    6.50
  10   3 -15   13.00    4.80
 -10   3  15    8.70    4.40
  -9  -3  15   43.50    9.90
   9   3 -15   35.00    6.30
  -9   3  15   30.40    7.40
  -8  -3  15   -7.10    4.10
  -8   3  15   -3.80    3.20
   8   3 -15    1.40    3.50
  -7  -3  15    4.00    6.20
  -7   3  15   -1.70    3.60
   7   3 -15    2.00    3.40
  -6  -3  15   60.29   15.90
  -6   3  15   61.79    5.50
  -6   3  15   57.29    5.50
  -6   3  15   43.30    7.20
  -5  -3  15   -4.00    4.70
  -5   3  15    1.20    3.60
   5   3 -15   -0.40    2.50
  -5   3  15    1.20    3.00
  -5   3  15    5.10    4.00
  -4  -3  15    4.80    5.80
  -4   3  15   -0.90    3.80
   4   3 -15    0.50    2.60
   4   3 -15    1.80    2.40
  -4   3  15    2.20    4.00
  -4   3  15    1.10    2.90
  -3  -3  15   -5.80    4.20
   3   3 -15   -0.80    2.00
  -3   3  15    1.50    3.50
  -3   3  15    2.00    3.00
   3   3 -15    0.40    2.10
  -2  -3  15   10.30    6.00
  -2   3  15    7.20    4.10
  -2   3  15   14.20    6.70
   2   3 -15   11.90    2.50
   2   3 -15    7.60    2.20
  -1  -3  15    7.50    5.50
  -1   3  15   11.00    4.20
  -1   3  15   15.00    4.10
   0  -3  15    4.50    5.30
   0   3  15    6.90    3.90
   0   3  15    2.80    3.50
   1  -3  15   53.29    9.80
   1   3  15   56.39    7.60
   1   3  15   59.89    9.30
   2  -3  15   -0.70    4.70
   2   3  15    1.30    3.10
   2   3  15   -0.80    3.30
   3  -3  15    8.90    6.00
   3   3  15   10.90    5.30
   3   3  15   11.40    4.70
   4  -3  15   18.30    7.00
   4   3  15   12.30    4.10
   4   3  15   18.10    5.60
   5  -3  15    6.90    6.30
   5   3  15    4.60    4.40
   5   3  15    4.10    4.80
   6   3  15    7.70    5.20
   7  -3  15    0.90    6.20
   7   3  15   -1.70    4.20
   7   3  15   -5.20    3.90
  -2  -4  15   -6.20    5.70
   2   4 -15   -1.30    2.10
  -2   4  15    1.40    3.20
  -2   4  15    3.90    4.20
  -1  -4  15   28.60    8.70
  -1   4  15   16.50    5.10
  -1   4  15   25.90    5.50
   0  -4  15    2.60    6.40
   0   4  15    9.60    4.30
   0   4  15    5.10    4.70
 -13   0  16    3.60    4.10
 -13   0  16   -3.00    2.60
 -12   0  16   43.50    7.10
 -12   0  16   52.09    8.00
 -11   0  16    1.60    3.90
 -11   0  16   -3.20    2.90
 -10   0  16    3.20    3.40
 -10   0  16    0.30    4.00
  -9   0  16    1.30    2.70
  -9   0  16   -3.50    3.20
  -8   0  16   13.20    4.20
  -8   0  16    5.90    4.10
  -7   0  16    1.00    2.60
  -7   0  16   -5.20    2.80
  -6   0  16  834.12   31.60
  -6   0  16  814.62   33.60
  -5   0  16   -3.30    2.00
  -5   0  16   -3.60    3.20
  -4   0  16  134.89    8.10
  -4   0  16  145.29   10.80
   4   0 -16  138.49    8.90
  -3   0  16   -5.60    3.10
   3   0 -16   -1.40    2.20
  -3   0  16    4.30    2.30
   2   0 -16   34.20    4.90
  -2   0  16   29.10    4.00
  -2   0  16   34.80    6.90
   1   0 -16    3.30    2.40
  -1   0  16    2.50    3.70
  -1   0  16   -1.90    1.70
   0   0 -16    0.50    2.30
   0   0  16    1.40    1.80
   0   0  16    9.30    4.50
  -1   0 -16   -0.60    2.00
   1   0  16   -0.30    1.70
   1   0  16   -0.30    3.20
   2   0  16  119.09    6.40
  -2   0 -16  131.89    7.10
   2   0  16  140.39   10.40
  -3   0 -16   -3.20    1.70
   3   0  16    0.40    1.60
   3   0  16   -0.60    3.20
  -4   0 -16   57.29    4.50
   4   0  16   63.59    8.30
   4   0  16   65.49    4.50
   5   0  16    1.70    3.70
   5   0  16    0.40    1.70
   5   0  16    0.80    2.50
   6   0  16   33.50    7.00
   6   0  16   31.50    3.80
   6   0  16   22.70    3.70
   7   0  16    0.70    2.10
   7   0  16   -1.70    3.30
   7   0  16    0.90    2.70
   8   0  16   32.00    4.60
   8   0  16   54.29    5.40
   8   0  16   72.89    9.10
   9   0  16   -2.20    2.40
   9   0  16    2.50    5.80
  10   0  16   24.90    6.60
  10   0  16   20.30    4.40
  11   0  16    1.20    5.20
  11   0  16    2.90    3.30
 -13  -1  16    7.10    4.60
 -13  -1  16    2.40    4.40
 -13   1  16    4.90    3.20
 -13   1  16    7.90    4.70
 -12  -1  16   21.90    6.80
 -12  -1  16   26.90    6.10
 -12   1  16   17.10    4.40
 -12   1  16   29.90    6.20
 -11  -1  16   15.40    4.70
  11  -1 -16   15.00    3.60
 -11  -1  16   18.00    6.20
 -11   1  16   14.70    4.30
 -11   1  16   25.90    6.00
  10  -1 -16    5.30    2.80
 -10  -1  16    7.80    5.20
 -10  -1  16    4.50    3.70
 -10   1  16    8.50    3.90
 -10   1  16    8.80    3.80
   9  -1 -16  110.79    7.60
  -9  -1  16  128.29   13.20
  -9  -1  16  118.29    9.70
  -9   1  16  136.49    9.90
  -9   1  16  121.39    9.30
  -8  -1  16   52.49    8.80
   8  -1 -16   30.50    4.80
  -8  -1  16   37.20    6.20
  -8   1  16   31.60    5.40
  -8   1  16   41.00    6.40
  -7  -1  16   36.60    6.20
  -7  -1  16   40.30    7.50
  -7   1  16   62.19    7.60
  -7   1  16   58.99    7.50
  -6  -1  16   74.09    7.80
  -6  -1  16   76.69   10.20
  -6   1  16   83.69    8.60
  -6   1  16   78.49    8.40
  -5  -1  16   -1.00    2.40
  -5  -1  16    0.10    4.40
   5   1 -16   -0.90    2.30
  -5   1  16   -1.40    2.80
  -5   1  16    0.70    3.30
  -4  -1  16  109.29    7.30
  -4  -1  16  137.69   13.00
  -4   1  16  105.19    7.90
   4   1 -16  105.59    7.20
  -4   1  16  116.99    9.10
  -3  -1  16  183.48   13.00
  -3  -1  16  175.48    9.00
   3   1 -16  159.88    8.70
  -3   1  16  182.88   10.20
  -2  -1  16   54.59    8.40
  -2  -1  16   51.79    4.60
   2   1 -16   53.99    4.50
  -2   1  16   46.10    6.60
  -2   1  16   67.39    7.20
  -1  -1  16  282.67   11.20
  -1  -1  16  276.17   16.30
  -1   1  16  291.37   13.50
  -1   1  16  274.27   14.40
   1   1 -16  267.97   11.00
   0  -1  16   43.30    7.90
   0   1  16   39.90    6.40
   0   1  16   42.40    5.50
   1  -1  16   10.50    4.80
  -1  -1 -16    2.90    3.80
   1   1  16    2.00    2.60
   1   1  16    7.20    3.60
   2  -1  16    2.30    4.80
  -2  -1 -16    0.80    3.10
   2   1  16    1.40    2.40
   2   1  16   -2.20    3.00
   3  -1  16   12.20    4.90
  -3  -1 -16   10.40    4.50
   3   1  16   10.40    3.40
   3   1  16   11.20    4.10
   4  -1  16  204.48   13.70
   4   1  16  180.18   10.60
   4   1  16  200.48   12.80
   5  -1  16    8.00    5.30
   5   1  16    1.10    2.70
   5   1  16   11.40    4.80
   6  -1  16   44.80    7.80
   6   1  16   48.30    6.30
   6   1  16   35.20    6.60
   7  -1  16   19.30    5.80
   7   1  16   11.30    5.40
   7   1  16   10.30    3.90
   8  -1  16   25.70    7.20
   8   1  16   29.70    7.30
   8   1  16   28.40    5.60
   9  -1  16    2.80    5.50
   9   1  16   10.60    4.40
   9   1  16   14.10    5.30
  10  -1  16   -0.60    4.60
  10   1  16   -0.60    4.40
  10   1  16    3.30    4.00
 -12  -2  16   -6.20    4.00
 -12   2  16    1.30    4.00
  12   2 -16    0.50    3.60
 -11   2  16    3.50    3.90
  11   2 -16   12.60    4.90
 -10  -2  16    2.70    5.10
  10   2 -16   -0.40    2.90
 -10   2  16   -2.80    4.00
  -9  -2  16   21.20    6.60
   9   2 -16   21.20    4.90
  -9   2  16   20.30    3.60
  -9   2  16   14.20    4.50
  -9   2  16   17.70    3.40
  -8  -2  16   57.29   10.50
  -8   2  16   50.29    5.70
  -8   2  16   46.10    5.40
   8   2 -16   59.79    7.60
  -8   2  16   52.69    7.70
  -7  -2  16   53.39    9.30
  -7   2  16   33.30    5.00
  -7   2  16   36.80    6.90
  -7   2  16   35.80    5.50
   7   2 -16   47.10    6.10
  -6  -2  16    1.80    4.50
   6   2 -16    9.80    3.30
  -6   2  16   11.40    3.80
  -6   2  16    4.20    3.80
  -6   2  16   18.70    4.70
  -5  -2  16   18.60    6.50
  -5   2  16   27.80    5.00
  -5   2  16   16.10    4.20
   5   2 -16   27.90    4.50
   5   2 -16   15.40    3.80
  -5   2  16   17.70    4.40
  -4  -2  16    2.00    4.60
  -4   2  16    0.40    3.30
   4   2 -16   -0.70    2.10
  -4   2  16    4.70    3.60
   4   2 -16    1.30    2.10
  -3  -2  16    2.60    4.90
  -3   2  16    5.50    3.70
   3   2 -16    3.40    2.00
   3   2 -16    7.20    2.30
  -3   2  16   10.70    3.90
  -2  -2  16   97.59   12.30
  -2   2  16   85.99    7.70
   2   2 -16   83.99    4.50
  -2   2  16   71.39    7.60
  -1  -2  16    5.80    4.60
  -1   2  16    4.60    3.30
  -1   2  16    1.50    2.70
   0  -2  16    0.00    4.00
   0   2  16    5.20    3.60
   0   2  16    0.40    2.90
   1  -2  16   12.30    6.00
   1   2  16   19.60    5.40
   1   2  16   12.30    4.30
   2  -2  16   30.20    7.00
   2   2  16   35.20    6.10
   2   2  16   28.50    6.10
   3  -2  16    1.70    4.60
   3   2  16   -1.80    2.70
   3   2  16   -4.20    3.20
   4  -2  16    1.00    4.80
   4   2  16    4.60    3.50
   4   2  16    1.60    3.70
   5  -2  16   -1.80    4.50
   5   2  16    4.20    4.20
   5   2  16    7.00    4.00
   6  -2  16    0.60    5.00
   6   2  16    4.40    4.40
   6   2  16   11.00    4.60
   7  -2  16    3.10    5.40
   7   2  16    0.10    3.30
   8  -2  16    1.90    5.30
   8   2  16    0.40    4.40
   8   2  16    4.20    4.20
   9  -2  16   -3.60    5.70
   9   2  16   -1.00    3.70
   9   2  16   -5.10    4.10
  -9  -3  16    8.10    7.10
  -9   3  16    8.90    5.00
   9   3 -16    9.00    4.70
  -8  -3  16   14.10    7.00
   8   3 -16   14.20    4.70
  -8   3  16   11.80    4.90
  -7  -3  16   28.40    8.40
   7   3 -16   32.40    5.90
  -7   3  16   41.00    7.80
  -6  -3  16  240.38   18.30
  -6   3  16  244.38   16.00
  -6   3  16  194.58   11.10
  -6   3  16  232.08   11.00
  -5  -3  16   -0.30    5.00
  -5   3  16    1.40    3.20
   5   3 -16   -1.20    2.80
  -5   3  16   -2.30    3.00
   5   3 -16    2.80    3.40
  -4   3  16   91.99    9.60
  -4   3  16   82.39    7.30
   4   3 -16   81.59    6.40
  -4   3  16   85.99    9.80
  -3  -3  16   -0.30    5.90
   3   3 -16   -0.50    2.00
   3   3 -16    2.50    2.20
  -3   3  16   -1.50    2.80
  -3   3  16    0.70    3.60
  -2  -3  16   25.00    7.90
   2   3 -16   17.50    2.30
  -2   3  16   17.40    4.60
  -2   3  16   32.00    7.00
  -1  -3  16    7.20    6.20
  -1   3  16    4.90    4.20
  -1   3  16    3.20    3.50
   0  -3  16   -2.80    4.80
   0   3  16   -1.10    2.80
   0   3  16   -2.40    3.00
   1  -3  16   81.39   11.50
   1   3  16   73.19    8.70
   1   3  16  100.39   12.00
   2  -3  16   13.70    7.80
   2   3  16    0.10    3.80
   2   3  16    1.70    3.50
   3   3  16   44.10    7.30
   3   3  16   26.90    6.10
   4  -3  16    3.50    5.90
   4   3  16    2.20    4.50
   4   3  16    5.40    4.20
   5  -3  16    2.50    5.80
   5   3  16   -1.00    3.70
   5   3  16   -0.10    6.20
   6  -3  16   -0.60    5.90
   6   3  16   -5.60    4.00
   6   3  16   -3.30    4.50
 -13   0  17   62.79    9.90
 -13   0  17   47.70    8.00
 -12   0  17   -2.60    3.40
 -12   0  17   -2.30    3.40
 -11   0  17   75.09   10.20
 -11   0  17   63.59    8.90
 -10   0  17    0.90    4.00
 -10   0  17   -1.20    3.00
  -9   0  17   37.60    7.00
  -9   0  17   31.40    5.60
  -8   0  17    0.70    3.80
  -8   0  17   -2.80    2.70
  -7   0  17   24.50    4.80
  -7   0  17   28.80    6.40
  -6   0  17   -1.20    2.30
  -6   0  17   -0.30    3.90
  -5   0  17   42.50    6.30
  -5   0  17   54.89    7.90
  -4   0  17   -2.20    2.00
  -4   0  17    4.40    4.00
  -3   0  17   14.10    3.20
  -3   0  17   21.90    5.90
   3   0 -17   14.90    3.80
  -2   0  17   -2.30    1.80
   2   0 -17    2.70    3.00
  -2   0  17    0.10    3.50
  -1   0  17   36.00    6.50
  -1   0  17   33.30    4.00
   1   0 -17   35.30    4.80
   0   0 -17    1.50    2.50
   0   0  17   -3.20    3.10
   0   0  17   -0.20    2.00
  -1   0 -17 1062.49   37.80
   1   0  17 1063.09   37.00
   1   0  17 1066.89   41.80
   2   0  17   -2.90    3.60
   2   0  17   -0.80    1.80
  -2   0 -17   -1.80    2.10
   3   0  17  266.37   15.60
   3   0  17  261.47   10.90
  -3   0 -17  269.07   11.20
  -4   0 -17   -0.90    1.90
   4   0  17    4.70    4.60
   4   0  17    0.00    1.80
   5   0  17   26.40    6.70
   5   0  17   24.30    3.20
   5   0  17   31.30    4.10
   6   0  17   -3.40    3.90
   6   0  17    0.00    1.80
   6   0  17   -0.40    2.60
   7   0  17    0.70    4.20
   7   0  17   -1.40    2.70
   7   0  17    0.00    2.00
   8   0  17    3.40    2.50
   8   0  17    1.70    2.90
   8   0  17   -3.20    4.10
   9   0  17   34.90    4.70
   9   0  17   28.00    7.20
  10   0  17   -2.10    4.50
  10   0  17    5.50    3.10
 -12  -1  17   11.90    5.80
 -12  -1  17   14.20    5.40
 -12   1  17   15.80    5.10
 -12   1  17   18.20    4.70
 -11  -1  17    2.80    4.40
 -11  -1  17    3.60    3.90
 -11   1  17   -2.00    3.10
 -11   1  17    0.40    3.10
 -10  -1  17    0.40    3.50
 -10  -1  17    2.50    4.50
 -10   1  17    1.60    3.70
 -10   1  17   -2.80    2.60
  -9  -1  17   25.80    6.80
  -9  -1  17   39.30    7.00
  -9   1  17   34.60    6.10
  -9   1  17   32.70    6.50
  -8  -1  17    4.30    3.50
  -8  -1  17   15.20    5.80
  -8   1  17    3.10    3.50
  -8   1  17   -1.50    2.80
  -7  -1  17    9.20    5.40
  -7  -1  17    5.80    3.50
  -7   1  17   14.80    4.40
  -7   1  17   19.20    5.00
  -6  -1  17   -4.50    3.50
  -6  -1  17   -1.80    2.60
  -6   1  17   -1.50    2.70
  -5  -1  17   25.30    4.60
  -5  -1  17   41.00    8.10
  -5   1  17   48.90    7.30
  -5   1  17   36.30    5.40
   5   1 -17   39.20    5.40
  -4  -1  17   78.69    6.50
  -4  -1  17   98.19   10.90
  -4   1  17   83.59    7.30
  -4   1  17   92.99    9.40
  -3  -1  17   -3.20    3.80
  -3  -1  17    0.90    2.30
  -3   1  17   -1.10    3.40
  -3   1  17    0.40    2.60
   3   1 -17    2.20    2.30
  -2  -1  17  118.49   13.10
  -2  -1  17  103.39    6.20
  -2   1  17  102.99    8.90
  -2   1  17  107.59    7.80
   2   1 -17   87.69    6.00
  -1  -1  17   83.69   10.90
  -1  -1  17   59.59    4.40
   1   1 -17   55.79    4.00
  -1   1  17   50.49    6.80
  -1   1  17   69.49    8.20
   0  -1  17    0.60    4.30
   0   1  17    0.90    2.60
   0   1  17    0.00    3.60
   1  -1  17    7.60    4.80
   1   1  17   12.70    4.40
   1   1  17   10.40    3.30
   2  -1  17   -5.80    3.80
   2   1  17    0.20    2.40
   2   1  17    3.60    4.00
   3  -1  17   -1.60    4.00
   3   1  17    1.40    2.80
   3   1  17    0.00    3.20
   4  -1  17    0.00    3.90
   4   1  17   -1.30    3.60
   4   1  17   -0.40    2.60
   5  -1  17   17.30    5.70
   5   1  17   21.80    6.00
   5   1  17   13.80    3.90
   6  -1  17   12.60    5.50
   6   1  17   27.70    6.80
   7  -1  17   10.90    6.00
   7   1  17    2.40    3.20
   7   1  17    1.00    5.00
   8  -1  17   20.60    7.20
   8   1  17   11.70    4.30
   8   1  17   18.00    6.50
   9  -1  17   -1.80    5.20
   9   1  17    0.30    3.20
   9   1  17   10.90    5.50
 -11  -2  17   -0.30    4.70
 -11   2  17   -0.30    3.70
  11   2 -17    0.70    3.60
 -10  -2  17   -0.70    6.00
  10   2 -17   -1.50    3.40
 -10   2  17    0.90    2.40
 -10   2  17    2.70    2.30
 -10   2  17    1.50    3.90
  -9  -2  17   -0.30    5.20
  -9   2  17    8.80    3.20
  -9   2  17    7.10    3.30
   9   2 -17    8.30    4.00
  -8  -2  17   10.00    5.90
   8   2 -17   18.10    4.60
  -8   2  17    9.60    4.30
  -8   2  17   12.30    3.70
  -8   2  17    6.40    3.40
  -7  -2  17    2.00    5.10
  -7   2  17    3.50    3.40
   7   2 -17    2.00    3.00
  -7   2  17   -1.60    3.20
  -7   2  17    1.30    3.40
  -6  -2  17    2.30    4.40
  -6   2  17    3.70    3.60
  -6   2  17    1.20    3.60
   6   2 -17    1.20    2.50
  -6   2  17   -0.80    3.20
  -5  -2  17    1.80    5.40
  -5   2  17   -0.60    3.30
   5   2 -17    0.60    2.50
  -5   2  17    1.30    3.40
   5   2 -17    2.20    2.70
  -4  -2  17   11.20    6.20
   4   2 -17   10.40    3.00
   4   2 -17   14.80    3.20
  -4   2  17   18.70    5.00
  -4   2  17   17.40    5.20
  -3  -2  17    3.30    4.90
  -3   2  17    3.70    3.60
  -3   2  17    4.70    3.70
   3   2 -17   -0.40    1.90
   3   2 -17    5.20    2.20
  -2  -2  17   36.70    7.70
  -2   2  17   29.60    5.60
   2   2 -17   29.50    2.40
   2   2 -17   27.90    2.40
  -2   2  17   27.80    5.20
  -1  -2  17   -1.10    4.10
  -1   2  17    5.30    3.60
  -1   2  17   -1.40    3.00
   0  -2  17   34.20    7.60
   0   2  17   27.00    5.30
   0   2  17   28.90    5.90
   1  -2  17   40.30    8.30
   1   2  17   44.20    7.00
   1   2  17   32.50    6.10
   2  -2  17   26.90    7.70
   2   2  17   21.30    5.20
   2   2  17   23.30    5.00
   3  -2  17    3.40    4.70
   3   2  17   -0.50    3.00
   3   2  17    3.20    4.10
   4  -2  17    4.50    5.10
   4   2  17    1.10    2.90
   4   2  17   -1.00    3.70
   5  -2  17    2.60    5.20
   5   2  17   -1.70    3.90
   5   2  17   -0.50    3.10
   6  -2  17   26.00    7.60
   6   2  17   10.00    4.60
   7  -2  17   -6.10    4.40
   7   2  17    2.80    4.20
   7   2  17    4.60    5.00
   8  -2  17   -0.70    6.20
   8   2  17    2.50    4.10
   8   2  17   -2.00    4.40
  -7  -3  17   14.10    7.20
  -7   3  17    7.00    4.90
  -7   3  17   12.20    3.10
   7   3 -17   11.60    4.30
  -6  -3  17  122.79   15.50
  -6   3  17   77.99    9.00
  -6   3  17  109.69    8.00
   6   3 -17  115.49    9.10
  -5  -3  17    0.70    5.60
  -5   3  17    4.20    4.50
  -5   3  17   -2.40    3.40
   5   3 -17   -3.80    3.10
  -5   3  17    0.00    4.60
   5   3 -17    2.30    2.70
  -4  -3  17   55.39   10.70
   4   3 -17   41.50    5.00
  -4   3  17   59.89    6.90
   4   3 -17   60.79    5.30
  -3  -3  17   -4.50    4.50
   3   3 -17   -0.70    1.80
   3   3 -17    0.00    1.80
  -3   3  17    4.10    4.50
  -3   3  17   -1.50    3.00
  -2  -3  17    0.60    5.50
  -2   3  17    0.20    3.30
  -2   3  17    0.80    3.80
  -1  -3  17   -1.50    5.30
  -1   3  17    5.00    3.90
  -1   3  17   -3.10    3.20
   0  -3  17    0.80    5.40
   0   3  17   -0.10    3.80
   0   3  17    1.30    3.50
   1  -3  17   10.20    7.10
   1   3  17    6.10    4.50
   1   3  17   10.80    5.10
   2  -3  17    9.20    6.40
   2   3  17   -0.70    4.20
   2   3  17    1.50    4.20
   3  -3  17    4.90    6.10
   3   3  17   -1.00    4.00
   3   3  17   -0.20    3.50
   4  -3  17   -1.10    5.90
   4   3  17    7.40    5.30
 -12   0  18    3.70    4.00
 -12   0  18    2.70    4.60
 -11   0  18    1.00    3.50
 -11   0  18   -1.20    3.80
 -10   0  18    0.10    4.30
 -10   0  18    3.50    3.30
  -9   0  18   -0.20    2.90
  -9   0  18   -1.60    3.90
  -8   0  18    7.50    3.70
  -8   0  18    4.70    4.30
  -7   0  18    0.00    2.90
  -7   0  18    3.70    4.30
  -6   0  18  125.79    8.90
  -6   0  18  174.98   12.50
  -5   0  18   -6.70    3.30
  -5   0  18   -1.60    2.50
  -4   0  18   35.30    5.00
  -4   0  18   46.40    7.70
  -3   0  18    1.40    4.10
   3   0 -18    1.60    3.20
  -3   0  18    2.70    2.50
  -2   0  18  122.49    7.30
   2   0 -18  110.99    8.20
  -2   0  18  126.09   10.80
  -1   0  18    0.40    2.00
   1   0 -18   -0.30    2.60
  -1   0  18    2.60    4.30
   0   0  18   34.40    4.10
   0   0 -18   37.70    4.90
   0   0  18   32.30    7.40
   1   0  18   -3.20    3.70
   1   0  18   -0.90    1.90
  -1   0 -18   -0.40    2.30
  -2   0 -18  318.47   13.00
   2   0  18  311.27   17.70
   2   0  18  297.07   12.40
   3   0  18    0.60    1.70
  -3   0 -18    2.60    2.10
   3   0  18   -6.00    3.20
   4   0  18    6.90    4.60
   4   0  18    7.20    2.20
   5   0  18   -3.80    3.80
   5   0  18    0.70    2.60
   5   0  18    2.40    1.90
   6   0  18  171.88    8.10
   6   0  18  195.28   13.90
   6   0  18  165.98    8.70
   7   0  18    0.40    2.10
   7   0  18   -3.10    4.00
   7   0  18    1.20    2.60
   8   0  18  173.88   14.00
   8   0  18  167.58    8.50
   9   0  18    7.90    5.70
   9   0  18    2.50    2.50
 -11  -1  18    7.70    4.30
 -11  -1  18    4.00    5.20
 -11   1  18   12.60    4.90
 -11   1  18   11.90    4.50
 -10  -1  18   60.09   10.00
 -10  -1  18   47.90    7.40
 -10   1  18   52.79    8.20
  -9  -1  18    9.00    4.20
  -9  -1  18    2.50    4.60
  -9   1  18    6.30    3.70
  -9   1  18    7.10    5.70
  -8  -1  18    4.60    3.70
  -8  -1  18    6.80    5.10
  -8   1  18    7.50    4.40
  -8   1  18    6.90    3.90
  -7  -1  18  152.68   12.90
  -7  -1  18  157.38   10.30
  -7   1  18  134.29   10.70
  -7   1  18  125.09    9.60
  -6  -1  18   64.89   10.20
  -6   1  18   71.59    8.70
  -6   1  18   51.59    6.70
  -5  -1  18    6.00    4.90
  -5  -1  18    5.50    3.40
  -5   1  18   10.20    3.70
  -5   1  18    9.50    4.90
   5   1 -18    7.10    3.60
  -4  -1  18  173.68    9.80
  -4  -1  18  185.18   13.80
   4   1 -18  184.68   10.50
  -4   1  18  179.28   10.70
  -4   1  18  174.78   12.10
  -3  -1  18    4.30    5.20
  -3  -1  18   -1.40    2.10
   3   1 -18    0.70    2.50
  -3   1  18    3.80    4.20
  -3   1  18    1.30    2.60
  -2  -1  18   39.10    4.30
  -2  -1  18   36.60    7.70
  -2   1  18   34.00    5.20
  -2   1  18   37.10    6.90
   2   1 -18   41.30    4.40
  -1  -1  18   -2.10    4.50
   1   1 -18   -0.70    1.50
  -1   1  18   -0.30    3.60
  -1   1  18   -0.80    2.20
   0  -1  18   14.80    5.90
   0   1  18   15.90    5.30
   1  -1  18   51.89    9.40
   1   1  18   54.29    7.50
   1   1  18   50.69    7.40
   2  -1  18    9.50    5.50
   2   1  18    0.20    3.40
   2   1  18    1.90    2.70
   3  -1  18  106.59   12.60
   3   1  18  103.79    7.80
   3   1  18   94.89   10.30
   4  -1  18   29.60    7.50
   4   1  18   34.80    6.60
   4   1  18   37.00    6.30
   5  -1  18   -3.90    4.50
   5   1  18   12.40    5.20
   6  -1  18   -0.60    4.90
   6   1  18    0.50    2.80
   7  -1  18    1.90    5.50
   7   1  18    7.40    3.80
   7   1  18   10.60    5.30
   8  -1  18   11.00    6.50
   8   1  18    1.40    3.30
   8   1  18    4.00    4.70
 -10  -2  18    1.50    5.50
 -10   2  18    2.70    3.80
 -10   2  18    5.30    2.80
  10   2 -18    8.00    4.80
  -9  -2  18    6.20    6.20
  -9   2  18    2.10    3.70
   9   2 -18   -0.30    3.50
  -9   2  18   -0.80    3.00
  -8   2  18    1.50    3.60
   8   2 -18    1.40    3.50
  -8   2  18    0.90    3.10
  -8   2  18    6.40    4.30
  -7  -2  18   36.80    8.40
   7   2 -18   44.20    6.40
  -7   2  18   27.80    5.80
  -7   2  18   42.70    6.20
  -7   2  18   30.90    6.50
  -6  -2  18    1.60    4.80
   6   2 -18    3.20    3.00
  -6   2  18    1.90    4.00
  -6   2  18    0.30    3.20
  -5  -2  18   31.00    8.00
  -5   2  18   39.00    7.20
   5   2 -18   28.60    4.40
   5   2 -18   21.10    4.20
  -5   2  18   32.10    7.60
  -4  -2  18    6.60    6.00
  -4   2  18    5.20    3.70
   4   2 -18    5.80    2.80
  -4   2  18    3.90    4.20
   4   2 -18    7.50    2.60
  -3  -2  18   24.30    7.50
   3   2 -18   20.60    3.00
   3   2 -18   20.10    3.00
  -3   2  18   14.80    4.70
  -3   2  18   22.30    5.60
  -2  -2  18   -0.20    5.00
  -2   2  18    1.60    3.30
  -2   2  18   -2.70    3.30
  -1  -2  18    5.10    5.20
  -1   2  18    1.10    3.30
  -1   2  18    2.80    3.80
   0  -2  18    2.30    5.10
   0   2  18    2.60    4.10
   0   2  18    2.00    3.50
   1  -2  18    5.60    5.70
   1   2  18    2.90    3.60
   1   2  18    2.70    4.10
   2  -2  18   -7.50    4.40
   2   2  18   -2.10    3.80
   2   2  18    1.90    3.70
   3   2  18    2.80    4.50
   3   2  18    8.50    4.10
   4  -2  18   13.40    6.60
   4   2  18    5.10    4.70
   4   2  18    8.00    4.10
   5  -2  18   -0.20    5.90
   5   2  18   -2.60    3.00
   6  -2  18    9.60    6.70
   6   2  18    3.10    3.80
   6   2  18    9.20    5.30
   7  -2  18   -1.00    5.50
   7   2  18    1.20    3.90
   7   2  18    2.20    4.70
  -6  -3  18   86.79   13.50
  -6   3  18  105.79   12.70
   6   3 -18   85.69    8.30
  -5  -3  18   31.50    9.30
   5   3 -18   25.50    4.50
  -5   3  18   19.50    4.90
  -5   3  18   15.60    5.40
  -4  -3  18   33.50    9.00
  -4   3  18   35.70    6.40
   4   3 -18   34.20    4.30
  -4   3  18   31.70    6.30
  -3  -3  18    5.90    6.40
  -3   3  18   10.50    5.50
  -3   3  18    3.40    3.70
  -2  -3  18   20.30    7.60
  -2   3  18   29.60    5.80
  -2   3  18   24.70    7.00
  -1  -3  18   28.70    8.60
  -1   3  18   26.60    5.90
   0  -3  18   20.80    7.60
   0   3  18   17.50    5.40
   1  -3  18   52.39   11.50
   1   3  18   64.79    8.80
   2  -3  18    4.40    6.80
   2   3  18   -5.90    3.60
 -11   0  19   26.00    6.50
 -11   0  19   30.00    7.10
 -10   0  19    2.60    4.40
 -10   0  19    0.10    3.70
  -9   0  19  101.99   11.90
  -9   0  19  102.09    9.20
  -8   0  19    0.50    4.10
  -8   0  19   -2.60    2.50
  -7   0  19    2.20    4.70
  -7   0  19   12.40    4.00
  -6   0  19    4.20    3.20
  -6   0  19    1.80    4.50
  -5   0  19  268.87   16.20
  -5   0  19  244.78   12.70
  -4   0  19   -0.40    2.50
  -4   0  19   -3.50    4.10
  -3   0  19   -0.30    2.40
  -3   0  19   -2.20    4.00
  -2   0  19    1.30    4.10
  -2   0  19   -0.10    2.20
   2   0 -19    1.00    3.00
  -1   0  19  484.95   22.60
   1   0 -19  446.06   22.40
  -1   0  19  392.36   16.90
   0   0 -19    1.50    2.70
   0   0  19   -0.80    2.00
   0   0  19    5.80    4.70
   1   0  19  239.88   10.60
   1   0  19  282.27   16.40
  -1   0 -19  237.28   11.40
   2   0  19    1.50    4.40
   2   0  19   -0.40    1.80
  -2   0 -19    3.60    2.50
  -3   0 -19    2.10    2.20
   3   0  19   -0.40    1.90
   3   0  19   -2.10    4.40
   4   0  19    1.70    4.70
   4   0  19   -3.80    1.60
   5   0  19   33.60    4.10
   5   0  19   28.50    3.30
   6   0  19   -3.20    4.30
   6   0  19    1.90    2.60
   6   0  19   -0.10    1.70
   7   0  19    3.70    5.60
   7   0  19   -1.60    1.90
   8   0  19   -0.50    2.00
   8   0  19   -1.20    5.50
 -10  -1  19   18.40    7.00
 -10  -1  19   14.70    4.70
 -10   1  19   17.20    5.50
  -9  -1  19    2.20    3.40
  -9  -1  19   -0.80    4.70
  -9   1  19    0.40    4.10
  -9   1  19   -0.70    3.30
  -8  -1  19    5.60    3.70
  -8  -1  19   10.10    5.70
  -8   1  19   10.30    4.90
  -8   1  19    6.50    3.80
  -7  -1  19   22.90    6.90
  -7  -1  19    8.00    4.10
  -7   1  19   21.80    5.80
  -7   1  19   10.80    4.50
  -6  -1  19   17.30    6.30
  -6  -1  19    9.40    4.00
  -6   1  19   17.20    5.30
  -6   1  19    7.50    3.50
  -5  -1  19   -1.10    4.10
  -5  -1  19    1.40    2.80
  -5   1  19    5.60    4.50
  -5   1  19    1.00    3.30
  -4  -1  19   31.10    5.00
  -4  -1  19   61.59   10.00
   4   1 -19   47.30    5.80
  -4   1  19   52.09    7.80
  -4   1  19   54.19    6.80
  -3  -1  19    2.90    2.60
  -3  -1  19    1.10    4.70
  -3   1  19    6.50    3.50
  -3   1  19   -2.40    3.80
   3   1 -19    3.50    2.90
  -2  -1  19    4.00    5.10
  -2  -1  19    2.90    2.30
   2   1 -19    1.40    2.20
  -2   1  19    2.00    2.90
  -2   1  19    6.70    5.00
  -1  -1  19   40.90    8.60
  -1   1  19   48.70    5.80
  -1   1  19   29.30    6.10
   0  -1  19    1.90    4.60
   0   1  19   -0.30    3.70
   0   1  19    2.20    2.70
   1  -1  19    5.90    5.10
   1   1  19    5.10    4.40
   1   1  19    6.90    3.10
   2  -1  19   39.60    8.00
   2   1  19   44.80    7.50
   2   1  19   41.10    6.20
   3  -1  19   64.49    9.90
   3   1  19   66.29    9.50
   4   1  19  183.58   11.80
   4   1  19  166.88   13.20
   5  -1  19   -1.70    4.80
   5   1  19    1.50    5.00
   5   1  19    2.40    3.20
   6  -1  19    9.90    5.60
   6   1  19   10.60    4.10
   6   1  19    9.70    5.90
   7  -1  19   -1.20    5.30
   7   1  19    2.90    3.40
   7   1  19    3.20    5.10
  -8  -2  19    3.50    5.70
   8   2 -19   13.40    4.30
  -8   2  19   13.60    4.30
  -8   2  19   14.40    4.90
  -7  -2  19   15.70    6.70
   7   2 -19   24.60    5.00
  -7   2  19   27.20    6.90
  -7   2  19   21.50    5.30
  -6  -2  19    3.30    5.60
  -6   2  19    4.80    3.70
  -6   2  19    3.90    4.30
   6   2 -19   -0.90    2.70
  -5  -2  19    8.90    7.10
   5   2 -19    9.70    3.40
   5   2 -19    7.90    3.60
  -5   2  19   12.70    5.40
  -5   2  19   15.40    5.30
  -4   2  19   53.79    7.00
  -4   2  19   46.90    7.10
   4   2 -19   51.79    5.00
   4   2 -19   38.10    4.70
   3   2 -19   10.20    2.40
  -3   2  19    5.00    4.40
  -3   2  19    5.40    3.80
  -2   2  19   13.10    5.00
  -2   2  19   12.10    4.80
  -1   2  19    0.90    3.70
  -1   2  19    4.90    3.50
   0  -2  19   -5.20    5.40
   0   2  19   -4.10    3.20
   0   2  19   -1.00    2.70
   1  -2  19   -1.20    4.90
   1   2  19   -4.20    3.40
   1   2  19   -0.10    3.30
   2  -2  19   -3.70    5.40
   2   2  19    0.30    3.10
   2   2  19    0.80    4.10
   3  -2  19   19.00    8.10
   3   2  19   21.40    5.90
   3   2  19   31.90    6.60
   4  -2  19   16.20    7.50
   4   2  19   16.30    5.10
   4   2  19   12.80    7.00
   5  -2  19    2.30    5.30
   5   2  19    4.10    5.10
   5   2  19    5.30    4.30
 -10   0  20    2.80    3.60
 -10   0  20    4.50    5.00
  -9   0  20   -3.30    2.80
  -9   0  20    3.20    4.70
  -8   0  20    1.10    4.30
  -8   0  20    0.60    3.20
  -7   0  20    0.70    2.90
  -7   0  20    1.20    4.50
  -6   0  20   23.90    4.70
  -6   0  20   46.50    8.80
  -5   0  20   -0.70    4.10
  -5   0  20    1.00    2.50
  -4   0  20  122.59   12.40
  -4   0  20   99.79    7.50
  -3   0  20   -0.30    4.70
  -3   0  20    4.90    2.60
  -2   0  20   49.60    8.90
   2   0 -20   23.50    5.00
  -2   0  20   24.30    4.00
   1   0 -20   -1.40    3.00
  -1   0  20    2.50    2.40
  -1   0  20   -4.60    3.80
   0   0 -20    0.50    2.90
   0   0  20   -1.00    2.00
   0   0  20    2.90    4.80
   1   0  20    0.40    1.90
   1   0  20   -1.90    4.30
  -1   0 -20    0.00    2.70
   2   0  20    4.20    5.00
  -2   0 -20   -0.80    2.40
   2   0  20    1.50    2.00
   3   0  20    3.70    6.10
   3   0  20   -2.20    1.70
  -3   0 -20   -0.30    2.20
   4   0  20    0.00    4.60
   4   0  20    1.10    1.80
   5   0  20   -5.10    4.50
   5   0  20    3.20    2.60
   5   0  20    0.80    1.90
   6   0  20    3.80    2.20
   6   0  20   -0.80    5.70
  -9  -1  20    4.60    3.80
  -9  -1  20   -1.30    4.80
  -9   1  20    1.30    3.80
  -9   1  20    1.10    4.30
  -8  -1  20    0.70    3.20
  -8  -1  20    7.00    5.20
  -8   1  20    0.60    3.60
  -8   1  20   -1.20    3.90
  -7  -1  20   13.20    6.30
  -7  -1  20   20.60    4.90
  -7   1  20   18.40    5.90
  -7   1  20   26.70    5.50
  -6  -1  20   29.90    7.90
  -6  -1  20   27.30    5.40
  -6   1  20   35.30    6.30
  -6   1  20   27.00    6.50
  -5  -1  20   38.70    8.20
  -5  -1  20   34.90    5.30
  -5   1  20   46.60    8.40
  -5   1  20   38.50    5.70
  -4  -1  20   23.10    4.40
  -4  -1  20   17.80    7.10
  -4   1  20   23.30    4.90
  -4   1  20   17.50    6.10
   4   1 -20   18.40    4.40
  -3  -1  20   55.49    9.60
  -3  -1  20   68.59    5.90
  -3   1  20   66.59    9.20
  -3   1  20   68.79    7.50
   3   1 -20   77.09    6.90
  -2  -1  20   -1.50    4.60
  -2   1  20   -2.80    2.50
  -2   1  20    1.60    4.20
   2   1 -20    0.90    2.20
  -1  -1  20   53.59    9.10
  -1   1  20   39.30    5.60
  -1   1  20   40.10    7.50
   0  -1  20    0.30    5.30
   0   1  20    0.20    2.70
   0   1  20   11.10    5.30
   1  -1  20   69.19   12.30
   1   1  20   76.29    6.80
   1   1  20   65.69    9.00
   2  -1  20   -2.30    5.50
   2   1  20    1.40    2.90
   2   1  20    3.00    4.30
   3  -1  20   46.40    8.70
   3   1  20   39.50    5.60
   3   1  20   53.99    9.50
   4  -1  20   53.39    9.80
   4   1  20   27.50    4.70
   4   1  20   33.80    7.90
   5  -1  20   -5.00    4.90
   5   1  20    5.30    5.40
   5   1  20    2.20    3.10
   6  -1  20    9.20    6.10
   6   1  20   14.20    6.60
   6   1  20    9.40    3.90
  -7  -2  20   -2.30    4.80
  -7   2  20   -2.60    4.20
  -7   2  20    0.40    4.00
   7   2 -20   -0.10    3.20
  -6  -2  20   15.80    7.10
   6   2 -20   15.50    4.10
  -6   2  20    9.10    6.30
  -6   2  20   15.90    5.50
  -5  -2  20    6.40    5.90
  -5   2  20    4.60    4.40
   5   2 -20    7.40    3.20
  -5   2  20    7.80    4.90
  -4  -2  20   34.00    9.30
  -4   2  20   13.70    5.30
  -4   2  20   17.50    5.00
   4   2 -20   10.10    2.90
   4   2 -20    7.60    3.00
  -3  -2  20   -2.00    5.80
  -3   2  20   -2.40    4.10
  -3   2  20   -2.30    3.00
  -2  -2  20   37.40    9.10
  -2   2  20   26.80    5.70
  -2   2  20   35.20    6.80
  -1  -2  20    8.40    6.20
  -1   2  20    1.00    4.40
  -1   2  20   -1.00    3.10
   0  -2  20    8.90    6.10
   0   2  20   12.30    5.80
   0   2  20    7.10    3.90
   1  -2  20   13.00    6.70
   1   2  20   -1.00    4.10
   1   2  20    6.20    4.30
   2  -2  20   30.00    8.50
   2   2  20   39.10    6.80
   2   2  20   25.80    6.30
   3  -2  20   11.80    6.80
   3   2  20    5.90    4.00
   3   2  20    2.60    4.80
  -8   0  21   -1.80    2.80
  -8   0  21    3.80    4.60
  -7   0  21   -0.60    4.60
  -7   0  21    3.70    3.30
  -6   0  21    1.00    3.10
  -6   0  21   -2.80    4.30
  -5   0  21   -5.60    4.10
  -5   0  21    1.60    3.00
  -4   0  21   -0.50    2.60
  -4   0  21    2.50    4.90
  -3   0  21   10.40    6.00
  -3   0  21    4.80    3.80
  -2   0  21   -1.40    4.40
   2   0 -21    0.10    4.40
  -2   0  21   -0.80    2.20
   1   0 -21    6.00    3.70
  -1   0  21    4.20    2.70
  -1   0  21   11.40    5.70
   0   0  21   -1.40    2.20
   0   0 -21   -0.50    3.20
   0   0  21    1.00    4.70
   1   0  21  130.89    7.10
  -1   0 -21  121.39    7.70
   1   0  21  140.99   20.40
   2   0  21    1.00    4.70
   2   0  21   -0.20    1.90
  -2   0 -21    0.10    2.40
   3   0  21    6.30    5.70
   3   0  21    1.30    1.90
   4   0  21    3.60    5.70
   4   0  21   -0.50    1.90
   5   0  21    0.90    5.20
  -7  -1  21    4.40    3.50
  -7   1  21    6.50    3.80
  -7   1  21    1.40    4.20
  -6  -1  21   10.90    4.00
  -6   1  21    8.60    5.20
  -6   1  21   13.10    4.80
  -5  -1  21    3.40   10.00
  -5  -1  21    9.20    3.90
  -5   1  21    5.90    3.30
  -5   1  21    0.10    5.10
  -4  -1  21   10.20   10.60
  -4  -1  21    5.20    3.00
  -4   1  21    8.70    5.40
   4   1 -21    5.80    3.80
  -4   1  21    6.50    3.60
  -3  -1  21    1.80    2.70
  -3   1  21    0.60    4.60
   3   1 -21    3.00    3.00
  -3   1  21    2.60    3.20
  -2  -1  21    9.20    7.60
  -2   1  21   27.70    7.30
   2   1 -21   17.40    3.30
  -2   1  21   15.50    4.10
  -1  -1  21   -4.50    5.60
  -1   1  21   -2.50    2.60
  -1   1  21    4.20    4.60
   0  -1  21    0.90    5.00
   0   1  21   -0.70    2.70
   0   1  21    3.60    4.80
   1  -1  21   49.90    8.90
   1   1  21   89.69   11.10
   1   1  21   63.49    6.80
   2  -1  21   67.99   11.40
   2   1  21   40.70    9.50
   2   1  21   38.80    5.40
   3  -1  21   11.10    6.30
   3   1  21    7.20    3.30
   3   1  21    9.70    5.90
   4  -1  21    8.30    6.60
   4   1  21    3.90    5.10
   4   1  21    0.40    2.90
  -4  -2  21    3.20    6.10
  -4   2  21    7.60    4.00
   4   2 -21    5.00    2.40
  -4   2  21   11.20    5.20
  -3  -2  21   96.09   13.20
  -3   2  21   95.39   10.90
  -3   2  21  104.49    9.40
  -2  -2  21   11.90    7.00
  -2   2  21   13.40    5.70
  -2   2  21   19.60    4.90
  -1  -2  21    5.60    6.10
  -1   2  21   12.90    5.70
  -1   2  21   11.60    4.50
   0  -2  21   -0.90    5.50
   0   2  21    3.00    4.80
   0   2  21    5.60    4.00
  -6   0  22   -1.10    2.80
  -6   0  22    3.50    5.50
  -5   0  22    2.10    3.10
  -5   0  22   -0.10    5.00
  -4   0  22    4.40    3.10
  -4   0  22    5.00    5.50
  -3   0  22   -3.60    5.10
  -3   0  22    1.60    3.00
  -2   0  22   16.20    3.70
  -2   0  22    8.60   10.80
  -1   0  22    2.10    2.70
  -1   0  22   -5.10    5.60
   0   0  22    1.50    2.40
   0   0  22    1.10    4.90
   1   0  22   -7.00    4.70
   1   0  22    1.30    2.30
   2   0  22    0.90    2.10
   2   0  22    3.50    5.60
  -5  -1  22   14.70    6.60
  -5  -1  22    2.00    3.40
  -5   1  22    6.60    5.50
  -5   1  22    6.80    3.70
  -4  -1  22    9.40    3.70
  -4  -1  22   20.10    7.50
  -4   1  22   14.20    6.30
  -4   1  22    9.20    4.10
  -3  -1  22   27.80    7.80
  -3   1  22   30.20    7.40
  -3   1  22   27.70    5.10
  -2  -1  22   28.20    7.90
  -2   1  22   26.20    7.40
   2   1 -22   28.80    4.60
  -2   1  22   22.80    4.80
  -1  -1  22    7.90    6.10
  -1   1  22    2.20    3.30
  -1   1  22   -0.90    4.70
   0  -1  22   -3.10    5.30
   0   1  22    0.80    5.40
   0   1  22   -1.10    3.00
   1  -1  22   48.60    9.60
   1   1  22   41.90    8.80
   1   1  22   39.70    5.70
   0   0   0    0.00    0.00

_computing_structure_solution     'SHELXT 2018/2 (Sheldrick, 2018)'
;
_shelx_hkl_checksum   89745

