 
data_VVM-94_auto_a
 
_audit_creation_method            'SHELXL-2019/3'
_shelx_SHELXL_version_number      '2019/3'
_chemical_name_systematic         ?
_chemical_name_common             ?
_chemical_melting_point           ?
_chemical_formula_moiety          ?
_chemical_formula_sum
 'C H Cd N O S' 
_chemical_formula_weight          187.49

loop_
 _atom_type_symbol
 _atom_type_description
 _atom_type_scat_dispersion_real
 _atom_type_scat_dispersion_imag
 _atom_type_scat_source
 'C'  'C'   0.0033   0.0016
 'International Tables Vol C Tables 4.2.6.8 and 6.1.1.4'
 'H'  'H'   0.0000   0.0000
 'International Tables Vol C Tables 4.2.6.8 and 6.1.1.4'
 'N'  'N'   0.0061   0.0033
 'International Tables Vol C Tables 4.2.6.8 and 6.1.1.4'
 'O'  'O'   0.0106   0.0060
 'International Tables Vol C Tables 4.2.6.8 and 6.1.1.4'
 'S'  'S'   0.1246   0.1234
 'International Tables Vol C Tables 4.2.6.8 and 6.1.1.4'
 'Cd'  'Cd'  -0.8075   1.2024
 'International Tables Vol C Tables 4.2.6.8 and 6.1.1.4'
 
_space_group_crystal_system       triclinic
_space_group_IT_number            2
_space_group_name_H-M_alt         'P -1'
_space_group_name_Hall            '-P 1'
 
_shelx_space_group_comment
;
The symmetry employed for this shelxl refinement is uniquely defined
by the following loop, which should always be used as a source of
symmetry information in preference to the above space-group names.
They are only intended as comments.
;
 
loop_
 _space_group_symop_operation_xyz
 'x, y, z'
 '-x, -y, -z'
 
_cell_length_a                    10.1643(3)
_cell_length_b                    10.2748(3)
_cell_length_c                    13.6052(2)
_cell_angle_alpha                 83.719(2)
_cell_angle_beta                  87.036(2)
_cell_angle_gamma                 61.788(3)
_cell_volume                      1244.57(6)
_cell_formula_units_Z             14
_cell_measurement_temperature     292(2)
_cell_measurement_reflns_used     ?
_cell_measurement_theta_min       ?
_cell_measurement_theta_max       ?
 
_exptl_crystal_description        ?
_exptl_crystal_colour             ?
_exptl_crystal_density_meas       ?
_exptl_crystal_density_method     ?
_exptl_crystal_density_diffrn     3.502          
_exptl_crystal_F_000              1204
_exptl_transmission_factor_min    ?
_exptl_transmission_factor_max    ?
_exptl_crystal_size_max           ?
_exptl_crystal_size_mid           ?
_exptl_crystal_size_min           ?
_exptl_absorpt_coefficient_mu     6.498
_shelx_estimated_absorpt_T_min    ?
_shelx_estimated_absorpt_T_max    ?
_exptl_absorpt_correction_type    ?
_exptl_absorpt_correction_T_min   ?
_exptl_absorpt_correction_T_max   ?
_exptl_absorpt_process_details    ?
_exptl_absorpt_special_details    ?
_diffrn_ambient_temperature       292(2)
_diffrn_radiation_wavelength      0.71073
_diffrn_radiation_type            MoK\a
_diffrn_source                    ?
_diffrn_measurement_device_type   ?
_diffrn_measurement_method        ?
_diffrn_detector_area_resol_mean  ?
_diffrn_reflns_number             20784
_diffrn_reflns_av_unetI/netI      0.0351
_diffrn_reflns_av_R_equivalents   0.0364
_diffrn_reflns_limit_h_min        -13
_diffrn_reflns_limit_h_max        13
_diffrn_reflns_limit_k_min        -13
_diffrn_reflns_limit_k_max        13
_diffrn_reflns_limit_l_min        -18
_diffrn_reflns_limit_l_max        18
_diffrn_reflns_theta_min          2.260
_diffrn_reflns_theta_max          29.125
_diffrn_reflns_theta_full         25.242
_diffrn_measured_fraction_theta_max   0.865
_diffrn_measured_fraction_theta_full  1.000
_diffrn_reflns_Laue_measured_fraction_max    0.865
_diffrn_reflns_Laue_measured_fraction_full   1.000
_diffrn_reflns_point_group_measured_fraction_max   0.865
_diffrn_reflns_point_group_measured_fraction_full  1.000
_reflns_number_total              5786
_reflns_number_gt                 5172
_reflns_threshold_expression      'I > 2\s(I)'
_reflns_Friedel_coverage          0.000
_reflns_Friedel_fraction_max      .
_reflns_Friedel_fraction_full     .
 
_reflns_special_details
;
 Reflections were merged by SHELXL according to the crystal
 class for the calculation of statistics and refinement.
 
 _reflns_Friedel_fraction is defined as the number of unique
 Friedel pairs measured divided by the number that would be
 possible theoretically, ignoring centric projections and
 systematic absences.
;
 
_computing_data_collection        ?
_computing_cell_refinement        ?
_computing_data_reduction         ?
_computing_structure_solution     'SHELXT 2018/2 (Sheldrick, 2018)'
_computing_structure_refinement 'SHELXL-2019/2 (Sheldrick, 2019)'
_computing_molecular_graphics     ?
_computing_publication_material   ?
_refine_special_details           ?
_refine_ls_structure_factor_coef  Fsqd
_refine_ls_matrix_type            full
_refine_ls_weighting_scheme       calc
_refine_ls_weighting_details
'w=1/[\s^2^(Fo^2^)+(0.0320P)^2^+0.5791P] where P=(Fo^2^+2Fc^2^)/3'
_atom_sites_solution_primary      ?
_atom_sites_solution_secondary    ?
_atom_sites_solution_hydrogens    mixed
_refine_ls_hydrogen_treatment     mixed
_refine_ls_extinction_method      none
_refine_ls_extinction_coef        .
_refine_ls_number_reflns          5786
_refine_ls_number_parameters      357
_refine_ls_number_restraints      0
_refine_ls_R_factor_all           0.0349
_refine_ls_R_factor_gt            0.0293
_refine_ls_wR_factor_ref          0.0705
_refine_ls_wR_factor_gt           0.0674
_refine_ls_goodness_of_fit_ref    1.032
_refine_ls_restrained_S_all       1.032
_refine_ls_shift/su_max           0.094
_refine_ls_shift/su_mean          0.002
 
loop_
 _atom_site_label
 _atom_site_type_symbol
 _atom_site_fract_x
 _atom_site_fract_y
 _atom_site_fract_z
 _atom_site_U_iso_or_equiv
 _atom_site_adp_type
 _atom_site_occupancy
 _atom_site_site_symmetry_order  
 _atom_site_calc_flag
 _atom_site_refinement_flags_posn
 _atom_site_refinement_flags_adp
 _atom_site_refinement_flags_occupancy
 _atom_site_disorder_assembly
 _atom_site_disorder_group
Cd Cd 0.07117(2) 0.69418(2) 0.58832(2) 0.02519(6) Uani 1 1 d . . . . .
S002 S 0.56689(7) 0.18789(6) 0.60375(5) 0.03832(15) Uani 1 1 d . . . . .
O1 O 0.4812(4) 0.6278(4) 0.6609(4) 0.1138(13) Uani 1 1 d . . . . .
H2 H 0.520(9) 0.588(10) 0.589(5) 0.171 Uiso 1 1 d . U . . .
O003 O 0.80982(18) -0.24198(17) 0.60562(12) 0.0345(4) Uani 1 1 d . . . . .
O004 O 0.86304(18) -0.05772(18) 0.56930(13) 0.0369(4) Uani 1 1 d . . . . .
O005 O 0.1941(2) 0.8398(2) 0.59184(15) 0.0423(5) Uani 1 1 d . . . . .
H1 H 0.269(4) 0.796(4) 0.601(3) 0.063 Uiso 1 1 d . U . . .
H1A H 0.187(4) 0.898(4) 0.541(3) 0.063 Uiso 1 1 d . U . . .
N006 N 0.0945(2) 0.6932(2) 0.42005(13) 0.0308(4) Uani 1 1 d . . . . .
N7 N 0.3208(4) 0.8168(4) 0.9573(4) 0.1083(15) Uani 1 1 d . . . . .
O007 O 0.1362(2) 0.4346(2) 0.62557(16) 0.0528(5) Uani 1 1 d . . . . .
O008 O 0.3186(2) 0.4898(2) 0.60239(17) 0.0551(5) Uani 1 1 d . . . . .
N1 N 0.3556(3) 0.1775(2) 0.10268(16) 0.0475(6) Uani 1 1 d . . . . .
N009 N 0.0901(2) 0.6373(2) -0.08267(13) 0.0318(4) Uani 1 1 d . . . . .
N00A N 0.1289(2) 0.6262(2) 0.27144(13) 0.0282(4) Uani 1 1 d . . . . .
N00C N 0.0578(2) 0.7045(2) -0.24022(13) 0.0362(5) Uani 1 1 d . . . . .
C00F C 0.7718(3) -0.1064(2) 0.59401(16) 0.0283(5) Uani 1 1 d . . . . .
C00G C 0.1398(3) 0.5795(3) 0.36788(15) 0.0304(5) Uani 1 1 d . . . . .
H00G H 0.174115 0.481387 0.393901 0.036 Uiso 1 1 calc R U . . .
C00H C 0.1100(3) 0.6251(3) 0.09440(15) 0.0297(5) Uani 1 1 d . . . . .
H00H H 0.051899 0.727614 0.091191 0.036 Uiso 1 1 calc R U . . .
C00I C 0.1412(3) 0.5564(2) 0.01060(15) 0.0286(5) Uani 1 1 d . . . . .
C00J C 0.1656(3) 0.5417(2) 0.18857(15) 0.0272(5) Uani 1 1 d . . . . .
C00K C 0.2710(3) 0.3967(3) 0.61699(17) 0.0348(5) Uani 1 1 d . . . . .
C00L C 0.6142(3) 0.0031(2) 0.61138(17) 0.0310(5) Uani 1 1 d . . . . .
C00M C 0.4927(3) -0.0187(3) 0.62884(19) 0.0385(6) Uani 1 1 d . . . . .
H00M H 0.496814 -0.111663 0.636000 0.046 Uiso 1 1 calc R U . . .
C00O C 0.2276(3) 0.3995(3) 0.01816(16) 0.0312(5) Uani 1 1 d . . . . .
C00P C 0.3821(3) 0.2366(3) 0.62247(18) 0.0341(5) Uani 1 1 d . . . . .
C00R C 0.2485(3) 0.3933(3) 0.20059(16) 0.0327(5) Uani 1 1 d . . . . .
H00R H 0.283532 0.341976 0.262216 0.039 Uiso 1 1 calc R U . . .
C00S C 0.2791(3) 0.3200(3) 0.11302(16) 0.0330(5) Uani 1 1 d . . . . .
C00T C 0.1236(3) 0.5913(3) -0.17336(16) 0.0366(6) Uani 1 1 d . . . . .
H00T H 0.184485 0.493697 -0.186957 0.044 Uiso 1 1 calc R U . . .
C00U C 0.0552(3) 0.8108(3) 0.35067(17) 0.0411(6) Uani 1 1 d . . . . .
H00U H 0.018129 0.907667 0.366737 0.049 Uiso 1 1 calc R U . . .
C00V C 0.3597(3) 0.1158(3) 0.6348(2) 0.0428(6) Uani 1 1 d . . . . .
H00V H 0.266347 0.121030 0.646115 0.051 Uiso 1 1 calc R U . . .
N2 N 0.2731(3) 0.3043(2) -0.04953(15) 0.0454(5) Uani 1 1 d . . . . .
N5 N 0.0737(3) 0.7766(2) 0.25942(14) 0.0423(5) Uani 1 1 d . . . . .
N6 N -0.0008(3) 0.7865(2) -0.08960(15) 0.0486(6) Uani 1 1 d . . . . .
C00X C -0.0160(3) 0.8200(3) -0.18548(18) 0.0469(7) Uani 1 1 d . . . . .
H00X H -0.073609 0.916448 -0.213783 0.056 Uiso 1 1 calc R U . . .
O00Y O 0.4213(4) 0.6159(5) 0.8723(3) 0.1157(13) Uani 1 1 d . . . . .
O3 O 0.3516(3) 0.1683(2) 0.00272(13) 0.0547(5) Uani 1 1 d . . . . .
C00Z C 0.2993(8) 0.8575(8) 1.0577(6) 0.167(3) Uani 1 1 d . . . . .
H00A H 0.341762 0.921879 1.064786 0.251 Uiso 1 1 calc R U . . .
H00B H 0.347492 0.769623 1.102740 0.251 Uiso 1 1 calc R U . . .
H00C H 0.194478 0.907833 1.072211 0.251 Uiso 1 1 calc R U . . .
C4 C 0.3945(5) 0.6710(6) 0.9467(5) 0.1084(18) Uani 1 1 d . . . . .
H4 H 0.427554 0.607182 1.004429 0.130 Uiso 1 1 calc R U . . .
C011 C 0.2624(7) 0.9323(7) 0.8784(5) 0.142(2) Uani 1 1 d . . . . .
H01A H 0.318330 0.986301 0.873244 0.213 Uiso 1 1 calc R U . . .
H01B H 0.159518 0.998435 0.891428 0.213 Uiso 1 1 calc R U . . .
H01C H 0.269962 0.889985 0.817558 0.213 Uiso 1 1 calc R U . . .
H3 H 0.500(10) 0.547(10) 0.628(7) 0.213 Uiso 1 1 d . U . . .
 
loop_
 _atom_site_aniso_label
 _atom_site_aniso_U_11
 _atom_site_aniso_U_22
 _atom_site_aniso_U_33
 _atom_site_aniso_U_23
 _atom_site_aniso_U_13
 _atom_site_aniso_U_12
Cd01 0.02436(9) 0.02217(9) 0.01893(9) -0.00144(6) 0.00082(6) -0.00287(7)
S002 0.0259(3) 0.0223(3) 0.0580(4) -0.0046(3) 0.0039(3) -0.0044(2)
O1 0.082(2) 0.090(2) 0.176(4) 0.027(2) -0.061(2) -0.0487(19)
O003 0.0303(9) 0.0216(8) 0.0399(9) 0.0013(7) 0.0006(7) -0.0035(7)
O004 0.0254(8) 0.0266(8) 0.0507(10) -0.0012(7) 0.0031(7) -0.0064(7)
O005 0.0409(11) 0.0376(11) 0.0467(11) 0.0033(8) -0.0026(9) -0.0184(9)
N006 0.0370(11) 0.0304(10) 0.0217(9) -0.0038(7) 0.0007(8) -0.0129(9)
N7 0.061(2) 0.0432(19) 0.218(5) -0.019(3) 0.025(3) -0.0227(16)
O007 0.0247(9) 0.0335(10) 0.0841(15) -0.0098(9) 0.0005(9) 0.0001(8)
O008 0.0368(11) 0.0274(10) 0.0875(16) -0.0016(9) -0.0020(10) -0.0048(8)
N1 0.0638(16) 0.0327(12) 0.0354(12) -0.0050(9) -0.0037(11) -0.0132(11)
N009 0.0380(11) 0.0330(11) 0.0191(9) -0.0017(8) -0.0004(8) -0.0125(9)
N00A 0.0363(11) 0.0275(10) 0.0184(8) -0.0015(7) -0.0007(8) -0.0132(8)
N00C 0.0433(12) 0.0409(12) 0.0198(9) -0.0009(8) -0.0015(8) -0.0164(10)
C00F 0.0263(11) 0.0231(11) 0.0264(11) -0.0006(9) -0.0015(9) -0.0045(9)
C00G 0.0383(13) 0.0308(12) 0.0205(10) -0.0014(9) -0.0004(9) -0.0152(10)
C00H 0.0331(12) 0.0278(12) 0.0224(10) -0.0009(8) -0.0005(9) -0.0099(10)
C00I 0.0326(12) 0.0313(12) 0.0201(10) -0.0003(9) -0.0016(9) -0.0139(10)
C00J 0.0311(12) 0.0333(12) 0.0186(10) -0.0035(8) 0.0021(9) -0.0162(10)
C00K 0.0280(12) 0.0289(12) 0.0330(12) -0.0060(10) -0.0015(10) -0.0008(10)
C00L 0.0258(11) 0.0229(11) 0.0343(12) -0.0019(9) 0.0006(9) -0.0035(9)
C00M 0.0314(13) 0.0260(12) 0.0513(15) -0.0004(11) 0.0002(11) -0.0087(10)
C00O 0.0348(13) 0.0343(13) 0.0250(11) -0.0062(9) 0.0013(9) -0.0160(10)
C00P 0.0268(12) 0.0269(12) 0.0365(13) -0.0030(10) 0.0006(10) -0.0029(10)
C00R 0.0387(13) 0.0312(12) 0.0218(11) 0.0002(9) -0.0038(9) -0.0116(10)
C00S 0.0378(13) 0.0304(12) 0.0285(11) -0.0014(9) -0.0017(10) -0.0144(10)
C00T 0.0453(15) 0.0383(14) 0.0204(11) -0.0034(9) 0.0016(10) -0.0151(12)
C00U 0.0623(18) 0.0292(13) 0.0284(12) -0.0042(10) 0.0028(12) -0.0188(12)
C00V 0.0242(12) 0.0350(14) 0.0605(17) -0.0027(12) 0.0022(11) -0.0075(11)
N2 0.0597(15) 0.0350(12) 0.0329(11) -0.0079(9) -0.0016(10) -0.0142(11)
N5 0.0684(16) 0.0274(11) 0.0248(10) -0.0024(8) 0.0007(10) -0.0176(11)
N6 0.0648(16) 0.0357(12) 0.0247(10) -0.0010(9) -0.0022(10) -0.0069(11)
C00X 0.0609(18) 0.0374(14) 0.0258(12) 0.0025(10) -0.0028(12) -0.0104(13)
O00Y 0.115(3) 0.149(3) 0.105(3) -0.059(2) 0.025(2) -0.073(3)
O3 0.0777(15) 0.0337(10) 0.0398(10) -0.0124(8) -0.0008(10) -0.0138(10)
C00Z 0.174(7) 0.130(6) 0.216(8) -0.041(5) 0.080(6) -0.089(5)
C4 0.065(3) 0.097(4) 0.159(5) 0.022(4) 0.000(3) -0.042(3)
C011 0.132(5) 0.114(5) 0.189(7) 0.023(4) -0.049(5) -0.068(4)
 
_geom_special_details
;
 All esds (except the esd in the dihedral angle between two l.s. planes)
 are estimated using the full covariance matrix.  The cell esds are taken
 into account individually in the estimation of esds in distances, angles
 and torsion angles; correlations between esds in cell parameters are only
 used when they are defined by crystal symmetry.  An approximate (isotropic)
 treatment of cell esds is used for estimating esds involving l.s. planes.
;
 
loop_
 _geom_bond_atom_site_label_1
 _geom_bond_atom_site_label_2
 _geom_bond_distance
 _geom_bond_site_symmetry_2
 _geom_bond_publ_flag
Cd01 N006 2.2900(17) . ?
Cd01 N00C 2.3407(18) 1_556 ?
Cd01 O005 2.366(2) . ?
Cd01 O008 2.3958(19) . ?
Cd01 O004 2.4195(16) 1_465 ?
Cd01 O003 2.4215(17) 1_465 ?
Cd01 O007 2.4245(19) . ?
Cd01 C00K 2.752(2) . ?
Cd01 C00F 2.753(2) 1_465 ?
S002 C00P 1.713(2) . ?
S002 C00L 1.717(2) . ?
O003 C00F 1.251(3) . ?
O004 C00F 1.262(3) . ?
N006 C00G 1.311(3) . ?
N006 C00U 1.358(3) . ?
N7 C4 1.342(6) . ?
N7 C011 1.426(7) . ?
N7 C00Z 1.448(8) . ?
O007 C00K 1.238(3) . ?
O008 C00K 1.254(3) . ?
N1 C00S 1.313(3) . ?
N1 O3 1.377(3) . ?
N009 C00T 1.339(3) . ?
N009 N6 1.360(3) . ?
N009 C00I 1.414(3) . ?
N00A C00G 1.338(3) . ?
N00A N5 1.365(3) . ?
N00A C00J 1.425(3) . ?
N00C C00T 1.313(3) . ?
N00C C00X 1.349(3) . ?
C00F C00L 1.484(3) . ?
C00H C00I 1.351(3) . ?
C00H C00J 1.440(3) . ?
C00I C00O 1.420(3) . ?
C00J C00R 1.343(3) . ?
C00K C00P 1.488(3) . ?
C00L C00M 1.361(3) . ?
C00M C00V 1.411(3) . ?
C00O N2 1.320(3) . ?
C00O C00S 1.429(3) . ?
C00P C00V 1.356(4) . ?
C00R C00S 1.422(3) . ?
C00U N5 1.307(3) . ?
N2 O3 1.372(3) . ?
N6 C00X 1.310(3) . ?
O00Y C4 1.171(6) . ?
 
loop_
 _geom_angle_atom_site_label_1
 _geom_angle_atom_site_label_2
 _geom_angle_atom_site_label_3
 _geom_angle
 _geom_angle_site_symmetry_1
 _geom_angle_site_symmetry_3
 _geom_angle_publ_flag
N006 Cd01 N00C 175.79(7) . 1_556 ?
N006 Cd01 O005 92.01(7) . . ?
N00C Cd01 O005 83.79(7) 1_556 . ?
N006 Cd01 O008 88.31(7) . . ?
N00C Cd01 O008 90.91(8) 1_556 . ?
O005 Cd01 O008 84.06(7) . . ?
N006 Cd01 O004 90.31(6) . 1_465 ?
N00C Cd01 O004 89.21(7) 1_556 1_465 ?
O005 Cd01 O004 78.74(6) . 1_465 ?
O008 Cd01 O004 162.69(7) . 1_465 ?
N006 Cd01 O003 99.71(6) . 1_465 ?
N00C Cd01 O003 83.38(7) 1_556 1_465 ?
O005 Cd01 O003 131.14(6) . 1_465 ?
O008 Cd01 O003 142.97(6) . 1_465 ?
O004 Cd01 O003 54.16(5) 1_465 1_465 ?
N006 Cd01 O007 97.06(7) . . ?
N00C Cd01 O007 85.79(7) 1_556 . ?
O005 Cd01 O007 136.30(7) . . ?
O008 Cd01 O007 53.77(7) . . ?
O004 Cd01 O007 143.43(6) 1_465 . ?
O003 Cd01 O007 89.27(6) 1_465 . ?
N006 Cd01 C00K 91.84(7) . . ?
N00C Cd01 C00K 89.33(7) 1_556 . ?
O005 Cd01 C00K 110.76(7) . . ?
O008 Cd01 C00K 27.09(7) . . ?
O004 Cd01 C00K 170.16(7) 1_465 . ?
O003 Cd01 C00K 116.00(7) 1_465 . ?
O007 Cd01 C00K 26.73(7) . . ?
N006 Cd01 C00F 97.54(7) . 1_465 ?
N00C Cd01 C00F 83.91(7) 1_556 1_465 ?
O005 Cd01 C00F 104.72(7) . 1_465 ?
O008 Cd01 C00F 169.19(7) . 1_465 ?
O004 Cd01 C00F 27.28(6) 1_465 1_465 ?
O003 Cd01 C00F 27.01(6) 1_465 1_465 ?
O007 Cd01 C00F 116.18(7) . 1_465 ?
C00K Cd01 C00F 142.89(8) . 1_465 ?
C00P S002 C00L 91.52(11) . . ?
C00F O003 Cd01 91.43(14) . 1_645 ?
C00F O004 Cd01 91.24(13) . 1_645 ?
C00G N006 C00U 103.75(18) . . ?
C00G N006 Cd01 127.86(15) . . ?
C00U N006 Cd01 128.25(15) . . ?
C4 N7 C011 125.4(6) . . ?
C4 N7 C00Z 116.2(6) . . ?
C011 N7 C00Z 118.4(5) . . ?
C00K O007 Cd01 91.54(16) . . ?
C00K O008 Cd01 92.48(15) . . ?
C00S N1 O3 104.61(19) . . ?
C00T N009 N6 109.70(19) . . ?
C00T N009 C00I 129.7(2) . . ?
N6 N009 C00I 120.47(18) . . ?
C00G N00A N5 109.82(18) . . ?
C00G N00A C00J 128.90(19) . . ?
N5 N00A C00J 121.28(17) . . ?
C00T N00C C00X 103.15(19) . . ?
C00T N00C Cd01 125.96(17) . 1_554 ?
C00X N00C Cd01 130.89(16) . 1_554 ?
O003 C00F O004 122.6(2) . . ?
O003 C00F C00L 119.5(2) . . ?
O004 C00F C00L 117.9(2) . . ?
O003 C00F Cd01 61.56(12) . 1_645 ?
O004 C00F Cd01 61.48(12) . 1_645 ?
C00L C00F Cd01 172.06(16) . 1_645 ?
N006 C00G N00A 109.6(2) . . ?
C00I C00H C00J 120.9(2) . . ?
C00H C00I N009 121.5(2) . . ?
C00H C00I C00O 118.2(2) . . ?
N009 C00I C00O 120.29(19) . . ?
C00R C00J N00A 120.31(19) . . ?
C00R C00J C00H 123.8(2) . . ?
N00A C00J C00H 115.9(2) . . ?
O007 C00K O008 122.0(2) . . ?
O007 C00K C00P 120.0(2) . . ?
O008 C00K C00P 118.0(2) . . ?
O007 C00K Cd01 61.73(13) . . ?
O008 C00K Cd01 60.44(13) . . ?
C00P C00K Cd01 174.67(17) . . ?
C00M C00L C00F 129.5(2) . . ?
C00M C00L S002 111.63(17) . . ?
C00F C00L S002 118.80(17) . . ?
C00L C00M C00V 112.3(2) . . ?
N2 C00O C00I 131.5(2) . . ?
N2 C00O C00S 109.1(2) . . ?
C00I C00O C00S 119.4(2) . . ?
C00V C00P C00K 129.4(2) . . ?
C00V C00P S002 111.57(18) . . ?
C00K C00P S002 118.88(19) . . ?
C00J C00R C00S 115.7(2) . . ?
N1 C00S C00R 128.9(2) . . ?
N1 C00S C00O 109.1(2) . . ?
C00R C00S C00O 122.0(2) . . ?
N00C C00T N009 109.9(2) . . ?
N5 C00U N006 114.4(2) . . ?
C00P C00V C00M 113.0(2) . . ?
C00O N2 O3 104.38(19) . . ?
C00U N5 N00A 102.43(18) . . ?
C00X N6 N009 102.0(2) . . ?
N6 C00X N00C 115.2(2) . . ?
N2 O3 N1 112.83(18) . . ?
O00Y C4 N7 126.6(6) . . ?
 
_refine_diff_density_max    0.892
_refine_diff_density_min   -0.513
_refine_diff_density_rms    0.071

_shelx_res_file
;
TITL VVM-94_auto_a.res in P-1
    VVM-94_auto_a.res
    created by SHELXL-2019/3 at 11:04:40 on 12-Oct-2023
REM Old TITL VVM-94_auto in P1
REM SHELXT solution in P-1: R1 0.155, Rweak 0.011, Alpha 0.061
REM <I/s>   0.000 for    0 systematic absences,  Orientation as input
REM Formula found by SHELXT:  C23 N6 O6 S Zn
CELL  0.71073  10.1643  10.2748  13.6052   83.719   87.036   61.788
ZERR   14.000   0.0003   0.0003   0.0002    0.002    0.002    0.003
LATT  1
SFAC C H N O S Cd
UNIT 14.00 14.00 14.00 14.00 14.00 14.00
ACTA
TEMP 19
L.S. 10
BOND
LIST 6
FMAP 2
PLAN 20
WGHT    0.032000    0.579100
FVAR       0.44983
CD01  6    0.071170    0.694177    0.588323    11.00000    0.02436    0.02217 =
         0.01893   -0.00144    0.00082   -0.00287
S002  5    0.566887    0.187892    0.603750    11.00000    0.02589    0.02230 =
         0.05803   -0.00463    0.00388   -0.00441
O1    4    0.481222    0.627840    0.660875    11.00000    0.08221    0.08992 =
         0.17645    0.02692   -0.06065   -0.04873
H2    2    0.520460    0.587993    0.589173    11.00000   -1.50000
O003  4    0.809820   -0.241981    0.605622    11.00000    0.03030    0.02155 =
         0.03991    0.00134    0.00058   -0.00345
O004  4    0.863039   -0.057722    0.569303    11.00000    0.02539    0.02659 =
         0.05071   -0.00122    0.00315   -0.00642
O005  4    0.194146    0.839850    0.591845    11.00000    0.04088    0.03759 =
         0.04671    0.00326   -0.00265   -0.01841
H1    2    0.268678    0.795553    0.601461    11.00000   -1.50000
H1A   2    0.187220    0.898483    0.541393    11.00000   -1.50000
N006  3    0.094478    0.693172    0.420053    11.00000    0.03699    0.03037 =
         0.02169   -0.00376    0.00073   -0.01292
N7    3    0.320828    0.816764    0.957273    11.00000    0.06070    0.04317 =
         0.21761   -0.01928    0.02474   -0.02274
O007  4    0.136165    0.434632    0.625570    11.00000    0.02472    0.03351 =
         0.08412   -0.00982    0.00046    0.00011
O008  4    0.318578    0.489775    0.602392    11.00000    0.03681    0.02743 =
         0.08754   -0.00164   -0.00198   -0.00475
N1    3    0.355555    0.177506    0.102682    11.00000    0.06381    0.03268 =
         0.03537   -0.00502   -0.00370   -0.01318
N009  3    0.090092    0.637274   -0.082674    11.00000    0.03803    0.03302 =
         0.01909   -0.00165   -0.00045   -0.01246
N00A  3    0.128920    0.626224    0.271443    11.00000    0.03632    0.02752 =
         0.01840   -0.00155   -0.00070   -0.01317
N00C  3    0.057762    0.704470   -0.240223    11.00000    0.04327    0.04087 =
         0.01984   -0.00091   -0.00151   -0.01640
C00F  1    0.771798   -0.106409    0.594007    11.00000    0.02628    0.02308 =
         0.02640   -0.00061   -0.00152   -0.00448
C00G  1    0.139751    0.579471    0.367879    11.00000    0.03833    0.03077 =
         0.02047   -0.00142   -0.00042   -0.01519
AFIX  43
H00G  2    0.174115    0.481387    0.393901    11.00000   -1.20000
AFIX   0
C00H  1    0.110027    0.625086    0.094396    11.00000    0.03312    0.02778 =
         0.02238   -0.00094   -0.00049   -0.00990
AFIX  43
H00H  2    0.051899    0.727614    0.091191    11.00000   -1.20000
AFIX   0
C00I  1    0.141164    0.556396    0.010603    11.00000    0.03258    0.03130 =
         0.02013   -0.00026   -0.00156   -0.01393
C00J  1    0.165639    0.541660    0.188572    11.00000    0.03107    0.03331 =
         0.01857   -0.00347    0.00210   -0.01624
C00K  1    0.271046    0.396687    0.616989    11.00000    0.02804    0.02890 =
         0.03296   -0.00603   -0.00154   -0.00083
C00L  1    0.614221    0.003056    0.611380    11.00000    0.02582    0.02288 =
         0.03429   -0.00191    0.00060   -0.00347
C00M  1    0.492683   -0.018745    0.628842    11.00000    0.03145    0.02603 =
         0.05127   -0.00041    0.00021   -0.00872
AFIX  43
H00M  2    0.496814   -0.111663    0.636000    11.00000   -1.20000
AFIX   0
C00O  1    0.227625    0.399471    0.018158    11.00000    0.03477    0.03428 =
         0.02501   -0.00624    0.00135   -0.01602
C00P  1    0.382109    0.236559    0.622468    11.00000    0.02678    0.02694 =
         0.03650   -0.00298    0.00056   -0.00288
C00R  1    0.248467    0.393345    0.200585    11.00000    0.03875    0.03119 =
         0.02184    0.00017   -0.00384   -0.01156
AFIX  43
H00R  2    0.283532    0.341976    0.262216    11.00000   -1.20000
AFIX   0
C00S  1    0.279064    0.319972    0.113024    11.00000    0.03780    0.03040 =
         0.02847   -0.00140   -0.00167   -0.01436
C00T  1    0.123604    0.591304   -0.173364    11.00000    0.04534    0.03833 =
         0.02044   -0.00338    0.00158   -0.01508
AFIX  43
H00T  2    0.184485    0.493697   -0.186957    11.00000   -1.20000
AFIX   0
C00U  1    0.055168    0.810803    0.350670    11.00000    0.06233    0.02920 =
         0.02844   -0.00418    0.00277   -0.01878
AFIX  43
H00U  2    0.018129    0.907667    0.366737    11.00000   -1.20000
AFIX   0
C00V  1    0.359690    0.115771    0.634843    11.00000    0.02419    0.03504 =
         0.06054   -0.00271    0.00224   -0.00753
AFIX  43
H00V  2    0.266347    0.121030    0.646115    11.00000   -1.20000
AFIX   0
N2    3    0.273063    0.304347   -0.049533    11.00000    0.05967    0.03497 =
         0.03288   -0.00793   -0.00163   -0.01415
N5    3    0.073711    0.776583    0.259421    11.00000    0.06843    0.02736 =
         0.02483   -0.00236    0.00066   -0.01755
N6    3   -0.000836    0.786471   -0.089600    11.00000    0.06484    0.03568 =
         0.02471   -0.00100   -0.00224   -0.00689
C00X  1   -0.016042    0.819953   -0.185484    11.00000    0.06086    0.03739 =
         0.02583    0.00246   -0.00284   -0.01040
AFIX  43
H00X  2   -0.073609    0.916448   -0.213783    11.00000   -1.20000
AFIX   0
O00Y  4    0.421324    0.615912    0.872279    11.00000    0.11489    0.14892 =
         0.10505   -0.05947    0.02542   -0.07256
O3    4    0.351632    0.168324    0.002721    11.00000    0.07771    0.03372 =
         0.03980   -0.01236   -0.00080   -0.01385
C00Z  1    0.299328    0.857455    1.057720    11.00000    0.17402    0.13016 =
         0.21567   -0.04051    0.08032   -0.08940
AFIX 137
H00A  2    0.341762    0.921879    1.064786    11.00000   -1.50000
H00B  2    0.347492    0.769623    1.102740    11.00000   -1.50000
H00C  2    0.194478    0.907833    1.072211    11.00000   -1.50000
AFIX   0
C4    1    0.394474    0.670976    0.946748    11.00000    0.06548    0.09667 =
         0.15880    0.02239    0.00044   -0.04173
AFIX  43
H4    2    0.427554    0.607182    1.004429    11.00000   -1.20000
AFIX   0
C011  1    0.262385    0.932310    0.878435    11.00000    0.13206    0.11408 =
         0.18889    0.02300   -0.04936   -0.06847
AFIX 137
H01A  2    0.318330    0.986301    0.873244    11.00000   -1.50000
H01B  2    0.159518    0.998435    0.891428    11.00000   -1.50000
H01C  2    0.269962    0.889985    0.817558    11.00000   -1.50000
REM #####
AFIX   0
H3    2    0.499847    0.546929    0.628119    11.00000   -1.50000
REM #####
HKLF 4




REM  VVM-94_auto_a.res in P-1
REM wR2 = 0.0705, GooF = S = 1.032, Restrained GooF = 1.032 for all data
REM R1 = 0.0293 for 5172 Fo > 4sig(Fo) and 0.0349 for all 5786 data
REM 357 parameters refined using 0 restraints

END

WGHT      0.0320      0.5790

REM Highest difference peak  0.892,  deepest hole -0.513,  1-sigma level  0.071
Q1    1   0.3557  0.7320  0.8528  11.00000  0.05    0.89
Q2    1   0.4537  0.6067  0.8913  11.00000  0.05    0.46
Q3    1   0.2204  0.0837  0.7621  11.00000  0.05    0.34
Q4    1   0.3257  0.7430  0.7810  11.00000  0.05    0.34
Q5    1   0.1170  0.5997 -0.0311  11.00000  0.05    0.33
Q6    1   0.1428  0.5832  0.2198  11.00000  0.05    0.31
Q7    1   0.1644  0.6076  0.0435  11.00000  0.05    0.30
Q8    1   0.3666  0.7606  1.0352  11.00000  0.05    0.30
Q9    1   0.0652  0.7650 -0.2201  11.00000  0.05    0.28
Q10   1   0.6823 -0.0558  0.6173  11.00000  0.05    0.28
Q11   1   0.4996  0.5621  0.7370  11.00000  0.05    0.27
Q12   1  -0.0140  0.7987 -0.1294  11.00000  0.05    0.27
Q13   1   0.3055  0.4413  0.5747  11.00000  0.05    0.27
Q14   1   0.3164  0.4517  0.6447  11.00000  0.05    0.26
Q15   1   0.4095  0.1400  0.1425  11.00000  0.05    0.26
Q16   1   0.2392  0.3618  0.0736  11.00000  0.05    0.26
Q17   1   0.5470  0.4494  0.7519  11.00000  0.05    0.26
Q18   1   0.2761  0.3414  0.1682  11.00000  0.05    0.25
Q19   1   0.2644  0.3616 -0.0123  11.00000  0.05    0.25
Q20   1   0.1207  0.5839  0.1427  11.00000  0.05    0.24
;
_shelx_res_checksum   16164

_shelx_hkl_file
;
 -13  -9  -5   42.65    7.41
 -13  -9  -4   56.97    8.34
 -13  -8  -5    6.27    3.89
 -13  -8  -4    3.66    3.66
 -13  -8  -3    4.33    3.30
 -13  -8   0   32.66    6.49
 -13  -8   1   17.59    4.56
 -13  -8   2   -2.05    2.33
 -13  -8   3    0.42    2.52
 -13  -8   4    6.26    3.46
 -13  -7  -5    6.47    3.45
 -13  -7  -4   24.93    5.34
 -13  -7  -3   63.92    8.53
 -13  -7  -2   59.36    8.28
 -13  -7  -1   17.44    5.14
 -13  -7   0    7.63    3.17
 -13  -7   1   18.41    5.36
 -13  -7   2   50.84    7.62
 -13  -7   3   24.58    5.38
 -13  -6  -4    9.08    3.75
 -13  -6  -3    6.17    3.17
 -13  -6  -2   -1.21    3.41
 -13  -6  -1    1.06    3.09
 -13  -6   0    5.06    3.89
 -13  -6   2   48.04    7.26
 -13  -6   3   20.83    5.07
 -13  -5  -4    5.83    4.88
 -13  -5  -3   28.10    5.97
 -13  -5  -2   93.90   10.35
 -13  -5  -1   79.93    9.30
 -13  -5   0   34.44    6.46
 -13  -5   1    2.70    3.67
 -13  -4  -2   12.43    3.69
 -13  -4  -1    9.29    3.36
 -13  -4   0    7.94    3.25
 -13  -4   1    8.03    3.90
 -13  -4   2   22.20    7.03
 -13  -3   0   77.25    9.70
 -13  -3   1   66.76    8.93
 -13  -3   2    5.68    3.39
 -12 -11  -6   13.59    5.13
 -12 -10  -7   39.67    6.89
 -12 -10  -6    1.77    3.21
 -12 -10  -5   -3.13    4.01
 -12 -10  -4   32.79    6.13
 -12  -9  -7    7.28    3.96
 -12  -9  -6    9.57    3.77
 -12  -9  -5    9.35    4.33
 -12  -9  -4    8.82    3.88
 -12  -9  -3    4.05    3.01
 -12  -9  -3    0.08    2.75
 -12  -9  -2    9.42    4.07
 -12  -9  -1   -1.99    2.32
 -12  -9   0    9.51    3.92
 -12  -9   1    8.80    3.49
 -12  -9   2   19.33    5.04
 -12  -9   3   12.15    3.91
 -12  -9   4    0.29    2.64
 -12  -9   5   -2.09    3.28
 -12  -9   6   23.99    5.53
 -12  -8  -7   49.94    7.65
 -12  -8  -6   53.59    8.01
 -12  -8  -5    6.49    3.73
 -12  -8  -4    3.40    3.28
 -12  -8  -3   31.55    5.95
 -12  -8  -2   25.66    4.93
 -12  -8  -1   89.13    8.64
 -12  -8  -1   81.44    9.72
 -12  -8   0   34.43    6.29
 -12  -8   1    8.93    4.01
 -12  -8   2    4.55    2.95
 -12  -8   3   42.01    6.67
 -12  -8   4   50.74    7.32
 -12  -8   5   44.01    6.80
 -12  -7  -7    6.23    3.01
 -12  -7  -6   -2.51    3.33
 -12  -7  -5    4.39    2.73
 -12  -7  -4    7.91    3.94
 -12  -7  -3   15.28    4.41
 -12  -7  -2    8.09    3.39
 -12  -7  -1   17.97    4.30
 -12  -7   0    0.29    2.43
 -12  -7   0    1.42    2.44
 -12  -7   1   -0.25    3.12
 -12  -7   2   29.77    5.65
 -12  -7   3   14.25    4.40
 -12  -7   4   18.37    4.59
 -12  -7   5   11.97    4.03
 -12  -6  -7   24.88    5.61
 -12  -6  -6   61.77    8.60
 -12  -6  -5   77.86    9.47
 -12  -6  -4   31.22    6.17
 -12  -6  -3    3.48    3.33
 -12  -6  -2   13.19    3.85
 -12  -6  -1   89.70    9.08
 -12  -6   0  132.82   10.80
 -12  -6   1   14.88    3.65
 -12  -6   2   42.21    5.59
 -12  -6   2   37.04    6.22
 -12  -6   3   12.17    3.99
 -12  -6   4   30.31    5.43
 -12  -6   5   73.88    8.16
 -12  -5  -6   14.51    5.12
 -12  -5  -5    2.58    3.35
 -12  -5  -4    3.96    3.64
 -12  -5  -3    0.41    3.25
 -12  -5  -2   30.80    6.11
 -12  -5  -1   49.56    7.11
 -12  -5   0   20.74    4.80
 -12  -5   1    0.10    2.67
 -12  -5   2    2.69    2.48
 -12  -5   3   22.71    4.29
 -12  -5   3   29.88    5.35
 -12  -5   4   54.84    7.02
 -12  -4  -6    4.64    3.94
 -12  -4  -5   65.91    8.75
 -12  -4  -4  132.69   12.35
 -12  -4  -3   60.44    8.15
 -12  -4  -2   21.11    5.07
 -12  -4  -1   -1.28    3.05
 -12  -4   0   32.39    6.13
 -12  -4   1   96.48    9.38
 -12  -4   2  118.89   10.52
 -12  -4   3   39.68    6.14
 -12  -3  -4   12.90    4.09
 -12  -3  -3    1.70    2.46
 -12  -3  -2   37.41    6.51
 -12  -3  -1   46.65    7.31
 -12  -3   0   60.58    8.02
 -12  -3   1   21.36    5.22
 -12  -3   2   10.24    3.83
 -12  -2  -3  119.85   12.16
 -12  -2  -2  109.74   11.48
 -12  -2  -1   25.51    5.39
 -12  -2   0    4.50    2.71
 -12  -2   1   79.43    9.56
 -12  -2   2   94.01   10.06
 -12  -2   3  118.17   10.97
 -12  -2   4   33.30    6.14
 -12  -2   5    4.94    3.89
 -12  -2   6   10.15    4.04
 -12  -1   1   21.25    5.72
 -12  -1   4    9.68    4.23
 -12  -1   5   22.93    5.25
 -11 -12   1    8.48    3.61
 -11 -12   2   13.02    5.16
 -11 -11  -8   17.06    5.28
 -11 -11  -7   56.92    8.30
 -11 -11  -6   68.67    8.81
 -11 -11  -5   27.79    5.93
 -11 -11   2    5.64    2.59
 -11 -11   3   44.85    7.24
 -11 -10  -8   28.01    5.85
 -11 -10  -7    6.40    3.33
 -11 -10  -6    1.82    3.29
 -11 -10  -5    7.77    3.83
 -11 -10  -4   23.61    4.87
 -11 -10  -4   28.04    5.95
 -11 -10  -3   40.74    5.76
 -11 -10  -3   33.58    6.36
 -11 -10  -2   29.71    6.08
 -11 -10  -1    9.82    3.83
 -11 -10   0   -5.23    2.89
 -11 -10   1    7.64    3.32
 -11 -10   2   17.06    4.53
 -11 -10   3   35.93    6.31
 -11 -10   3   23.59    5.40
 -11 -10   4   19.89    5.22
 -11 -10   4   39.37    6.64
 -11 -10   5    1.68    2.79
 -11 -10   6    1.77    2.52
 -11 -10   7   11.08    4.40
 -11  -9  -9    3.30    3.70
 -11  -9  -8    7.33    3.45
 -11  -9  -7   10.64    4.10
 -11  -9  -6   73.17    8.80
 -11  -9  -5   19.86    5.07
 -11  -9  -4   15.47    4.08
 -11  -9  -4   19.76    5.18
 -11  -9  -3   -0.02    2.02
 -11  -9  -3    1.64    2.65
 -11  -9  -2   10.24    3.07
 -11  -9  -2    5.26    2.61
 -11  -9  -1   68.97    6.80
 -11  -9  -1   63.06    8.57
 -11  -9   0  115.54   11.26
 -11  -9   1   55.09    7.91
 -11  -9   2    6.16    3.04
 -11  -9   3   -0.33    2.70
 -11  -9   4   24.72    5.87
 -11  -9   4   31.92    5.72
 -11  -9   5   61.95    8.50
 -11  -9   5   37.21    6.61
 -11  -9   6   43.91    6.88
 -11  -9   7   12.07    4.28
 -11  -8  -9    7.42    4.06
 -11  -8  -8   21.92    5.19
 -11  -8  -7   37.70    6.61
 -11  -8  -6   19.94    4.79
 -11  -8  -5    0.58    2.68
 -11  -8  -4    8.40    3.14
 -11  -8  -3   29.66    5.01
 -11  -8  -2   19.32    4.02
 -11  -8  -2   25.64    5.39
 -11  -8  -1   23.11    4.03
 -11  -8  -1   22.15    5.23
 -11  -8   0    6.65    2.37
 -11  -8   0   -0.79    2.98
 -11  -8   1   -3.73    2.98
 -11  -8   2   -0.75    2.67
 -11  -8   3    9.80    3.63
 -11  -8   4   14.40    3.85
 -11  -8   5   16.09    4.12
 -11  -8   5   12.28    4.01
 -11  -8   6   15.44    4.47
 -11  -8   7    7.06    3.61
 -11  -7  -9   15.10    4.38
 -11  -7  -8   26.77    5.57
 -11  -7  -7   25.81    5.70
 -11  -7  -6    1.24    2.61
 -11  -7  -5   35.79    6.08
 -11  -7  -4   67.58    7.94
 -11  -7  -3   79.51    8.27
 -11  -7  -2   56.17    6.76
 -11  -7  -1    3.44    1.89
 -11  -7   0   69.88    6.96
 -11  -7   0   71.37    8.35
 -11  -7   1   66.18    6.32
 -11  -7   1   59.94    7.61
 -11  -7   2   71.73    6.42
 -11  -7   2   76.12    8.45
 -11  -7   3   46.28    6.43
 -11  -7   4    0.60    2.30
 -11  -7   5   20.35    4.94
 -11  -7   5   30.90    5.25
 -11  -7   6   35.74    6.40
 -11  -7   6   41.42    6.21
 -11  -7   7   41.86    6.21
 -11  -6  -9   14.40    4.51
 -11  -6  -8   20.19    5.02
 -11  -6  -7   38.63    6.68
 -11  -6  -6   37.72    6.55
 -11  -6  -5   23.01    5.22
 -11  -6  -4    0.75    2.48
 -11  -6  -3   -1.40    2.59
 -11  -6  -2    8.48    3.31
 -11  -6  -1   34.19    5.36
 -11  -6   0  112.08    9.13
 -11  -6   1    4.13    2.43
 -11  -6   2   12.00    2.87
 -11  -6   2    8.90    3.09
 -11  -6   3    1.02    1.34
 -11  -6   3    1.68    2.29
 -11  -6   4   15.57    3.83
 -11  -6   5   57.50    6.87
 -11  -6   6   43.95    6.98
 -11  -6   6   36.28    5.30
 -11  -5  -8   59.57    8.26
 -11  -5  -7   40.32    6.98
 -11  -5  -6    0.92    2.68
 -11  -5  -5    7.32    3.82
 -11  -5  -4   92.72    9.42
 -11  -5  -3   52.09    6.88
 -11  -5  -2  101.03    9.58
 -11  -5  -1   43.22    5.99
 -11  -5   0   12.07    3.36
 -11  -5   1   90.99    8.26
 -11  -5   2   98.19    8.33
 -11  -5   3  137.01    9.80
 -11  -5   3  133.47   10.63
 -11  -5   4   84.26    8.09
 -11  -5   5   13.48    3.41
 -11  -5   6   12.26    4.06
 -11  -5   7   47.75    8.11
 -11  -4  -8    4.14    2.15
 -11  -4  -7   13.85    4.10
 -11  -4  -6   64.21    8.51
 -11  -4  -5   31.22    5.94
 -11  -4  -4   60.68    7.90
 -11  -4  -3   -0.57    2.54
 -11  -4  -2   10.60    4.01
 -11  -4  -1   28.96    5.13
 -11  -4   0   32.82    5.36
 -11  -4   1   30.36    4.89
 -11  -4   2   16.49    3.77
 -11  -4   3    0.75    1.74
 -11  -4   4    1.55    1.57
 -11  -4   5    9.69    2.71
 -11  -4   6   63.78    8.50
 -11  -4   7   17.89    5.08
 -11  -3  -7  135.78   12.79
 -11  -3  -6   82.02    9.69
 -11  -3  -5   10.73    3.88
 -11  -3  -4    3.90    3.16
 -11  -3  -3   41.38    6.66
 -11  -3  -2  156.24   12.69
 -11  -3  -1  135.44   11.39
 -11  -3   0  116.63   10.34
 -11  -3   1    0.35    2.20
 -11  -3   2   28.42    5.19
 -11  -3   3  102.57    9.32
 -11  -3   5   90.11    9.68
 -11  -3   6   34.89    6.20
 -11  -3   6   26.33    5.82
 -11  -3   7   12.78    4.07
 -11  -3   7   26.36    6.14
 -11  -2  -6  -12.04    4.17
 -11  -2  -5   10.81    4.09
 -11  -2  -4   21.23    4.97
 -11  -2  -3   28.54    5.77
 -11  -2  -2   36.65    6.48
 -11  -2  -1   22.53    5.14
 -11  -2   0    8.57    3.41
 -11  -2   0    4.32    2.14
 -11  -2   1   37.73    6.23
 -11  -2   1   36.92    5.18
 -11  -2   2   42.89    6.34
 -11  -2   2   31.09    5.08
 -11  -2   3   53.39    6.76
 -11  -2   4   51.92    7.34
 -11  -2   5    0.90    2.76
 -11  -2   6    1.06    2.52
 -11  -2   6    3.31    3.47
 -11  -2   7   42.99    6.91
 -11  -2   7   30.21    6.34
 -11  -2   8   41.55    7.39
 -11  -1  -5   64.48    9.03
 -11  -1  -4   34.95    6.33
 -11  -1  -3   10.50    4.04
 -11  -1  -2   63.47    8.45
 -11  -1  -1  127.39   11.85
 -11  -1   0  129.13   11.89
 -11  -1   1  119.18   11.19
 -11  -1   1   96.56    8.73
 -11  -1   2   -3.66    2.85
 -11  -1   2    3.62    3.77
 -11  -1   3   16.10    4.27
 -11  -1   4   85.23    9.42
 -11  -1   5  142.56   12.74
 -11  -1   6  130.77   12.26
 -11  -1   6  124.32   12.02
 -11  -1   7   11.06    4.18
 -11  -1   7   18.25    4.80
 -11   0  -2   24.53    5.94
 -11   0  -1    4.38    2.99
 -11   0   0    4.07    2.99
 -11   0   1    5.75    3.37
 -11   0   2   23.39    4.94
 -11   0   3   35.92    6.26
 -11   0   4   55.91    7.94
 -11   0   5    8.10    3.73
 -11   0   6   20.08    5.17
 -11   0   6   17.61    5.23
 -11   0   7   31.62    6.10
 -11   1   3    3.67    3.82
 -11   1   4   11.12    3.94
 -11   1   5   61.73    8.34
 -11   1   5   72.36    8.93
 -11   1   6   28.33    6.39
 -10 -12  -8    0.26    3.81
 -10 -12  -7    9.85    4.25
 -10 -12  -6   66.80    9.29
 -10 -12  -5   89.61    9.65
 -10 -12   1   29.97    6.08
 -10 -12   2    7.58    3.19
 -10 -12   3    2.26    3.47
 -10 -12   4    1.92    2.34
 -10 -11  -8    3.89    2.20
 -10 -11  -7   19.82    5.45
 -10 -11  -6   29.77    6.04
 -10 -11  -5    9.83    3.77
 -10 -11  -4    6.15    3.20
 -10 -11  -4   19.35    5.09
 -10 -11  -3   13.12    3.46
 -10 -11  -3    4.82    2.80
 -10 -11  -2   40.17    6.89
 -10 -11  -1   27.40    5.38
 -10 -11   0   23.93    5.24
 -10 -11   1    1.39    2.22
 -10 -11   2    7.72    4.02
 -10 -11   2    3.73    3.21
 -10 -11   3   29.83    5.69
 -10 -11   3   28.36    5.45
 -10 -11   4   38.20    6.83
 -10 -11   4   50.18    7.94
 -10 -11   5   59.17    8.22
 -10 -10  -9   48.78    7.82
 -10 -10  -8   36.14    6.69
 -10 -10  -7    0.95    2.88
 -10 -10  -7    6.99    3.14
 -10 -10  -6   11.14    4.18
 -10 -10  -6   10.07    3.32
 -10 -10  -5   36.81    5.82
 -10 -10  -5   29.98    6.54
 -10 -10  -4   53.52    6.60
 -10 -10  -4   43.92    7.35
 -10 -10  -3   69.24    7.24
 -10 -10  -3   82.07    9.63
 -10 -10  -2   23.12    4.02
 -10 -10  -2   26.30    5.80
 -10 -10  -1    0.83    1.42
 -10 -10  -1    3.42    3.98
 -10 -10   0   47.06    7.36
 -10 -10   1   97.14   10.37
 -10 -10   2   51.94    7.53
 -10 -10   3   25.77    5.27
 -10 -10   3   22.67    5.16
 -10 -10   4    4.17    3.12
 -10 -10   4    3.62    2.91
 -10 -10   5    8.04    3.53
 -10 -10   5    7.51    3.19
 -10 -10   6   93.11   10.22
 -10 -10   6   80.96    9.48
 -10 -10   7   34.34    6.13
 -10 -10   8   14.19    4.46
 -10  -9 -10   11.53    4.31
 -10  -9  -9   -3.24    3.19
 -10  -9  -8    7.21    3.78
 -10  -9  -7   35.80    7.49
 -10  -9  -6   58.82    7.49
 -10  -9  -5   17.46    4.14
 -10  -9  -5   27.19    5.74
 -10  -9  -4    1.04    1.92
 -10  -9  -4    2.97    2.80
 -10  -9  -3    5.43    2.39
 -10  -9  -3   -1.82    2.27
 -10  -9  -2    8.15    2.80
 -10  -9  -2   13.64    4.20
 -10  -9  -1   39.78    4.91
 -10  -9  -1   26.96    5.45
 -10  -9   0   30.60    4.02
 -10  -9   0   43.20    6.62
 -10  -9   1   40.95    6.59
 -10  -9   2    3.34    2.71
 -10  -9   3   -0.22    2.57
 -10  -9   4    9.21    3.16
 -10  -9   4    2.85    2.92
 -10  -9   5   49.44    7.38
 -10  -9   5   33.58    6.15
 -10  -9   6   64.76    8.38
 -10  -9   6   49.48    7.19
 -10  -9   7   33.67    6.58
 -10  -9   7   32.09    6.16
 -10  -9   8    3.36    3.19
 -10  -9   9    4.67    3.16
 -10  -8 -10   43.96    7.38
 -10  -8  -9   76.41    9.56
 -10  -8  -8  106.64   10.78
 -10  -8  -7   62.11    8.05
 -10  -8  -6    5.72    3.58
 -10  -8  -5   37.34    5.83
 -10  -8  -4  160.93   11.65
 -10  -8  -3  134.73   10.17
 -10  -8  -2   76.09    7.10
 -10  -8  -2   71.54    8.67
 -10  -8  -1   20.49    3.56
 -10  -8  -1   17.89    4.68
 -10  -8   0   29.96    4.07
 -10  -8   0   26.62    5.01
 -10  -8   1   31.22    3.88
 -10  -8   1   33.68    5.73
 -10  -8   2   63.13    5.20
 -10  -8   2   75.67    8.28
 -10  -8   3   82.69    8.75
 -10  -8   4   42.49    6.60
 -10  -8   4   36.85    5.79
 -10  -8   5   16.31    4.61
 -10  -8   5   15.35    4.22
 -10  -8   6   11.71    3.83
 -10  -8   6   11.67    3.88
 -10  -8   7    8.21    2.67
 -10  -8   7   10.67    4.31
 -10  -8   8   54.99    7.33
 -10  -7 -10   51.20    7.70
 -10  -7  -9   21.66    5.22
 -10  -7  -8    2.90    3.05
 -10  -7  -7    0.19    2.40
 -10  -7  -6    8.05    2.91
 -10  -7  -5   86.17    8.65
 -10  -7  -4   94.29    8.73
 -10  -7  -3    7.74    2.54
 -10  -7  -2    2.17    2.16
 -10  -7  -1   23.37    3.88
 -10  -7   0  104.72    8.02
 -10  -7   0   97.83    9.44
 -10  -7   1   68.48    6.04
 -10  -7   1   66.83    7.72
 -10  -7   2   12.08    2.40
 -10  -7   2   11.16    3.33
 -10  -7   3    5.98    1.75
 -10  -7   3    9.80    3.20
 -10  -7   4   10.64    3.13
 -10  -7   5   21.80    5.47
 -10  -7   5   30.42    4.99
 -10  -7   6   68.83    8.47
 -10  -7   6   70.65    7.45
 -10  -7   7   21.72    4.95
 -10  -7   7    8.96    2.89
 -10  -7   8   33.02    6.27
 -10  -7   8   13.92    3.51
 -10  -6 -10   16.87    4.72
 -10  -6  -9    2.25    3.45
 -10  -6  -8   69.53    8.75
 -10  -6  -7  117.92   10.80
 -10  -6  -6  138.94   11.55
 -10  -6  -5   62.90    7.42
 -10  -6  -4    0.63    1.78
 -10  -6  -3   40.85    5.63
 -10  -6  -2  141.73   10.47
 -10  -6  -1  225.91   13.39
 -10  -6   0  203.62   12.21
 -10  -6   1   19.33    3.50
 -10  -6   1   16.48    3.75
 -10  -6   2   23.33    3.58
 -10  -6   2   25.53    4.49
 -10  -6   3   64.09    5.53
 -10  -6   3   67.36    7.15
 -10  -6   4  201.13   12.98
 -10  -6   5  172.92   13.59
 -10  -6   5  178.50   12.01
 -10  -6   6   61.04    8.02
 -10  -6   6   50.09    6.01
 -10  -6   7   -2.24    2.46
 -10  -6   7    2.82    2.01
 -10  -6   8   42.97    6.65
 -10  -5 -10   66.51    8.84
 -10  -5  -9   74.58    9.15
 -10  -5  -8   53.01    7.50
 -10  -5  -7    8.89    3.86
 -10  -5  -6    7.42    3.18
 -10  -5  -5   47.12    6.60
 -10  -5  -4  112.08    9.84
 -10  -5  -3   83.07    8.24
 -10  -5  -2   31.47    4.92
 -10  -5  -1    3.93    2.25
 -10  -5   0    2.66    2.20
 -10  -5   1   36.93    4.85
 -10  -5   2   79.26    6.81
 -10  -5   3   62.55    5.87
 -10  -5   3   59.93    6.54
 -10  -5   4   32.58    4.79
 -10  -5   5    9.02    2.71
 -10  -5   6    8.46    3.66
 -10  -5   6    5.80    2.31
 -10  -5   7   22.62    5.26
 -10  -5   7   29.50    4.38
 -10  -5   8   81.57    9.62
 -10  -5   9   43.65    7.24
 -10  -4 -10   50.02    7.75
 -10  -4  -9    0.45    2.36
 -10  -4  -8   63.20    8.43
 -10  -4  -7  169.86   13.68
 -10  -4  -6  298.22   18.40
 -10  -4  -5   85.03    9.12
 -10  -4  -4   19.52    4.62
 -10  -4  -3   22.68    4.48
 -10  -4  -2  278.45   16.26
 -10  -4  -1  330.66   17.78
 -10  -4   0  184.51   12.22
 -10  -4   1    6.82    2.32
 -10  -4   2    5.08    2.20
 -10  -4   3   58.77    5.98
 -10  -4   4  124.04    9.30
 -10  -4   5  133.41    9.46
 -10  -4   6  122.59   11.21
 -10  -4   6  101.63    7.92
 -10  -4   7   15.39    4.32
 -10  -4   8    3.98    3.43
 -10  -4   9   23.93    5.12
 -10  -3  -9   20.01    4.95
 -10  -3  -8   31.71    6.41
 -10  -3  -7   26.44    5.67
 -10  -3  -6    6.49    3.51
 -10  -3  -5    7.07    3.09
 -10  -3  -4    2.23    2.84
 -10  -3  -3   38.25    5.87
 -10  -3  -2   73.00    7.91
 -10  -3  -1   52.89    6.60
 -10  -3   0   13.45    3.54
 -10  -3   1   34.48    5.08
 -10  -3   2   56.47    6.36
 -10  -3   3   87.20    7.91
 -10  -3   3   76.18    7.78
 -10  -3   4   51.94    6.58
 -10  -3   5   22.18    4.78
 -10  -3   5   27.22    3.82
 -10  -3   6   -0.31    2.63
 -10  -3   6   -0.34    2.29
 -10  -3   6    0.55    1.19
 -10  -3   7   11.87    3.54
 -10  -3   7    8.60    6.34
 -10  -3   8   59.07    7.89
 -10  -3   8   69.33    8.96
 -10  -3   9   32.87    6.27
 -10  -3   9   28.22    5.79
 -10  -2  -9   46.19    7.57
 -10  -2  -8   32.72    6.32
 -10  -2  -7    4.85    3.45
 -10  -2  -6   16.84    5.17
 -10  -2  -5   98.13   10.29
 -10  -2  -4  114.65   10.97
 -10  -2  -3  120.00   10.89
 -10  -2  -2    8.61    3.12
 -10  -2  -1   24.52    4.72
 -10  -2  -1   17.69    3.18
 -10  -2   0   69.05    7.67
 -10  -2   0   71.30    6.51
 -10  -2   1  183.48   12.80
 -10  -2   1  191.56   11.87
 -10  -2   2  121.20    9.95
 -10  -2   2   99.55    8.65
 -10  -2   3   21.14    4.03
 -10  -2   3   13.00    3.28
 -10  -2   4    3.48    2.38
 -10  -2   5   69.29    8.18
 -10  -2   6  111.54   10.63
 -10  -2   6  120.30   11.31
 -10  -2   7   64.78    8.18
 -10  -2   7   45.36    7.33
 -10  -2   8   50.91    7.25
 -10  -2   8   48.19    7.53
 -10  -2   9   10.38    3.73
 -10  -2   9    1.74    2.09
 -10  -1  -8   60.09    8.68
 -10  -1  -7   95.55   10.65
 -10  -1  -6   68.00    8.79
 -10  -1  -5    3.28    3.57
 -10  -1  -4    5.24    3.30
 -10  -1  -3    6.37    2.95
 -10  -1  -2   23.76    5.13
 -10  -1  -2   23.96    3.40
 -10  -1  -1   46.39    6.53
 -10  -1  -1   36.65    4.48
 -10  -1   0   35.22    5.85
 -10  -1   0   31.84    4.45
 -10  -1   1   54.86    7.18
 -10  -1   1   54.95    6.06
 -10  -1   2   12.85    4.12
 -10  -1   2   19.04    4.03
 -10  -1   3    1.91    1.77
 -10  -1   4   13.24    3.75
 -10  -1   5   68.53    8.25
 -10  -1   6  122.30   11.21
 -10  -1   6  121.13   11.41
 -10  -1   7   37.55    6.34
 -10  -1   7   28.52    5.84
 -10  -1   8   13.92    4.18
 -10  -1   8    5.10    2.30
 -10  -1   9    6.45    3.90
 -10  -1   9    1.35    2.64
 -10   0  -6   17.04    4.83
 -10   0  -5   83.30    9.87
 -10   0  -4   53.21    7.70
 -10   0  -3  211.56   15.60
 -10   0  -2  204.08   15.10
 -10   0  -1   34.59    6.17
 -10   0  -1   34.92    4.57
 -10   0   0   12.03    4.31
 -10   0   0   22.39    4.06
 -10   0   1  117.68   11.13
 -10   0   1  127.80    9.85
 -10   0   2  189.07   12.89
 -10   0   3  193.76   13.55
 -10   0   4   64.90    7.81
 -10   0   5   -1.96    2.45
 -10   0   6   19.65    5.10
 -10   0   6   19.99    5.13
 -10   0   7  122.46   11.25
 -10   0   7  102.46   10.92
 -10   0   8   80.87    9.38
 -10   0   8  102.03   10.92
 -10   0   9   71.31    8.89
 -10   1  -4   -6.03    3.24
 -10   1  -3    6.59    2.98
 -10   1  -2    0.12    2.48
 -10   1  -1   43.45    6.87
 -10   1   0   69.11    8.71
 -10   1   0   61.14    6.73
 -10   1   1   76.00    9.07
 -10   1   1   56.19    6.65
 -10   1   2   17.63    4.19
 -10   1   3    7.10    3.48
 -10   1   4   28.54    5.76
 -10   1   5   75.57    8.66
 -10   1   5   72.40    8.95
 -10   1   6   55.53    7.47
 -10   1   6   52.84    7.83
 -10   1   7   74.90    8.74
 -10   1   7   56.19    8.38
 -10   1   8   24.16    5.41
 -10   1   9    4.27    3.14
 -10   2   1   15.58    3.95
 -10   2   2   54.69    7.24
 -10   2   3  153.04   12.73
 -10   2   4  155.98   13.25
 -10   2   5   62.90    7.84
 -10   2   5   44.67    7.04
 -10   2   6    9.00    3.97
 -10   2   6    8.29    3.59
 -10   3   2   20.45    5.80
 -10   3   3   48.43    7.44
 -10   3   4   21.11    5.34
 -10   3   5    1.69    3.67
  -9 -13  -7    0.88    4.11
  -9 -12  -8    6.61    3.33
  -9 -12  -7   33.97    6.60
  -9 -12  -6    7.62    4.00
  -9 -12  -5   51.50    7.39
  -9 -12  -4   -5.29    3.11
  -9 -12   0   32.50    5.59
  -9 -12   1   17.43    4.08
  -9 -12   2    2.51    3.13
  -9 -12   3    3.89    3.21
  -9 -12   4   -3.40    3.66
  -9 -12   5   45.96    7.31
  -9 -12   6   14.79    4.93
  -9 -11  -9   37.12    6.68
  -9 -11  -8   49.52    7.41
  -9 -11  -8   42.39    7.55
  -9 -11  -7   34.78    6.43
  -9 -11  -7   31.87    6.70
  -9 -11  -6    1.36    2.80
  -9 -11  -6    3.37    2.43
  -9 -11  -5   -0.11    2.64
  -9 -11  -5    5.29    2.90
  -9 -11  -4   62.06    7.24
  -9 -11  -4   66.47    8.79
  -9 -11  -3   82.98    7.85
  -9 -11  -3   80.36    9.63
  -9 -11  -2   99.04    8.25
  -9 -11  -2  102.99   10.76
  -9 -11  -1   21.43    5.08
  -9 -11   0   -1.67    2.98
  -9 -11   1   14.34    4.04
  -9 -11   1   12.64    4.07
  -9 -11   2  105.28   10.02
  -9 -11   2  112.44   11.30
  -9 -11   3   45.45    6.70
  -9 -11   3   52.14    7.83
  -9 -11   4   49.26    7.24
  -9 -11   4   50.65    7.74
  -9 -11   5   18.80    5.02
  -9 -11   5   17.36    4.77
  -9 -11   6   23.35    4.52
  -9 -11   6   12.87    4.29
  -9 -11   7   23.04    5.13
  -9 -10 -10   -0.22    2.81
  -9 -10 -10   -0.17    2.55
  -9 -10  -9   15.55    4.41
  -9 -10  -9   17.44    4.63
  -9 -10  -8    7.97    4.24
  -9 -10  -8    7.44    3.49
  -9 -10  -7    0.76    2.57
  -9 -10  -7    3.14    3.01
  -9 -10  -6   21.68    4.80
  -9 -10  -6   17.78    5.21
  -9 -10  -5    3.49    2.52
  -9 -10  -5    1.52    2.93
  -9 -10  -4   22.62    4.35
  -9 -10  -4   13.32    4.13
  -9 -10  -3   11.12    3.11
  -9 -10  -3    9.91    3.73
  -9 -10  -2   23.82    6.07
  -9 -10  -2   15.39    4.78
  -9 -10  -1   12.58    2.80
  -9 -10  -1   14.77    4.39
  -9 -10   0    5.26    1.74
  -9 -10   0    8.34    3.36
  -9 -10   1   76.02    8.84
  -9 -10   2   13.99    4.02
  -9 -10   2   16.18    4.38
  -9 -10   3    1.91    3.04
  -9 -10   3    2.62    2.28
  -9 -10   4   -4.10    3.35
  -9 -10   4   -0.79    2.60
  -9 -10   5   -2.57    3.89
  -9 -10   5    2.99    2.87
  -9 -10   6   38.99    6.42
  -9 -10   6   42.52    6.72
  -9 -10   7   48.73    7.31
  -9 -10   7   43.24    6.76
  -9 -10   8   17.98    5.22
  -9 -10   8   20.05    4.84
  -9 -10   9   -5.22    3.13
  -9  -9 -11   65.98    9.49
  -9  -9 -10    3.01    2.30
  -9  -9  -9   10.18    3.97
  -9  -9  -8   68.99    8.55
  -9  -9  -7  100.29    9.94
  -9  -9  -6   94.37    9.17
  -9  -9  -6   91.88   10.03
  -9  -9  -5   42.56    5.88
  -9  -9  -5   32.31    6.25
  -9  -9  -4    2.06    1.71
  -9  -9  -4    4.31    2.80
  -9  -9  -3   18.61    3.54
  -9  -9  -3   20.56    4.91
  -9  -9  -2   68.21    6.46
  -9  -9  -2   54.95    7.48
  -9  -9  -1  117.95    8.37
  -9  -9  -1  124.83   11.16
  -9  -9   0   34.46    3.99
  -9  -9   0   31.92    5.49
  -9  -9   1   77.95    5.74
  -9  -9   1   85.84    9.14
  -9  -9   2    6.96    3.42
  -9  -9   3   39.92    6.19
  -9  -9   3   51.08    7.04
  -9  -9   4   84.60    9.08
  -9  -9   4   89.67    9.32
  -9  -9   5   62.96    8.00
  -9  -9   5   69.95    8.44
  -9  -9   6   39.85    6.38
  -9  -9   6   49.13    6.98
  -9  -9   7    1.57    2.91
  -9  -9   7    3.48    3.47
  -9  -9   8    5.80    3.16
  -9  -9   8   10.85    4.02
  -9  -9   9   43.94    6.77
  -9  -9  10   47.26    7.26
  -9  -8 -11   11.82    4.52
  -9  -8 -10   11.47    3.83
  -9  -8  -9   62.91    8.30
  -9  -8  -8   20.39    4.68
  -9  -8  -7   26.54    5.18
  -9  -8  -6   -0.39    2.23
  -9  -8  -5    0.92    1.66
  -9  -8  -4   45.53    5.82
  -9  -8  -3   48.33    5.71
  -9  -8  -3   34.71    5.69
  -9  -8  -2  110.84    8.40
  -9  -8  -2  107.68   10.14
  -9  -8  -1   50.09    5.24
  -9  -8  -1   52.60    6.95
  -9  -8   0   -0.38    1.24
  -9  -8   0   -4.18    2.62
  -9  -8   1   14.63    2.36
  -9  -8   1   10.60    3.05
  -9  -8   2   71.50    5.10
  -9  -8   2   68.59    7.65
  -9  -8   3  115.74   10.13
  -9  -8   4   64.25    7.64
  -9  -8   4   51.38    6.64
  -9  -8   5   34.29    5.79
  -9  -8   5   28.31    5.00
  -9  -8   6   16.82    4.62
  -9  -8   6    9.29    3.12
  -9  -8   7   27.96    5.67
  -9  -8   7   22.89    4.71
  -9  -8   8   40.05    6.54
  -9  -8   8   28.49    5.08
  -9  -8   9   54.01    7.94
  -9  -8   9   53.73    7.04
  -9  -7 -11   98.82   11.02
  -9  -7 -10   94.94   10.25
  -9  -7  -9   12.02    4.40
  -9  -7  -8   25.80    5.49
  -9  -7  -7  155.98   12.17
  -9  -7  -6  325.10   18.26
  -9  -7  -5  131.06   10.39
  -9  -7  -4   62.10    6.73
  -9  -7  -3    8.32    2.49
  -9  -7  -2  108.26    8.28
  -9  -7  -1  241.50   13.11
  -9  -7  -1  278.04   16.07
  -9  -7   0  394.56   17.36
  -9  -7   0  382.31   20.07
  -9  -7   1  113.01    7.43
  -9  -7   1   95.77    9.28
  -9  -7   2   13.85    2.43
  -9  -7   2   20.06    4.00
  -9  -7   3   57.72    4.33
  -9  -7   3   57.37    6.67
  -9  -7   4  124.91    9.94
  -9  -7   5  161.23   12.66
  -9  -7   5  164.06   11.58
  -9  -7   6  208.32   14.83
  -9  -7   6  202.15   13.17
  -9  -7   7   28.06    5.51
  -9  -7   7   20.08    4.19
  -9  -7   8    2.68    3.11
  -9  -7   8   -0.71    1.63
  -9  -7   9   27.94    5.61
  -9  -7   9   30.81    5.01
  -9  -6 -12   22.13    5.51
  -9  -6 -11   -0.20    2.63
  -9  -6 -10   12.31    4.18
  -9  -6  -9   15.45    4.45
  -9  -6  -8   85.21    9.43
  -9  -6  -7  124.42   10.87
  -9  -6  -6   36.87    5.57
  -9  -6  -5   -0.87    2.01
  -9  -6  -4   13.45    3.24
  -9  -6  -3   75.66    7.17
  -9  -6  -2   74.72    6.92
  -9  -6  -1  264.48   13.92
  -9  -6   0   13.33    2.86
  -9  -6   1    1.00    1.43
  -9  -6   1    4.53    2.22
  -9  -6   2   72.71    5.73
  -9  -6   2   72.71    7.41
  -9  -6   3  173.06    9.03
  -9  -6   3  166.98   11.39
  -9  -6   4  119.63    9.33
  -9  -6   5   60.29    7.54
  -9  -6   5   55.74    6.14
  -9  -6   6    7.13    3.42
  -9  -6   6   11.55    3.03
  -9  -6   7   17.67    6.44
  -9  -6   7   22.47    3.98
  -9  -6   8   65.95    8.17
  -9  -6   8   44.63    5.42
  -9  -6   9   80.37    9.61
  -9  -6   9   93.00    7.88
  -9  -6  10   47.77    7.35
  -9  -5 -12    4.47    2.87
  -9  -5 -11   68.97    8.98
  -9  -5 -10  218.83   16.02
  -9  -5  -9   35.22    6.32
  -9  -5  -8   43.15    6.38
  -9  -5  -7    2.17    2.17
  -9  -5  -6   63.24    7.38
  -9  -5  -5  169.55   11.96
  -9  -5  -4  158.46   11.29
  -9  -5  -3   86.43    7.87
  -9  -5  -2   11.24    2.87
  -9  -5  -1    4.53    2.21
  -9  -5   0  353.09   16.80
  -9  -5   1    4.57    2.09
  -9  -5   2  430.51   18.49
  -9  -5   2  453.95   20.69
  -9  -5   3   62.25    5.35
  -9  -5   3   64.52    6.56
  -9  -5   4    1.76    1.32
  -9  -5   4    1.00    1.50
  -9  -5   5   72.40    6.70
  -9  -5   6  147.77   11.92
  -9  -5   6  125.09    9.06
  -9  -5   7  145.18   12.01
  -9  -5   7  132.81    9.24
  -9  -5   8  102.44   10.22
  -9  -5   8   83.95    7.07
  -9  -5   9   11.82    4.03
  -9  -5  10   25.69    5.53
  -9  -4 -12   39.21    7.10
  -9  -4 -11   37.97    6.72
  -9  -4 -10    5.05    3.25
  -9  -4  -9    6.08    3.16
  -9  -4  -8   57.34    7.44
  -9  -4  -7  148.29   12.02
  -9  -4  -6   99.42    9.34
  -9  -4  -5   43.38    5.93
  -9  -4  -4    0.01    1.66
  -9  -4  -3   15.42    3.40
  -9  -4  -2   44.02    5.55
  -9  -4  -1  301.78   15.88
  -9  -4   0  232.02   13.14
  -9  -4   1    1.26    1.39
  -9  -4   2   22.67    3.50
  -9  -4   3   39.55    4.47
  -9  -4   4   87.14    7.22
  -9  -4   5  218.83   12.16
  -9  -4   6   72.97    8.25
  -9  -4   6   85.72    6.87
  -9  -4   7   15.06    4.35
  -9  -4   7   21.32    3.34
  -9  -4   8    1.46    2.84
  -9  -4   8    1.54    1.31
  -9  -4   9   42.86    6.93
  -9  -4  10   70.35    8.71
  -9  -3 -11   29.40    5.82
  -9  -3 -10   96.75   10.43
  -9  -3  -9  155.49   13.25
  -9  -3  -8  213.40   15.35
  -9  -3  -7   74.53    8.41
  -9  -3  -6    4.51    2.98
  -9  -3  -5  162.65   12.33
  -9  -3  -4  531.11   24.99
  -9  -3  -3  256.34   15.26
  -9  -3  -2  102.22    8.84
  -9  -3  -1   10.69    2.99
  -9  -3   0   93.27    7.97
  -9  -3   1  254.91   14.05
  -9  -3   2  389.46   17.83
  -9  -3   2  339.44   17.35
  -9  -3   3  143.58    9.62
  -9  -3   3  136.69   10.11
  -9  -3   4   29.90    5.44
  -9  -3   5    1.48    1.69
  -9  -3   5    3.11    1.67
  -9  -3   6  113.96   10.50
  -9  -3   6  117.81   10.52
  -9  -3   6  129.00    8.17
  -9  -3   7   86.77    9.28
  -9  -3   7   93.51    6.53
  -9  -3   7   80.93    9.01
  -9  -3   8  136.98   11.77
  -9  -3   8  124.59   11.71
  -9  -3   9   76.00    8.84
  -9  -3   9   59.70    8.38
  -9  -3  10    2.29    2.18
  -9  -3  10    4.32    2.27
  -9  -3  11   25.40    5.65
  -9  -2 -11  116.56   12.17
  -9  -2 -10   14.73    4.29
  -9  -2  -9    0.96    2.90
  -9  -2  -8    8.34    3.87
  -9  -2  -7   59.14    8.00
  -9  -2  -6   85.97    9.14
  -9  -2  -5   25.30    4.99
  -9  -2  -4   23.13    4.46
  -9  -2  -3   -6.18    2.76
  -9  -2  -2   26.89    4.56
  -9  -2  -1   87.67    8.03
  -9  -2  -1   68.79    5.64
  -9  -2   0   45.72    5.78
  -9  -2   0   48.12    4.97
  -9  -2   1   29.77    4.57
  -9  -2   1   26.75    3.95
  -9  -2   2   15.73    3.28
  -9  -2   2   13.29    3.39
  -9  -2   3    3.36    2.14
  -9  -2   3   -0.01    1.46
  -9  -2   4    8.63    2.93
  -9  -2   5   60.58    7.07
  -9  -2   6  165.44   12.45
  -9  -2   6  159.01   12.36
  -9  -2   6  157.31    8.96
  -9  -2   7   15.26    4.34
  -9  -2   7   12.74    3.85
  -9  -2   8   24.69    5.15
  -9  -2   8   17.01    4.83
  -9  -2   9   -0.86    2.76
  -9  -2   9  -12.00    4.13
  -9  -2  10   23.87    5.23
  -9  -2  10    9.19    3.41
  -9  -2  11  113.14   11.45
  -9  -1 -10   -5.13    3.10
  -9  -1  -9   33.45    6.34
  -9  -1  -8  105.40   10.84
  -9  -1  -7  238.50   16.64
  -9  -1  -6  131.53   11.80
  -9  -1  -5   13.21    3.66
  -9  -1  -4    4.31    2.71
  -9  -1  -3   93.49    9.10
  -9  -1  -3   83.41    5.50
  -9  -1  -2  293.78   17.31
  -9  -1  -2  305.66   13.53
  -9  -1  -1  252.76   15.51
  -9  -1  -1  261.85   12.86
  -9  -1   0  181.59   12.59
  -9  -1   0  196.85   11.17
  -9  -1   1    2.83    1.87
  -9  -1   1    0.85    1.38
  -9  -1   1   -1.05    1.83
  -9  -1   2   43.60    5.83
  -9  -1   2   35.81    5.01
  -9  -1   2   46.65    5.23
  -9  -1   3  190.48   11.36
  -9  -1   3  201.23   12.78
  -9  -1   4  225.62   12.31
  -9  -1   4  253.91   15.00
  -9  -1   5  137.36   11.13
  -9  -1   6   28.29    5.03
  -9  -1   6   28.32    5.27
  -9  -1   6   32.48    3.55
  -9  -1   7   55.82    7.29
  -9  -1   7   54.96    7.53
  -9  -1   8   91.13    9.32
  -9  -1   8   78.07    9.36
  -9  -1   9  103.37   10.37
  -9  -1   9   96.57   10.73
  -9  -1  10  114.55   11.02
  -9  -1  10   89.74   10.44
  -9  -1  11   10.21    3.86
  -9   0  -9  113.49   11.78
  -9   0  -8   40.61    6.90
  -9   0  -7    6.61    3.67
  -9   0  -6   35.92    6.57
  -9   0  -5  183.94   14.88
  -9   0  -4  139.99   11.99
  -9   0  -3   87.95    9.13
  -9   0  -3   79.13    5.77
  -9   0  -2    9.41    2.86
  -9   0  -2    7.35    2.01
  -9   0  -1    2.82    2.25
  -9   0  -1    3.49    1.91
  -9   0   0   53.00    6.70
  -9   0   0   38.84    4.78
  -9   0   1  126.43   10.64
  -9   0   1  125.15    9.31
  -9   0   2   21.37    4.29
  -9   0   2   15.38    3.34
  -9   0   2   19.00    3.62
  -9   0   3   46.12    6.01
  -9   0   3   52.41    5.52
  -9   0   4    7.31    2.57
  -9   0   5    4.08    2.64
  -9   0   6   13.21    3.70
  -9   0   6   13.50    3.92
  -9   0   7   32.54    5.68
  -9   0   7   25.19    5.42
  -9   0   8   51.99    7.18
  -9   0   8   45.41    7.23
  -9   0   9   57.62    7.40
  -9   0   9   52.73    7.92
  -9   0  10   21.02    5.14
  -9   0  10   24.12    5.98
  -9   0  11   13.50    4.17
  -9   1  -8   65.52    8.77
  -9   1  -7  128.63   12.29
  -9   1  -6  153.93   13.32
  -9   1  -5  157.91   13.25
  -9   1  -4    9.25    3.93
  -9   1  -3   25.47    5.56
  -9   1  -3   28.53    3.76
  -9   1  -2  178.39   13.99
  -9   1  -2  179.07   10.60
  -9   1  -1  220.84   15.44
  -9   1  -1  221.41   12.56
  -9   1   0  311.35   18.92
  -9   1   0  330.24   16.62
  -9   1   1   90.41    9.34
  -9   1   1   91.08    8.07
  -9   1   2    3.58    1.94
  -9   1   3   48.48    6.25
  -9   1   4  212.36   14.49
  -9   1   5  288.99   17.87
  -9   1   6  237.01   14.85
  -9   1   6  200.42   15.16
  -9   1   7   11.87    3.90
  -9   1   7    6.40    3.01
  -9   1   8   -0.60    2.60
  -9   1   8    2.58    2.61
  -9   1   9   69.26    8.58
  -9   1   9   63.67    8.87
  -9   1  10  181.12   13.99
  -9   1  11  123.66   11.63
  -9   2  -6    4.20    2.70
  -9   2  -5   15.19    4.69
  -9   2  -4   21.11    5.17
  -9   2  -3   89.81   10.03
  -9   2  -2   25.36    5.59
  -9   2  -2   32.17    4.51
  -9   2  -1   13.41    4.41
  -9   2  -1   10.64    2.90
  -9   2   0    5.11    3.26
  -9   2   0    7.83    2.83
  -9   2   1   23.62    4.53
  -9   2   2   26.17    4.83
  -9   2   3   40.40    6.16
  -9   2   4   45.33    6.75
  -9   2   5   19.13    4.07
  -9   2   5   17.89    4.47
  -9   2   6    3.89    2.96
  -9   2   6    6.19    3.28
  -9   2   7   39.95    6.12
  -9   2   7   51.87    7.95
  -9   2   8   13.99    4.22
  -9   2   8   13.58    4.71
  -9   2   9   83.85    9.36
  -9   2  10   64.83    8.35
  -9   3  -3   32.29    6.20
  -9   3  -2   -1.40    2.85
  -9   3  -1   66.11    8.64
  -9   3  -1   58.52    6.71
  -9   3   0  204.93   13.65
  -9   3   1  143.25   11.44
  -9   3   2   73.52    8.50
  -9   3   3    2.05    3.29
  -9   3   4   54.79    6.59
  -9   3   4   51.12    7.37
  -9   3   5  116.04   11.58
  -9   3   6  120.82   11.81
  -9   3   7   99.10   11.17
  -9   4   0    3.48    2.79
  -9   4   1    4.02    4.46
  -9   4   2   -2.63    2.88
  -9   4   3   24.34    5.30
  -9   4   4   34.59    6.63
  -9   4   5   21.43    5.42
  -9   5   2  110.09   11.52
  -8 -13  -7    9.04    4.67
  -8 -13  -6   15.75    5.03
  -8 -13  -5   19.60    5.25
  -8 -12  -9    3.13    3.70
  -8 -12  -8   22.20    5.31
  -8 -12  -7  100.04   10.42
  -8 -12  -7   98.81   10.96
  -8 -12  -6   43.91    7.06
  -8 -12  -6   66.99    8.89
  -8 -12  -5   52.51    7.13
  -8 -12  -5   60.10    8.71
  -8 -12  -4    3.67    3.26
  -8 -12  -4    1.15    1.85
  -8 -12  -3   38.93    5.46
  -8 -12  -3   42.78    6.71
  -8 -12  -2   83.50    9.93
  -8 -12  -1   85.47    7.91
  -8 -12  -1   77.76    9.55
  -8 -12   0   45.71    5.82
  -8 -12   0   54.57    7.83
  -8 -12   1    4.87    2.37
  -8 -12   1    3.49    2.64
  -8 -12   2   28.82    4.91
  -8 -12   2   31.32    6.34
  -8 -12   3   44.04    6.30
  -8 -12   4   65.05    7.84
  -8 -12   5   30.37    6.00
  -8 -12   6    7.39    4.23
  -8 -11 -10   55.75    8.44
  -8 -11 -10   45.22    7.35
  -8 -11  -9   27.09    5.72
  -8 -11  -9   27.02    5.56
  -8 -11  -8    8.62    3.78
  -8 -11  -8   16.98    4.54
  -8 -11  -7   -1.37    2.91
  -8 -11  -7    2.22    2.50
  -8 -11  -6   51.79    7.04
  -8 -11  -6   56.02    7.90
  -8 -11  -5   11.86    3.77
  -8 -11  -5   21.10    5.23
  -8 -11  -4   22.98    4.36
  -8 -11  -4   20.85    4.81
  -8 -11  -3   15.71    3.45
  -8 -11  -3   12.55    3.98
  -8 -11  -2   11.82    2.68
  -8 -11  -2   12.51    4.39
  -8 -11  -1   -0.76    1.47
  -8 -11  -1    2.95    2.24
  -8 -11   0    1.60    1.80
  -8 -11   0   -0.30    2.06
  -8 -11   1    5.52    2.29
  -8 -11   1    3.23    2.28
  -8 -11   2    4.61    2.21
  -8 -11   2    3.15    2.43
  -8 -11   3   20.07    4.32
  -8 -11   3   18.86    4.99
  -8 -11   4   19.33    4.83
  -8 -11   4   23.95    5.16
  -8 -11   5   10.63    4.03
  -8 -11   5   11.03    3.54
  -8 -11   6    6.00    3.64
  -8 -11   6    2.84    2.17
  -8 -11   7   40.27    6.72
  -8 -11   8    6.14    3.13
  -8 -10 -12   35.11    6.72
  -8 -10 -11   72.73    9.59
  -8 -10 -11   83.39    9.97
  -8 -10 -10   10.58    3.49
  -8 -10 -10   17.85    4.59
  -8 -10  -9    2.73    2.73
  -8 -10  -9    3.58    2.99
  -8 -10  -8    2.37    3.29
  -8 -10  -8    3.41    3.06
  -8 -10  -7   57.48    7.54
  -8 -10  -7   43.53    7.06
  -8 -10  -6  155.25   12.15
  -8 -10  -6  191.67   14.44
  -8 -10  -5   89.63    8.44
  -8 -10  -5   71.50    8.70
  -8 -10  -4    4.37    2.09
  -8 -10  -4    5.89    3.21
  -8 -10  -3    7.13    2.59
  -8 -10  -3    2.56    2.47
  -8 -10  -2   49.02    5.48
  -8 -10  -2   51.55    7.29
  -8 -10  -1  124.71    8.50
  -8 -10  -1  110.20   10.65
  -8 -10   0   98.62    7.00
  -8 -10   0  107.15   10.30
  -8 -10   1   51.81    4.37
  -8 -10   1   44.59    6.61
  -8 -10   2   -1.96    2.50
  -8 -10   2    4.74    3.28
  -8 -10   3   23.98    4.49
  -8 -10   3   22.27    4.98
  -8 -10   4   42.20    6.09
  -8 -10   4   56.23    7.64
  -8 -10   5   45.04    6.49
  -8 -10   5   54.07    7.60
  -8 -10   6   30.50    5.69
  -8 -10   6   21.64    5.30
  -8 -10   7   65.77    8.21
  -8 -10   7   55.83    7.65
  -8 -10   8    0.97    2.30
  -8 -10   8    1.50    2.28
  -8 -10   9    7.50    3.47
  -8 -10   9    6.86    3.31
  -8 -10  10   20.31    5.11
  -8  -9 -11   32.31    6.30
  -8  -9 -10    9.66    4.11
  -8  -9  -9   -0.78    2.57
  -8  -9  -8   12.59    4.01
  -8  -9  -8   10.75    3.70
  -8  -9  -7   31.56    5.65
  -8  -9  -7   43.90    6.83
  -8  -9  -6   50.27    6.52
  -8  -9  -6   44.70    6.59
  -8  -9  -5   22.07    4.23
  -8  -9  -5   22.48    4.85
  -8  -9  -4    3.71    1.62
  -8  -9  -4   -1.49    2.52
  -8  -9  -3   18.04    3.37
  -8  -9  -3   11.24    5.06
  -8  -9  -2   69.03    6.33
  -8  -9  -2   72.42    8.13
  -8  -9  -1   78.87    6.47
  -8  -9  -1   90.53    9.05
  -8  -9   0   44.02    4.36
  -8  -9   0   45.54    6.45
  -8  -9   1   17.22    2.49
  -8  -9   1   19.13    4.48
  -8  -9   2    1.18    0.76
  -8  -9   2    0.05    2.28
  -8  -9   3   60.52    6.94
  -8  -9   3   59.27    7.30
  -8  -9   4  101.67    9.26
  -8  -9   4   89.67    9.24
  -8  -9   5   81.74    8.51
  -8  -9   5   78.91    8.65
  -8  -9   6    6.97    3.49
  -8  -9   6    7.57    3.06
  -8  -9   7   -0.29    2.61
  -8  -9   7    2.03    2.31
  -8  -9   8   11.23    3.98
  -8  -9   8    8.42    3.41
  -8  -9   9   39.63    6.39
  -8  -9   9   29.45    5.38
  -8  -9  10   54.10    7.60
  -8  -9  11   21.70    5.25
  -8  -8 -12    9.84    4.26
  -8  -8 -11   24.80    5.45
  -8  -8 -10  112.85   11.18
  -8  -8  -9   83.56    9.22
  -8  -8  -8   92.93    9.39
  -8  -8  -7   14.02    3.84
  -8  -8  -6   65.51    7.31
  -8  -8  -5  102.09    8.75
  -8  -8  -4  192.21   11.88
  -8  -8  -4  157.84   12.25
  -8  -8  -3  175.11   11.03
  -8  -8  -3  172.61   12.57
  -8  -8  -2   40.00    4.71
  -8  -8  -2   38.19    5.60
  -8  -8  -1    2.97    1.58
  -8  -8  -1   11.98    3.42
  -8  -8   0  145.64    8.45
  -8  -8   0  133.57   10.77
  -8  -8   1  171.77    8.69
  -8  -8   1  148.89   11.46
  -8  -8   2   96.88    5.62
  -8  -8   2  101.61    9.11
  -8  -8   3   20.37    1.70
  -8  -8   3   19.59    4.22
  -8  -8   4    7.72    2.68
  -8  -8   4    2.78    2.23
  -8  -8   5    8.62    3.22
  -8  -8   5    4.86    2.44
  -8  -8   6   93.15    9.21
  -8  -8   6   76.72    8.11
  -8  -8   7  123.93   11.07
  -8  -8   7   97.52    9.29
  -8  -8   8   23.35    5.15
  -8  -8   8   21.37    4.60
  -8  -8   9   15.32    4.46
  -8  -8   9   14.23    3.95
  -8  -8  10   -0.32    1.78
  -8  -8  10    2.97    3.01
  -8  -8  11   20.47    4.78
  -8  -7 -12  116.32   11.71
  -8  -7 -11   33.70    6.34
  -8  -7 -10    0.52    3.18
  -8  -7  -9   28.72    5.62
  -8  -7  -8   88.64    9.01
  -8  -7  -7   73.67    7.84
  -8  -7  -6  172.35   12.07
  -8  -7  -5    2.64    2.36
  -8  -7  -4   -0.06    1.55
  -8  -7  -3   10.57    2.44
  -8  -7  -2   27.55    3.98
  -8  -7  -2   23.11    4.33
  -8  -7  -1   77.62    6.22
  -8  -7  -1   69.32    7.37
  -8  -7   0  107.60    7.05
  -8  -7   0   98.87    8.78
  -8  -7   1  112.38    6.83
  -8  -7   1  103.96    8.90
  -8  -7   2   35.13    3.28
  -8  -7   2   30.71    4.73
  -8  -7   3    3.79    0.99
  -8  -7   3    1.96    1.90
  -8  -7   4   54.05    7.01
  -8  -7   4   56.97    6.42
  -8  -7   5  176.78   12.68
  -8  -7   5  164.32   11.44
  -8  -7   6  232.18   15.17
  -8  -7   6  238.50   14.27
  -8  -7   7  139.32   11.53
  -8  -7   7  134.64   10.22
  -8  -7   8    4.00    3.27
  -8  -7   8    3.07    1.93
  -8  -7   9   33.05    6.15
  -8  -7   9   23.99    4.55
  -8  -7  10  127.44   11.96
  -8  -7  10  109.60    9.42
  -8  -6 -13  108.97   11.81
  -8  -6 -12    7.35    3.41
  -8  -6 -11    1.05    2.74
  -8  -6 -10  117.21   11.10
  -8  -6  -9  152.08   12.35
  -8  -6  -8  123.77   10.66
  -8  -6  -7  196.05   13.32
  -8  -6  -6   43.88    5.87
  -8  -6  -5  106.00    8.76
  -8  -6  -4  364.28   17.87
  -8  -6  -3  506.27   21.95
  -8  -6  -2  332.08   15.83
  -8  -6  -1   82.84    6.54
  -8  -6   0  179.73    9.90
  -8  -6   0  176.33   11.65
  -8  -6   1  422.18   17.01
  -8  -6   1  396.30   19.43
  -8  -6   2  443.53   16.97
  -8  -6   2  408.38   19.82
  -8  -6   3  245.84   10.60
  -8  -6   3  257.16   14.14
  -8  -6   4   69.71    6.65
  -8  -6   5   16.02    3.99
  -8  -6   5   18.99    3.54
  -8  -6   6   89.36    8.84
  -8  -6   6   85.66    7.49
  -8  -6   7  101.64    9.63
  -8  -6   7  100.90    8.24
  -8  -6   8  119.45   11.00
  -8  -6   8  132.44    9.41
  -8  -6   9   60.39    8.07
  -8  -6   9   58.56    6.21
  -8  -6  10   17.40    5.81
  -8  -6  10   17.53    3.48
  -8  -6  11    0.78    2.10
  -8  -5 -13    4.83    3.11
  -8  -5 -12   60.62    8.43
  -8  -5 -11    3.18    3.16
  -8  -5 -10  123.01   11.34
  -8  -5  -9   -1.30    2.07
  -8  -5  -8    6.57    2.99
  -8  -5  -7    1.20    1.81
  -8  -5  -6   52.94    6.41
  -8  -5  -5   67.99    6.85
  -8  -5  -4   78.53    7.21
  -8  -5  -3    5.33    1.75
  -8  -5  -2    1.66    1.37
  -8  -5  -1   47.44    4.99
  -8  -5   0  385.90   16.95
  -8  -5   1   77.27    6.04
  -8  -5   2   35.96    3.77
  -8  -5   2   33.50    4.53
  -8  -5   3   39.24    3.75
  -8  -5   3   40.44    4.83
  -8  -5   4   36.03    4.55
  -8  -5   5  215.90   13.95
  -8  -5   5  226.00   12.42
  -8  -5   6  175.83   12.53
  -8  -5   6  163.37   10.23
  -8  -5   7   88.52    8.84
  -8  -5   7   87.45    7.10
  -8  -5   8   33.48    5.71
  -8  -5   8   20.34    3.26
  -8  -5   9    3.23    3.35
  -8  -5   9    3.78    1.72
  -8  -5  10   73.21    8.77
  -8  -5  10   61.92    5.87
  -8  -5  11   65.94    8.49
  -8  -4 -13  163.48   14.26
  -8  -4 -12   97.94   10.77
  -8  -4 -11   -1.32    2.73
  -8  -4 -10   16.37    4.11
  -8  -4  -9  109.09   10.31
  -8  -4  -8   80.82    8.51
  -8  -4  -7  257.72   15.66
  -8  -4  -6  136.18   10.46
  -8  -4  -5   36.33    5.06
  -8  -4  -4   21.41    3.85
  -8  -4  -3   30.14    4.41
  -8  -4  -2  235.26   13.06
  -8  -4  -1  327.62   15.86
  -8  -4   0  495.23   20.75
  -8  -4   1   13.81    2.66
  -8  -4   2   42.76    4.40
  -8  -4   3  115.30    7.31
  -8  -4   3  112.52    8.11
  -8  -4   4  205.48   11.45
  -8  -4   5  247.39   12.70
  -8  -4   6   28.08    4.82
  -8  -4   6   31.66    3.91
  -8  -4   7   -2.22    2.61
  -8  -4   7   -2.73    1.44
  -8  -4   8   53.92    7.05
  -8  -4   8   52.89    4.93
  -8  -4   9  135.15   11.60
  -8  -4   9  127.69    7.99
  -8  -4  10  133.53   11.96
  -8  -4  11   53.48    7.85
  -8  -4  12    3.76    2.86
  -8  -3 -13   34.45    6.64
  -8  -3 -12   -2.52    3.61
  -8  -3 -11   53.86    7.72
  -8  -3 -10   92.58    9.82
  -8  -3  -9   58.49    7.58
  -8  -3  -8   19.33    4.46
  -8  -3  -7   14.86    3.95
  -8  -3  -6   27.15    4.68
  -8  -3  -5   13.98    3.40
  -8  -3  -4  172.74   11.62
  -8  -3  -3   59.87    6.36
  -8  -3  -2   67.60    6.59
  -8  -3  -1    5.70    2.04
  -8  -3   0   15.76    3.02
  -8  -3   1   98.09    7.45
  -8  -3   2  136.37    8.69
  -8  -3   2  118.12    8.60
  -8  -3   3  214.12   11.43
  -8  -3   3  213.89   12.58
  -8  -3   4  129.45    9.73
  -8  -3   4  132.78    8.44
  -8  -3   5   28.63    4.56
  -8  -3   5   30.40    3.66
  -8  -3   6   31.59    5.10
  -8  -3   6   26.13    4.72
  -8  -3   6   31.94    3.68
  -8  -3   7  102.70    9.35
  -8  -3   7   93.80    9.22
  -8  -3   7   96.23    6.45
  -8  -3   8  149.16   11.81
  -8  -3   8  163.23    8.53
  -8  -3   8  144.96   12.24
  -8  -3   9  209.16   14.62
  -8  -3   9  201.67   15.14
  -8  -3  10   27.44    5.35
  -8  -3  10   34.78    6.39
  -8  -3  11   10.44    3.69
  -8  -3  12  108.98   11.15
  -8  -2 -12  108.01   11.16
  -8  -2 -11  125.30   11.92
  -8  -2 -10  100.81   10.40
  -8  -2  -9    5.17    3.22
  -8  -2  -8   13.08    3.72
  -8  -2  -7  289.39   17.31
  -8  -2  -6  470.59   23.17
  -8  -2  -5  200.63   13.32
  -8  -2  -4  230.97   14.19
  -8  -2  -3    5.08    2.44
  -8  -2  -2  330.25   17.16
  -8  -2  -1  865.17   34.15
  -8  -2  -1  920.01   31.19
  -8  -2   0  856.72   33.84
  -8  -2   0  944.19   32.36
  -8  -2   1  187.40   11.24
  -8  -2   1  174.62   10.33
  -8  -2   2    0.94    1.62
  -8  -2   2    0.43    1.42
  -8  -2   3  271.39   13.94
  -8  -2   3  258.14   14.21
  -8  -2   4  482.10   21.98
  -8  -2   5  483.84   23.44
  -8  -2   5  550.39   20.62
  -8  -2   6  346.67   18.64
  -8  -2   6  318.56   18.22
  -8  -2   6  367.01   14.83
  -8  -2   7    4.83    2.62
  -8  -2   7    0.84    1.87
  -8  -2   7    0.27    0.84
  -8  -2   8   37.78    3.20
  -8  -2   8   47.31    6.70
  -8  -2   8   39.27    6.05
  -8  -2   9   73.77    8.83
  -8  -2   9   70.90    8.25
  -8  -2  10  125.41   11.90
  -8  -2  10  121.44   11.29
  -8  -2  11  148.97   13.49
  -8  -2  11  151.00   12.81
  -8  -2  12  102.35   11.51
  -8  -2  12  121.78   11.61
  -8  -1 -12   27.68    5.68
  -8  -1 -11    1.33    2.97
  -8  -1 -10   45.00    7.17
  -8  -1  -9   89.70    9.81
  -8  -1  -8  146.42   12.30
  -8  -1  -7   88.60    9.21
  -8  -1  -6   11.06    3.40
  -8  -1  -5   34.33    5.65
  -8  -1  -4   68.17    3.76
  -8  -1  -4   57.07    6.83
  -8  -1  -3  120.61    6.47
  -8  -1  -3  134.27   10.34
  -8  -1  -2  140.12    7.68
  -8  -1  -2  137.30   10.37
  -8  -1  -1   45.04    4.36
  -8  -1  -1   49.32    5.89
  -8  -1   0   23.25    3.30
  -8  -1   0   23.49    4.18
  -8  -1   1   49.20    5.14
  -8  -1   1   58.70    6.17
  -8  -1   2  116.86    8.69
  -8  -1   2  145.07    9.92
  -8  -1   3  133.31    9.58
  -8  -1   3  129.43    9.48
  -8  -1   4  109.11    8.96
  -8  -1   5   27.67    4.20
  -8  -1   5   24.37    3.18
  -8  -1   5   38.62    5.40
  -8  -1   6    0.77    1.49
  -8  -1   6   -0.86    1.80
  -8  -1   6    2.43    1.85
  -8  -1   6    1.87    1.10
  -8  -1   6    3.59    1.49
  -8  -1   7   71.32    7.81
  -8  -1   7   82.41    4.84
  -8  -1   7   73.19    8.14
  -8  -1   7   83.09    7.24
  -8  -1   8   89.09    8.72
  -8  -1   8   75.58    8.64
  -8  -1   8   87.06    7.61
  -8  -1   9  136.16   11.41
  -8  -1   9  138.64   12.23
  -8  -1  10   58.96    8.10
  -8  -1  10   76.59    9.18
  -8  -1  11    9.47    3.52
  -8  -1  11    4.56    3.03
  -8  -1  12    6.23    2.87
  -8   0 -11  244.11   17.88
  -8   0 -10   89.77   10.29
  -8   0  -9   91.68   10.11
  -8   0  -8    1.14    2.69
  -8   0  -7   64.15    8.13
  -8   0  -6  242.88   16.10
  -8   0  -5  152.23   12.36
  -8   0  -5  184.56    7.39
  -8   0  -4  193.63   13.30
  -8   0  -4  166.62    7.98
  -8   0  -3   33.54    5.41
  -8   0  -3   42.47    4.02
  -8   0  -2   -1.06    1.81
  -8   0  -2    1.00    1.20
  -8   0  -1  114.89    9.50
  -8   0  -1  109.44    7.41
  -8   0   0  108.88    9.23
  -8   0   0  120.96    8.89
  -8   0   0  120.80    8.17
  -8   0   1  432.27   21.12
  -8   0   1  435.38   19.54
  -8   0   1  463.97   20.03
  -8   0   2  174.23   11.62
  -8   0   2  127.82    9.06
  -8   0   2  176.91   10.88
  -8   0   3   29.55    3.99
  -8   0   3   31.00    4.60
  -8   0   4    7.04    2.10
  -8   0   4    2.71    1.56
  -8   0   5  191.08   13.13
  -8   0   5  205.33   10.13
  -8   0   5  208.70   12.46
  -8   0   6  349.70   18.20
  -8   0   6  348.95   19.03
  -8   0   6  313.78   16.34
  -8   0   7  186.04   12.66
  -8   0   7  175.70   13.31
  -8   0   7  176.09   11.26
  -8   0   8   39.70    6.00
  -8   0   8   57.36    7.48
  -8   0   9    1.76    2.55
  -8   0   9    0.24    2.65
  -8   0  10   43.34    6.77
  -8   0  10   48.38    7.70
  -8   0  11  203.75   15.04
  -8   0  11  215.45   16.60
  -8   0  12  114.55   11.15
  -8   1 -10   -6.28    3.29
  -8   1  -9   13.97    4.49
  -8   1  -8  178.86   14.49
  -8   1  -7  193.29   14.74
  -8   1  -6  239.77   16.30
  -8   1  -5   -1.05    2.65
  -8   1  -5    1.98    1.07
  -8   1  -4    9.93    3.61
  -8   1  -4    4.90    1.72
  -8   1  -3  150.67   12.05
  -8   1  -3  169.69    9.25
  -8   1  -2  362.48   19.43
  -8   1  -2  328.36   15.26
  -8   1  -1  247.72   15.76
  -8   1  -1  271.67   13.58
  -8   1   0   97.36    9.02
  -8   1   0   92.40    7.47
  -8   1   1   19.39    4.17
  -8   1   1   30.68    4.47
  -8   1   1   26.08    4.08
  -8   1   2   70.79    6.94
  -8   1   2   59.77    5.92
  -8   1   3   89.27    8.17
  -8   1   3   86.11    6.89
  -8   1   4  209.83   10.90
  -8   1   4  191.08   13.08
  -8   1   5   96.75    9.13
  -8   1   6   83.47    7.95
  -8   1   6   80.22    8.64
  -8   1   7    0.76    2.57
  -8   1   7    1.85    2.26
  -8   1   8    7.53    2.65
  -8   1   8   13.90    3.97
  -8   1   9   26.67    5.04
  -8   1   9   31.00    5.95
  -8   1  10   96.78    9.61
  -8   1  10   78.86    9.60
  -8   1  11   75.36    8.86
  -8   1  12   12.14    4.16
  -8   2  -9  138.16   12.93
  -8   2  -8   99.83   10.75
  -8   2  -7   42.12    6.95
  -8   2  -6   12.59    4.15
  -8   2  -5  192.13   14.59
  -8   2  -4   86.53    9.65
  -8   2  -4   95.89    6.90
  -8   2  -3  269.36   17.62
  -8   2  -3  316.24   14.65
  -8   2  -2  120.96   11.05
  -8   2  -2  138.07    9.07
  -8   2  -1    2.62    2.41
  -8   2  -1   -0.74    1.39
  -8   2   0   81.00    8.78
  -8   2   0   84.37    7.45
  -8   2   1  346.94   19.66
  -8   2   1  347.66   17.73
  -8   2   2  231.38   13.24
  -8   2   2  248.95   14.59
  -8   2   3  152.33    9.82
  -8   2   3  155.86   11.53
  -8   2   4   35.07    5.58
  -8   2   5   58.19    6.54
  -8   2   5   60.71    7.48
  -8   2   6   46.76    5.87
  -8   2   6   34.53    6.29
  -8   2   7  349.81   18.32
  -8   2   7  322.25   20.11
  -8   2   8  102.50    9.21
  -8   2   8   99.50   10.63
  -8   2   9   36.83    6.01
  -8   2   9   36.62    6.35
  -8   2  10    9.75    4.02
  -8   2  11   16.08    4.56
  -8   2  12   50.56    7.51
  -8   3  -7   28.77    5.82
  -8   3  -6   89.25   10.05
  -8   3  -5   57.05    7.92
  -8   3  -4    3.61    3.13
  -8   3  -4    9.79    2.64
  -8   3  -3    0.98    2.90
  -8   3  -3    2.26    1.52
  -8   3  -2   38.14    6.64
  -8   3  -2   28.37    4.36
  -8   3  -1   26.14    5.65
  -8   3  -1   34.27    4.74
  -8   3   0   48.45    5.87
  -8   3   1   19.38    4.09
  -8   3   2   17.25    3.91
  -8   3   3    0.14    2.34
  -8   3   4   29.79    5.74
  -8   3   5   89.09    7.83
  -8   3   5   83.46    9.39
  -8   3   6   11.24    3.06
  -8   3   6   13.10    4.56
  -8   3   7  131.55   10.19
  -8   3   7  131.54   12.34
  -8   3   8    1.68    2.54
  -8   3   8    6.83    3.72
  -8   3   9   -0.30    2.52
  -8   4  -4   71.84    9.35
  -8   4  -3  160.57   13.72
  -8   4  -3  126.62    9.94
  -8   4  -2  199.07   15.77
  -8   4  -2  196.80   12.85
  -8   4  -1   95.79    8.79
  -8   4   0    8.04    3.16
  -8   4   1   39.17    5.98
  -8   4   2   26.88    5.20
  -8   4   3  154.26   12.52
  -8   4   4  187.37   14.52
  -8   4   5   33.80    6.19
  -8   4   6    9.50    3.95
  -8   4   7   34.69    6.52
  -8   5  -1   27.85    5.47
  -8   5   0   88.20    9.29
  -8   5   1   91.45    9.76
  -8   5   2   19.02    4.72
  -8   5   3   10.35    4.30
  -8   5   4   -7.19    3.34
  -8   5   5   23.85    5.18
  -8   6   0   81.52    9.54
  -8   6   1   33.85    6.49
  -8   6   2    1.44    2.46
  -7 -13  -7   50.51    7.76
  -7 -13  -6   48.14    7.52
  -7 -13  -5   81.56    9.33
  -7 -13  -4    7.99    3.87
  -7 -12  -9    3.95    3.54
  -7 -12  -9    0.53    2.80
  -7 -12  -8   20.75    5.22
  -7 -12  -8   25.16    5.53
  -7 -12  -7    0.07    3.42
  -7 -12  -7   -0.45    1.97
  -7 -12  -6   13.95    4.72
  -7 -12  -6   12.61    3.88
  -7 -12  -5   -0.81    2.92
  -7 -12  -5   -5.72    2.89
  -7 -12  -4    2.31    2.44
  -7 -12  -4    0.93    2.89
  -7 -12  -3    3.51    2.22
  -7 -12  -3    4.74    2.97
  -7 -12  -2    8.29    2.68
  -7 -12  -2    9.88    3.82
  -7 -12  -1   50.89    7.75
  -7 -12   0    7.87    3.20
  -7 -12   1   20.00    4.81
  -7 -12   2    7.34    3.37
  -7 -11 -12    2.24    2.48
  -7 -11 -11   26.33    5.36
  -7 -11 -10   54.48    8.45
  -7 -11 -10   52.93    7.69
  -7 -11  -9   81.13    9.74
  -7 -11  -9   65.01    8.60
  -7 -11  -8   49.65    7.52
  -7 -11  -8   46.28    6.94
  -7 -11  -7    3.82    3.25
  -7 -11  -7   -6.11    3.35
  -7 -11  -6    7.91    3.71
  -7 -11  -6    9.50    3.65
  -7 -11  -5  193.11   13.44
  -7 -11  -5  191.55   14.57
  -7 -11  -4   30.02    4.90
  -7 -11  -4   25.21    5.48
  -7 -11  -3   78.29    7.50
  -7 -11  -3   75.97    8.96
  -7 -11  -2   32.15    4.52
  -7 -11  -2   31.50    6.09
  -7 -11  -1    3.81    4.23
  -7 -11  -1    5.16    1.96
  -7 -11  -1    0.21    2.64
  -7 -11   0   56.99    6.01
  -7 -11   0   63.89    5.66
  -7 -11   0   65.98    8.40
  -7 -11   1   95.97    8.02
  -7 -11   1   84.62    9.51
  -7 -11   2   69.82    6.92
  -7 -11   2   65.32    8.66
  -7 -11   3   18.10    3.81
  -7 -11   3   27.45    5.56
  -7 -11   4   14.31    3.74
  -7 -11   4    9.41    4.13
  -7 -11   5   32.01    5.34
  -7 -11   5   36.05    6.20
  -7 -11   6   32.17    5.70
  -7 -11   6   37.18    6.53
  -7 -11   7   84.77    9.11
  -7 -11   7   88.21   10.24
  -7 -11   8   49.41    7.59
  -7 -11   9    2.91    3.10
  -7 -10 -14    4.26    4.01
  -7 -10 -13   34.59    6.32
  -7 -10 -12   58.90    8.09
  -7 -10 -11   58.11    8.57
  -7 -10 -11   49.88    7.35
  -7 -10 -10    0.93    3.46
  -7 -10 -10   -2.76    3.26
  -7 -10  -9   14.04    4.55
  -7 -10  -9    7.95    3.19
  -7 -10  -8   41.50    6.76
  -7 -10  -8   28.06    5.56
  -7 -10  -7   62.71    7.61
  -7 -10  -7   49.42    7.13
  -7 -10  -6   97.96    9.21
  -7 -10  -6   97.40    9.80
  -7 -10  -5  126.31   10.16
  -7 -10  -5  120.17   10.92
  -7 -10  -4    6.38    2.40
  -7 -10  -4    8.62    3.61
  -7 -10  -3    8.85    2.73
  -7 -10  -3    8.08    3.29
  -7 -10  -2   64.68    6.30
  -7 -10  -2   69.43    8.18
  -7 -10  -1  106.33    7.65
  -7 -10  -1  102.06    9.79
  -7 -10   0  101.91    7.06
  -7 -10   0   93.09    9.55
  -7 -10   1   55.21    4.58
  -7 -10   1   51.93    5.89
  -7 -10   1   58.65    7.55
  -7 -10   2   -3.98    1.99
  -7 -10   2    0.64    2.20
  -7 -10   3   28.41    4.53
  -7 -10   3   26.84    5.21
  -7 -10   4   29.48    4.74
  -7 -10   4   29.31    5.57
  -7 -10   5  112.69    9.94
  -7 -10   5  131.46   11.47
  -7 -10   6    3.64    2.25
  -7 -10   6    5.18    2.96
  -7 -10   7   40.94    6.32
  -7 -10   7   40.74    6.70
  -7 -10   8   -2.69    3.15
  -7 -10   8    3.99    3.51
  -7 -10   9    1.90    3.39
  -7 -10   9    1.73    3.10
  -7 -10  10   26.17    5.79
  -7 -10  10   35.96    6.39
  -7  -9 -14   48.23    7.25
  -7  -9 -13   36.97    6.33
  -7  -9 -12   23.20    5.23
  -7  -9 -12   36.53    6.60
  -7  -9 -11   -1.55    2.87
  -7  -9 -11    0.67    2.54
  -7  -9 -10   39.25    6.63
  -7  -9 -10   27.48    5.61
  -7  -9  -9  172.91   13.40
  -7  -9  -9  162.36   12.84
  -7  -9  -8  176.46   13.12
  -7  -9  -8  149.61   12.46
  -7  -9  -7   91.07    8.93
  -7  -9  -7   77.88    8.74
  -7  -9  -6    0.12    1.99
  -7  -9  -6    1.36    2.67
  -7  -9  -5   50.89    6.06
  -7  -9  -5   44.92    5.33
  -7  -9  -5   43.93    6.40
  -7  -9  -4  200.54   12.36
  -7  -9  -4  202.78   13.95
  -7  -9  -3  222.00   12.79
  -7  -9  -3  249.63   15.41
  -7  -9  -2  245.31   12.86
  -7  -9  -2  225.28   14.84
  -7  -9  -1   10.51    2.43
  -7  -9  -1    7.68    2.66
  -7  -9   0   14.67    2.52
  -7  -9   0   19.99    4.21
  -7  -9   1  222.03   10.19
  -7  -9   1  192.31   13.60
  -7  -9   2  173.83    7.87
  -7  -9   2  186.38   11.80
  -7  -9   2  168.21   12.53
  -7  -9   3  122.51    9.65
  -7  -9   3  148.01   11.53
  -7  -9   4   43.30    5.72
  -7  -9   4   41.28    6.09
  -7  -9   5   23.20    4.45
  -7  -9   5   17.73    4.23
  -7  -9   6  134.65   11.00
  -7  -9   6  124.24   10.68
  -7  -9   7   62.04    7.50
  -7  -9   7   63.15    7.66
  -7  -9   8   88.48    9.28
  -7  -9   8   87.32    9.29
  -7  -9   9   10.54    3.68
  -7  -9   9   13.43    4.41
  -7  -9  10   56.04    7.84
  -7  -9  10   39.43    6.72
  -7  -9  11    1.50    2.44
  -7  -9  12   18.18    5.35
  -7  -8 -13    8.03    3.71
  -7  -8 -12   79.82    9.58
  -7  -8 -11   63.48    8.53
  -7  -8 -10   23.02    5.22
  -7  -8  -9   -0.82    2.65
  -7  -8  -8    0.74    2.12
  -7  -8  -7   17.62    3.97
  -7  -8  -6   61.01    6.82
  -7  -8  -6   67.05    7.31
  -7  -8  -5   31.19    4.58
  -7  -8  -5   28.95    4.24
  -7  -8  -5   24.78    4.37
  -7  -8  -4    0.60    1.39
  -7  -8  -4   -1.55    2.25
  -7  -8  -3   16.80    3.23
  -7  -8  -3   23.34    4.31
  -7  -8  -2    4.20    1.86
  -7  -8  -2    6.29    2.29
  -7  -8  -1    3.35    1.44
  -7  -8  -1    5.24    2.31
  -7  -8   0   25.31    3.21
  -7  -8   0   30.75    4.81
  -7  -8   1  188.80    9.18
  -7  -8   1  220.68   13.52
  -7  -8   2   77.20    4.52
  -7  -8   2   77.31    7.66
  -7  -8   3   21.40    1.42
  -7  -8   3   25.65    4.17
  -7  -8   3   24.57    4.46
  -7  -8   4    0.33    1.66
  -7  -8   4    1.72    2.88
  -7  -8   5   14.11    3.17
  -7  -8   5   11.45    3.32
  -7  -8   6  218.11   14.38
  -7  -8   6  233.84   14.52
  -7  -8   7  172.19   12.54
  -7  -8   7  142.55   11.33
  -7  -8   8   36.44    6.04
  -7  -8   8   32.32    5.38
  -7  -8   9    3.23    2.88
  -7  -8   9   -5.46    2.84
  -7  -8  10   10.63    4.33
  -7  -8  10    6.04    3.05
  -7  -8  11  106.21   11.13
  -7  -8  11   92.93    9.55
  -7  -8  12   42.47    6.77
  -7  -7 -13   95.14   10.65
  -7  -7 -12  121.44   11.78
  -7  -7 -11   78.02    9.46
  -7  -7 -10    4.68    2.86
  -7  -7  -9   66.35    7.90
  -7  -7  -8  181.59   13.14
  -7  -7  -7  518.24   24.13
  -7  -7  -6  327.49   17.28
  -7  -7  -5   79.56    7.33
  -7  -7  -4   33.71    4.52
  -7  -7  -3  273.32   13.99
  -7  -7  -3  281.14   15.59
  -7  -7  -2  358.22   15.87
  -7  -7  -2  323.85   17.44
  -7  -7  -1  460.67   18.52
  -7  -7  -1  431.10   20.87
  -7  -7   0   88.72    5.99
  -7  -7   0   80.47    7.50
  -7  -7   1   18.09    2.46
  -7  -7   1   21.75    3.95
  -7  -7   2   75.30    4.59
  -7  -7   2   73.08    7.13
  -7  -7   3  210.98    7.83
  -7  -7   3  211.92   12.91
  -7  -7   4  241.01   14.18
  -7  -7   4  230.74   13.67
  -7  -7   5  159.68   11.39
  -7  -7   5  169.41   11.31
  -7  -7   6   16.07    3.83
  -7  -7   6    9.03    2.78
  -7  -7   7    2.02    2.18
  -7  -7   7    1.17    1.71
  -7  -7   8   56.66    7.37
  -7  -7   8   55.22    6.36
  -7  -7   9   61.71    7.79
  -7  -7   9   53.60    6.41
  -7  -7  10  100.47   10.23
  -7  -7  10   99.30    8.96
  -7  -7  11   69.60    8.70
  -7  -7  11   71.13    7.66
  -7  -6 -13   15.71    4.69
  -7  -6 -12   41.05    6.90
  -7  -6 -11   30.80    7.29
  -7  -6 -10  193.50   14.08
  -7  -6  -9   89.36    8.92
  -7  -6  -8   47.61    6.39
  -7  -6  -7   11.26    3.01
  -7  -6  -6   66.29    6.80
  -7  -6  -5  184.13   11.65
  -7  -6  -5  204.68   12.15
  -7  -6  -4  222.25   12.70
  -7  -6  -4  239.76   13.43
  -7  -6  -3   27.16    4.06
  -7  -6  -3   19.51    3.28
  -7  -6  -2    1.14    1.85
  -7  -6  -2    0.03    1.27
  -7  -6  -1   -0.36    1.61
  -7  -6  -1    0.30    0.98
  -7  -6   0  144.06    8.05
  -7  -6   0  146.99    9.99
  -7  -6   1   51.31    4.15
  -7  -6   1   53.38    5.75
  -7  -6   2   28.99    2.82
  -7  -6   2   34.32    4.58
  -7  -6   3   54.84    3.41
  -7  -6   3   50.05    5.59
  -7  -6   4   12.66    3.00
  -7  -6   4   13.83    3.06
  -7  -6   5   29.17    4.59
  -7  -6   5   30.40    4.29
  -7  -6   6   54.02    6.43
  -7  -6   6   48.79    5.55
  -7  -6   7   15.99    4.17
  -7  -6   7   13.13    3.06
  -7  -6   8   69.45    7.93
  -7  -6   8   64.88    6.47
  -7  -6   9   77.50    8.55
  -7  -6   9   61.73    6.48
  -7  -6  10   22.15    4.95
  -7  -6  10   24.77    3.97
  -7  -6  11    7.75    3.68
  -7  -6  11   13.80    3.34
  -7  -6  12   37.86    6.46
  -7  -5 -14   10.00    4.06
  -7  -5 -13   67.30    8.75
  -7  -5 -12  193.11   15.03
  -7  -5 -11   12.11    4.09
  -7  -5 -10   78.47    8.64
  -7  -5  -9    4.39    3.07
  -7  -5  -8   85.44    8.36
  -7  -5  -7  287.82   16.20
  -7  -5  -6  271.46   15.13
  -7  -5  -6  270.12   14.81
  -7  -5  -5  173.96   11.36
  -7  -5  -5  213.26   12.30
  -7  -5  -4   28.67    4.18
  -7  -5  -4   30.55    4.29
  -7  -5  -3  103.29    7.71
  -7  -5  -3  115.85    8.56
  -7  -5  -2  189.69   10.68
  -7  -5  -2  205.18   11.94
  -7  -5  -1  554.81   21.05
  -7  -5  -1  501.80   22.59
  -7  -5   0  515.94   20.31
  -7  -5   0  559.60   23.27
  -7  -5   1  193.28    9.51
  -7  -5   1  183.35   11.04
  -7  -5   1  197.49   11.88
  -7  -5   2   28.43    3.03
  -7  -5   2   27.53    4.16
  -7  -5   2   21.86    3.52
  -7  -5   3   54.44    3.90
  -7  -5   3   58.42    5.60
  -7  -5   3   64.44    6.39
  -7  -5   4  433.42   18.98
  -7  -5   5  485.56   22.55
  -7  -5   5  493.69   20.68
  -7  -5   6  411.91   20.31
  -7  -5   6  402.48   18.06
  -7  -5   7    3.23    2.56
  -7  -5   7    1.08    1.19
  -7  -5   8    6.44    3.12
  -7  -5   8    2.64    1.33
  -7  -5   9  167.96   10.33
  -7  -5   9  175.28   13.06
  -7  -5  10  141.35    9.35
  -7  -5  10  141.27   12.11
  -7  -5  11  139.94    9.39
  -7  -5  11  150.90   12.64
  -7  -5  12   54.42    7.78
  -7  -4 -14   63.20    8.65
  -7  -4 -13   93.15   10.40
  -7  -4 -12   32.22    6.02
  -7  -4 -11   62.65    8.11
  -7  -4 -10   22.91    4.90
  -7  -4  -9   34.32    5.53
  -7  -4  -8   51.40    6.53
  -7  -4  -7   49.04    6.00
  -7  -4  -6   33.27    4.74
  -7  -4  -5   10.24    2.86
  -7  -4  -5    9.27    2.46
  -7  -4  -4   18.98    3.38
  -7  -4  -4   23.50    3.76
  -7  -4  -3   33.26    4.31
  -7  -4  -3   37.04    4.70
  -7  -4  -2   18.39    3.15
  -7  -4  -2   21.69    3.62
  -7  -4  -1   65.55    5.58
  -7  -4  -1   61.79    6.08
  -7  -4   0   77.94    5.99
  -7  -4   0   85.22    7.09
  -7  -4   1    3.54    1.33
  -7  -4   1    7.29    2.35
  -7  -4   2   60.41    4.76
  -7  -4   2   61.70    6.07
  -7  -4   3   68.34    4.82
  -7  -4   3   66.19    5.69
  -7  -4   3   58.41    6.00
  -7  -4   4  152.08    9.21
  -7  -4   4  171.07   10.75
  -7  -4   5  116.25    9.23
  -7  -4   5  117.35    7.72
  -7  -4   5  123.40    8.94
  -7  -4   6   17.19    3.64
  -7  -4   6   19.24    3.64
  -7  -4   6   13.73    2.48
  -7  -4   7   14.48    3.31
  -7  -4   7   10.26    2.24
  -7  -4   8   99.12    9.19
  -7  -4   8  107.22    7.14
  -7  -4   9  209.63   14.20
  -7  -4   9  192.13   10.37
  -7  -4  10   29.20    5.66
  -7  -4  10   37.37    4.07
  -7  -4  11   90.46    9.74
  -7  -4  12   38.80    6.60
  -7  -4  13   19.50    5.33
  -7  -3 -14   26.46    5.90
  -7  -3 -13    3.88    2.82
  -7  -3 -12   11.14    3.96
  -7  -3 -11  182.14   13.90
  -7  -3 -10  253.91   16.33
  -7  -3  -9  185.49   13.11
  -7  -3  -8   47.02    6.32
  -7  -3  -7    7.64    2.48
  -7  -3  -6  368.83   18.46
  -7  -3  -5  420.61   19.66
  -7  -3  -4  484.13   21.72
  -7  -3  -4  528.89   22.61
  -7  -3  -3  183.65   11.15
  -7  -3  -3  200.67   11.98
  -7  -3  -2   10.60    2.46
  -7  -3  -2   16.88    2.99
  -7  -3  -1  295.99   14.85
  -7  -3  -1  360.44   16.68
  -7  -3   0  316.74   14.88
  -7  -3   0  341.68   16.34
  -7  -3   1  129.05    8.03
  -7  -3   1  130.88    9.08
  -7  -3   2  114.84    7.27
  -7  -3   2  119.09    8.50
  -7  -3   3   77.95    5.68
  -7  -3   3   78.04    6.75
  -7  -3   3   83.87    7.00
  -7  -3   4   11.44    2.63
  -7  -3   4    8.38    2.58
  -7  -3   4    9.92    2.11
  -7  -3   5   74.65    5.58
  -7  -3   5   70.91    6.93
  -7  -3   5   69.07    6.50
  -7  -3   6  211.99   13.02
  -7  -3   6  195.93   12.84
  -7  -3   6  191.37    9.82
  -7  -3   6  206.06   11.97
  -7  -3   7   82.74    7.97
  -7  -3   7   81.19    5.63
  -7  -3   7   84.06    8.23
  -7  -3   7   79.86    7.07
  -7  -3   8  121.75   10.11
  -7  -3   8  112.16   10.16
  -7  -3   8  122.53    7.03
  -7  -3   8  124.22    8.99
  -7  -3   9    2.47    1.74
  -7  -3   9    0.77    2.08
  -7  -3   9    3.46    2.31
  -7  -3   9    0.93    0.87
  -7  -3  10    5.50    2.92
  -7  -3  10    2.83    1.49
  -7  -3  11   27.47    5.54
  -7  -3  12  285.70   18.57
  -7  -3  13   17.19    4.68
  -7  -2 -14   46.81    7.67
  -7  -2 -13   71.63    8.94
  -7  -2 -12  102.45   10.45
  -7  -2 -11    0.51    2.59
  -7  -2 -10   -0.12    2.16
  -7  -2  -9    2.93    2.36
  -7  -2  -8   47.45    6.19
  -7  -2  -7  186.18   12.55
  -7  -2  -6  333.93   17.64
  -7  -2  -5   39.70    5.13
  -7  -2  -4   22.75    3.96
  -7  -2  -3    0.56    1.59
  -7  -2  -3   -0.84    2.06
  -7  -2  -2  252.33   13.84
  -7  -2  -2  250.89   13.54
  -7  -2  -1  572.65   24.12
  -7  -2  -1  562.18   20.69
  -7  -2  -1  592.06   23.65
  -7  -2   0  661.16   26.21
  -7  -2   0  623.11   23.40
  -7  -2   0  651.61   25.34
  -7  -2   1   56.83    5.76
  -7  -2   1   59.58    5.17
  -7  -2   1   58.93    5.38
  -7  -2   2    7.00    1.83
  -7  -2   2    8.40    2.16
  -7  -2   2    9.26    2.27
  -7  -2   3   35.71    4.48
  -7  -2   3   37.78    4.22
  -7  -2   3   35.41    4.45
  -7  -2   4  190.20   11.63
  -7  -2   4  197.69   11.35
  -7  -2   5  436.18   16.71
  -7  -2   5  405.53   19.66
  -7  -2   5  408.16   18.78
  -7  -2   6  287.45   15.72
  -7  -2   6  268.99   15.57
  -7  -2   6  288.17   12.02
  -7  -2   6  268.60   14.15
  -7  -2   7  124.90    9.82
  -7  -2   7  124.20    6.63
  -7  -2   7  119.64   10.08
  -7  -2   7  129.26    8.87
  -7  -2   8    2.69    1.86
  -7  -2   8    3.07    2.77
  -7  -2   8    3.70    2.17
  -7  -2   8    2.73    1.17
  -7  -2   9   47.58    6.31
  -7  -2   9   58.09    7.44
  -7  -2   9   49.29    3.27
  -7  -2   9   54.21    5.60
  -7  -2  10  120.17   10.60
  -7  -2  10  119.23   11.28
  -7  -2  10  109.29    8.31
  -7  -2  11  153.20   13.23
  -7  -2  11  150.54   12.51
  -7  -2  12  245.92   17.77
  -7  -2  12  246.92   16.76
  -7  -2  13    6.11    3.56
  -7  -2  13    0.92    2.52
  -7  -1 -13   56.58    8.02
  -7  -1 -12   21.48    5.06
  -7  -1 -11   74.56    8.81
  -7  -1 -10   57.68    7.55
  -7  -1  -9  134.54   11.43
  -7  -1  -8  205.57   14.10
  -7  -1  -7   98.43    9.02
  -7  -1  -6   17.64    3.78
  -7  -1  -5  157.52   11.21
  -7  -1  -4  264.88    9.34
  -7  -1  -4  272.41   15.14
  -7  -1  -3  524.25   18.21
  -7  -1  -3  560.31   23.79
  -7  -1  -2  373.86   18.53
  -7  -1  -2  403.58   15.01
  -7  -1  -2  375.04   18.41
  -7  -1  -1   36.82    4.84
  -7  -1  -1   37.14    3.63
  -7  -1  -1   41.43    5.01
  -7  -1   0    2.51    1.56
  -7  -1   0    4.18    1.51
  -7  -1   0    3.60    1.69
  -7  -1   1  462.85   20.22
  -7  -1   1  432.50   18.39
  -7  -1   1  449.15   19.68
  -7  -1   2  815.26   29.57
  -7  -1   2  760.11   28.62
  -7  -1   3  648.11   26.65
  -7  -1   3  673.29   26.58
  -7  -1   3  739.21   27.50
  -7  -1   4  245.74   13.74
  -7  -1   4  246.20   13.06
  -7  -1   5   -0.07    1.25
  -7  -1   5    3.07    2.35
  -7  -1   6  332.49   17.18
  -7  -1   6  335.65   17.71
  -7  -1   6  332.26   12.97
  -7  -1   6  322.75   15.78
  -7  -1   7  344.59   17.99
  -7  -1   7  355.17   12.73
  -7  -1   7  340.52   18.56
  -7  -1   7  337.46   16.16
  -7  -1   8  602.02   25.36
  -7  -1   8  622.02   26.78
  -7  -1   8  552.32   16.81
  -7  -1   8  601.63   22.68
  -7  -1   9  221.88   14.26
  -7  -1   9  202.54   14.48
  -7  -1   9  205.58   11.50
  -7  -1  10   17.67    4.68
  -7  -1  10   16.88    4.21
  -7  -1  11   85.54    9.87
  -7  -1  11  106.24   10.10
  -7  -1  12  157.54   13.93
  -7  -1  12  152.54   12.81
  -7  -1  13  158.14   14.24
  -7  -1  13  141.92   12.52
  -7   0 -13   33.74    6.35
  -7   0 -12  141.42   12.89
  -7   0 -11  167.87   13.94
  -7   0 -10    8.65    3.56
  -7   0  -9   -2.41    2.73
  -7   0  -8    6.85    2.79
  -7   0  -7  136.22   11.10
  -7   0  -6  156.12   11.76
  -7   0  -5   89.75    4.31
  -7   0  -5   93.10    8.69
  -7   0  -4   29.00    2.62
  -7   0  -4   30.31    4.88
  -7   0  -3   14.16    2.06
  -7   0  -3   20.79    3.92
  -7   0  -2  101.02    7.96
  -7   0  -2   94.30    6.03
  -7   0  -2   95.32    8.23
  -7   0  -1  273.48   14.29
  -7   0  -1  273.51   12.58
  -7   0  -1  295.08   15.42
  -7   0   0  175.23   11.29
  -7   0   0  183.52   10.74
  -7   0   0  185.10   10.01
  -7   0   0  183.20   11.53
  -7   0   1  207.88   12.24
  -7   0   1  203.28   11.12
  -7   0   1  223.46   11.49
  -7   0   1  176.97   11.54
  -7   0   2   16.09    3.18
  -7   0   2   13.51    2.59
  -7   0   2   13.19    2.89
  -7   0   2   17.44    3.27
  -7   0   3   14.14    3.06
  -7   0   3   15.51    2.61
  -7   0   3   13.31    3.00
  -7   0   4   52.68    5.58
  -7   0   4   53.25    5.99
  -7   0   4   61.64    4.85
  -7   0   5  307.19   12.61
  -7   0   5  321.94   16.82
  -7   0   5  292.34   14.84
  -7   0   6  309.64   16.34
  -7   0   6  298.74   16.93
  -7   0   6  325.08   12.04
  -7   0   6  301.12   11.87
  -7   0   6  303.30   14.88
  -7   0   7   53.07    6.11
  -7   0   7   49.28    6.41
  -7   0   7   51.31    2.80
  -7   0   7   52.79    5.28
  -7   0   7   46.98    3.48
  -7   0   8    4.38    1.83
  -7   0   8    0.69    1.80
  -7   0   8    1.77    2.25
  -7   0   9    3.41    2.48
  -7   0   9   -0.54    2.04
  -7   0  10  152.53   11.83
  -7   0  10  145.53   12.74
  -7   0  11  149.24   12.12
  -7   0  11  159.38   13.68
  -7   0  12  172.19   13.59
  -7   0  12  179.43   14.94
  -7   0  13   21.12    5.22
  -7   1 -12  125.39   12.27
  -7   1 -11   22.92    5.32
  -7   1 -10   30.17    6.02
  -7   1  -9  147.48   12.51
  -7   1  -8  465.98   24.21
  -7   1  -7  396.19   21.82
  -7   1  -7  417.44   14.07
  -7   1  -6  202.01   14.13
  -7   1  -6  205.39    8.63
  -7   1  -5   56.52    7.02
  -7   1  -5   47.23    3.68
  -7   1  -4  147.16   11.35
  -7   1  -4  165.14    8.18
  -7   1  -3  646.84   27.93
  -7   1  -3  631.76   23.09
  -7   1  -2  617.07   26.96
  -7   1  -2  618.72   23.15
  -7   1  -1  222.55   13.88
  -7   1  -1  250.85   13.56
  -7   1  -1  236.62   11.85
  -7   1   0    5.16    2.20
  -7   1   0    8.02    2.05
  -7   1   0    3.38    2.07
  -7   1   1  109.53    7.72
  -7   1   1   92.02    7.25
  -7   1   1   84.05    7.88
  -7   1   2  281.72   14.59
  -7   1   2  266.04   13.94
  -7   1   2  229.42   12.39
  -7   1   2  247.24   14.56
  -7   1   3  189.96   11.65
  -7   1   3  197.54   10.41
  -7   1   3  202.98   12.22
  -7   1   4  143.88    9.61
  -7   1   4  140.28   10.25
  -7   1   4  142.03    8.05
  -7   1   5   53.98    5.58
  -7   1   5   59.94    6.75
  -7   1   5   62.09    4.52
  -7   1   6    4.26    2.08
  -7   1   6    4.55    2.14
  -7   1   6    6.64    2.32
  -7   1   6    3.56    0.87
  -7   1   7   41.16    5.29
  -7   1   7   37.44    5.77
  -7   1   7   50.36    5.14
  -7   1   8   66.07    7.99
  -7   1   8   64.81    6.85
  -7   1   9  144.43   12.25
  -7   1   9  134.33   10.86
  -7   1  10  133.69   12.21
  -7   1  10  142.76   11.26
  -7   1  11   22.22    5.88
  -7   1  11   14.35    3.87
  -7   1  12   -6.84    3.56
  -7   1  12    1.39    2.70
  -7   1  13   56.64    7.65
  -7   1  14   61.98    8.58
  -7   2 -11   52.49    8.15
  -7   2 -10   28.11    5.97
  -7   2  -9    6.44    3.31
  -7   2  -8   30.92    6.00
  -7   2  -7   -2.29    3.48
  -7   2  -6    0.71    1.04
  -7   2  -6   -0.92    2.67
  -7   2  -5  221.26   10.70
  -7   2  -5  226.79   15.08
  -7   2  -4   43.34    4.27
  -7   2  -4   48.24    6.50
  -7   2  -3  178.13    9.76
  -7   2  -3  159.31   12.14
  -7   2  -2  149.45    9.13
  -7   2  -2  144.59   11.22
  -7   2  -1   -1.32    1.34
  -7   2  -1   -0.03    1.69
  -7   2   0  152.52   10.05
  -7   2   0  133.94    9.22
  -7   2   0  143.95   11.14
  -7   2   1  427.95   18.90
  -7   2   1  399.03   18.85
  -7   2   1  405.03   20.79
  -7   2   2  284.52   13.98
  -7   2   2  257.75   14.60
  -7   2   3  153.29   10.40
  -7   2   3  148.08    9.13
  -7   2   3  147.71   10.64
  -7   2   4    6.86    2.38
  -7   2   4    7.43    2.37
  -7   2   4    3.96    1.67
  -7   2   5  108.85    8.24
  -7   2   5  110.38    6.57
  -7   2   5  102.91    9.33
  -7   2   5  100.32    8.12
  -7   2   6  161.75   10.22
  -7   2   6  164.40   10.83
  -7   2   6  173.11   12.66
  -7   2   7  205.75   12.64
  -7   2   7  206.11   14.45
  -7   2   8   79.41    7.59
  -7   2   8   78.31    8.81
  -7   2   9   26.69    4.96
  -7   2   9   19.30    4.74
  -7   2  10    6.20    2.90
  -7   2  10    6.42    3.12
  -7   2  11   35.93    6.14
  -7   2  11   36.51    6.61
  -7   2  12   60.02    7.83
  -7   2  13   48.30    7.21
  -7   2  14    8.47    4.76
  -7   3 -10   23.47    5.04
  -7   3  -9    5.50    2.37
  -7   3  -8   83.34    9.48
  -7   3  -7  114.25   10.98
  -7   3  -6  111.64   10.97
  -7   3  -6  121.29    7.84
  -7   3  -5  283.85   17.90
  -7   3  -5  273.55   13.55
  -7   3  -4   -0.73    2.76
  -7   3  -4    1.03    1.34
  -7   3  -3   14.69    4.14
  -7   3  -3   17.27    3.23
  -7   3  -2  168.05   12.73
  -7   3  -2  151.57    9.91
  -7   3  -1  400.49   21.98
  -7   3  -1  443.80   19.78
  -7   3   0  273.52   16.79
  -7   3   0  265.52   14.62
  -7   3   1  140.78   10.10
  -7   3   1  126.60    9.49
  -7   3   2    1.09    1.44
  -7   3   2    1.13    1.57
  -7   3   3   76.00    7.03
  -7   3   3   79.02    7.81
  -7   3   4  421.15   21.45
  -7   3   5  467.72   20.61
  -7   3   5  443.71   19.90
  -7   3   5  416.88   22.28
  -7   3   6  169.91   10.81
  -7   3   6  155.16   12.52
  -7   3   7    9.63    2.77
  -7   3   7    2.32    2.41
  -7   3   8    8.93    2.71
  -7   3   8    2.23    2.66
  -7   3   9  168.12   11.65
  -7   3   9  169.97   14.21
  -7   3  10  283.88   16.16
  -7   3  10  235.93   17.77
  -7   3  11  152.54   11.84
  -7   3  12   27.38    5.72
  -7   4  -8   84.76   10.00
  -7   4  -7    0.73    2.68
  -7   4  -6    7.53    3.69
  -7   4  -5   48.53    7.05
  -7   4  -5   43.34    5.27
  -7   4  -4   52.13    7.58
  -7   4  -4   63.18    6.34
  -7   4  -3   25.00    5.49
  -7   4  -3   21.86    3.81
  -7   4  -2   69.91    8.48
  -7   4  -2   48.02    5.71
  -7   4  -1    4.31    2.25
  -7   4   0    2.60    2.07
  -7   4   1   42.06    5.69
  -7   4   2    3.77    2.24
  -7   4   3   50.35    6.73
  -7   4   4   48.22    5.12
  -7   4   4   36.14    6.08
  -7   4   5   30.09    4.06
  -7   4   5   31.11    5.70
  -7   4   6    3.28    1.90
  -7   4   6    0.44    2.59
  -7   4   7   32.77    4.70
  -7   4   7   32.75    6.18
  -7   4   8   44.10    7.07
  -7   4   9   62.61    8.95
  -7   5  -5  374.80   22.77
  -7   5  -4  115.50   11.57
  -7   5  -4  113.88    9.42
  -7   5  -3   11.45    4.20
  -7   5  -3   14.68    4.29
  -7   5  -2   28.80    4.97
  -7   5  -1  255.54   15.74
  -7   5   0  231.16   15.04
  -7   5   1  275.77   16.93
  -7   5   2   16.45    4.42
  -7   5   3    1.14    2.82
  -7   5   4  131.46   11.87
  -7   5   5  138.62   12.50
  -7   5   6  142.67   12.90
  -7   5   7   90.04   10.23
  -7   6  -3   59.60    7.50
  -7   6  -2  149.95   12.23
  -7   6  -1  121.92   11.14
  -7   6   0   27.64    5.60
  -7   6   1   -0.14    3.23
  -7   6   2   29.81    5.86
  -7   6   3  163.08   13.57
  -7   6   4  138.54   12.70
  -7   6   5   82.77    9.94
  -7   7  -1    3.60    3.96
  -7   7   0   53.67    7.86
  -7   7   1  104.42   10.90
  -6 -12 -11    6.73    3.67
  -6 -12 -10   24.05    5.31
  -6 -12  -9   45.24    7.71
  -6 -12  -9   53.92    7.67
  -6 -12  -8   46.11    7.25
  -6 -12  -7   23.69    5.32
  -6 -12  -6    8.81    3.32
  -6 -12  -5    3.03    2.55
  -6 -12  -4   45.80    7.00
  -6 -12  -3   73.48    8.99
  -6 -12  -2   51.81    7.70
  -6 -12  -1   47.66    7.36
  -6 -12   0    6.15    2.68
  -6 -12   1   36.39    6.61
  -6 -12   2   50.88    7.71
  -6 -12   3   59.19    8.69
  -6 -11 -12   11.95    4.33
  -6 -11 -11   11.86    4.31
  -6 -11 -10   29.26    5.89
  -6 -11 -10   29.51    5.65
  -6 -11  -9   12.87    4.36
  -6 -11  -9   11.85    3.85
  -6 -11  -8   23.18    5.30
  -6 -11  -8   22.88    5.28
  -6 -11  -7   11.24    3.88
  -6 -11  -6    4.06    2.80
  -6 -11  -5  137.20   11.81
  -6 -11  -4   26.46    5.30
  -6 -11  -3    1.55    2.74
  -6 -11  -2    1.01    1.13
  -6 -11  -2  -11.44    3.89
  -6 -11  -1    1.60    1.07
  -6 -11  -1    1.50    2.78
  -6 -11   0   57.31    5.54
  -6 -11   0   50.04    7.43
  -6 -11   1   12.20    2.58
  -6 -11   1   10.71    2.48
  -6 -11   1    7.80    3.49
  -6 -11   2   20.50    3.30
  -6 -11   2   15.10    4.16
  -6 -11   3    1.31    1.79
  -6 -11   3   -2.25    2.90
  -6 -11   4   30.04    4.53
  -6 -11   4   29.63    5.81
  -6 -11   5   10.95    3.10
  -6 -11   5   21.39    4.92
  -6 -11   6   10.00    3.37
  -6 -11   6   17.42    4.68
  -6 -11   7   32.97    5.76
  -6 -11   7   26.64    5.94
  -6 -11   8   39.75    6.62
  -6 -11   9   14.60    4.88
  -6 -10 -13   35.80    6.19
  -6 -10 -12   60.72    7.97
  -6 -10 -11   48.93    7.88
  -6 -10 -11   55.39    7.64
  -6 -10 -10    9.04    3.69
  -6 -10 -10   -3.47    2.72
  -6 -10  -9   14.59    4.51
  -6 -10  -9   14.62    4.33
  -6 -10  -8   57.79    7.71
  -6 -10  -8   55.96    7.41
  -6 -10  -7  185.15   13.49
  -6 -10  -7  172.25   13.26
  -6 -10  -6   51.66    6.69
  -6 -10  -6   50.62    6.91
  -6 -10  -5  234.68   14.65
  -6 -10  -5  256.54   16.11
  -6 -10  -5  246.15   13.44
  -6 -10  -4    2.31    2.11
  -6 -10  -4    3.19    2.07
  -6 -10  -4   -1.58    2.44
  -6 -10  -3   54.60    5.99
  -6 -10  -3   43.13    4.55
  -6 -10  -3   42.38    6.20
  -6 -10  -2  183.30   11.26
  -6 -10  -2  181.30   13.23
  -6 -10  -1  270.65   13.82
  -6 -10  -1  272.73   16.89
  -6 -10   0  167.95    9.65
  -6 -10   0  135.38   12.99
  -6 -10   0  164.54   10.06
  -6 -10   1   77.69    5.78
  -6 -10   1   74.56    6.50
  -6 -10   1   76.62    8.48
  -6 -10   2   18.48    3.46
  -6 -10   2   18.92    2.50
  -6 -10   2   19.35    4.54
  -6 -10   3  110.55    8.61
  -6 -10   3  112.87   10.52
  -6 -10   4  132.61    9.93
  -6 -10   4  149.45   12.22
  -6 -10   5  255.84   14.94
  -6 -10   5  265.20   17.23
  -6 -10   6   19.84    4.03
  -6 -10   6   17.99    4.83
  -6 -10   7   -2.80    2.26
  -6 -10   7    4.56    2.68
  -6 -10   8   12.68    3.93
  -6 -10   8   23.82    5.41
  -6 -10   9   53.89    7.52
  -6 -10   9   64.38    8.65
  -6 -10  10   70.14    8.54
  -6 -10  10   76.41    9.43
  -6  -9 -14   38.76    6.46
  -6  -9 -13    6.14    3.65
  -6  -9 -12   -0.76    2.83
  -6  -9 -12    5.13    3.59
  -6  -9 -11   50.08    7.55
  -6  -9 -11   58.61    7.66
  -6  -9 -10   36.09    6.43
  -6  -9 -10   52.14    7.16
  -6  -9  -9   72.57    8.43
  -6  -9  -9   66.12    7.72
  -6  -9  -8   82.47    8.68
  -6  -9  -8   82.88    8.56
  -6  -9  -8   76.08    7.21
  -6  -9  -7   32.52    5.17
  -6  -9  -7   30.31    5.24
  -6  -9  -6   54.27    6.53
  -6  -9  -6   63.86    7.37
  -6  -9  -6   54.13    6.12
  -6  -9  -5   27.46    4.47
  -6  -9  -5   22.96    4.54
  -6  -9  -5   25.96    3.95
  -6  -9  -4  143.64   10.06
  -6  -9  -4  146.04   11.20
  -6  -9  -4  133.38    8.85
  -6  -9  -3  114.90    8.54
  -6  -9  -3  111.85    9.67
  -6  -9  -3  119.45    7.71
  -6  -9  -2  162.24   10.08
  -6  -9  -2  174.28   12.24
  -6  -9  -1    1.71    1.30
  -6  -9  -1   -0.10    1.70
  -6  -9   0   37.49    3.94
  -6  -9   0   31.76    5.13
  -6  -9   1   94.52    6.18
  -6  -9   1  112.90    8.10
  -6  -9   1  116.88    9.90
  -6  -9   2  300.00   14.98
  -6  -9   2  284.64   11.61
  -6  -9   2  285.68   16.85
  -6  -9   3   31.59    2.31
  -6  -9   3   39.67    4.92
  -6  -9   3   35.55    2.38
  -6  -9   3   39.07    5.85
  -6  -9   4   86.25    7.64
  -6  -9   4   76.01    8.20
  -6  -9   5   15.81    3.54
  -6  -9   5   17.05    4.23
  -6  -9   6   54.98    6.59
  -6  -9   6   53.25    7.11
  -6  -9   7  186.39   12.95
  -6  -9   7  188.40   13.78
  -6  -9   8   93.99    9.32
  -6  -9   8  105.36   10.18
  -6  -9   9   49.70    7.06
  -6  -9   9   40.10    6.48
  -6  -9  10   31.01    5.76
  -6  -9  10   26.14    5.35
  -6  -9  11   10.49    4.15
  -6  -9  11   -0.89    2.48
  -6  -9  12   44.06    7.01
  -6  -8 -13   62.92    8.63
  -6  -8 -12  140.11   12.93
  -6  -8 -11  304.27   19.18
  -6  -8 -10   13.17    3.30
  -6  -8 -10    8.52    4.00
  -6  -8  -9    4.83    1.77
  -6  -8  -9    2.92    2.56
  -6  -8  -8   79.09    8.22
  -6  -8  -8   49.55    5.48
  -6  -8  -8   71.30    7.47
  -6  -8  -7  185.66   12.70
  -6  -8  -7  197.31   13.12
  -6  -8  -7  197.74   11.78
  -6  -8  -6  551.19   24.64
  -6  -8  -6  525.01   24.70
  -6  -8  -6  572.04   23.77
  -6  -8  -6  565.18   23.84
  -6  -8  -5  290.63   15.44
  -6  -8  -5  284.44   16.33
  -6  -8  -5  295.98   14.66
  -6  -8  -5  267.80   14.72
  -6  -8  -4   43.98    5.19
  -6  -8  -4   47.42    5.46
  -6  -8  -4   33.73    5.15
  -6  -8  -4   37.19    4.58
  -6  -8  -3   34.97    4.52
  -6  -8  -3   38.12    4.12
  -6  -8  -3   41.06    5.46
  -6  -8  -2  250.59   12.60
  -6  -8  -2  239.54   14.35
  -6  -8  -1  793.41   29.13
  -6  -8  -1  856.39   33.20
  -6  -8   0  269.00   11.99
  -6  -8   0  249.65   14.78
  -6  -8   1  457.21   16.94
  -6  -8   1  427.38   20.97
  -6  -8   2    9.54    1.52
  -6  -8   2    7.70    2.65
  -6  -8   2    8.27    2.77
  -6  -8   3  227.33    7.92
  -6  -8   3  233.73   13.09
  -6  -8   3  230.74    7.94
  -6  -8   3  256.91   14.72
  -6  -8   4  463.69   21.26
  -6  -8   4  490.06   22.84
  -6  -8   5  247.34   14.53
  -6  -8   5  283.19   15.91
  -6  -8   6  197.17   12.90
  -6  -8   6  207.97   13.51
  -6  -8   7   33.67    5.18
  -6  -8   7   18.89    4.10
  -6  -8   8   27.17    5.06
  -6  -8   8   21.00    4.34
  -6  -8   9  112.37   10.33
  -6  -8   9  113.42   10.02
  -6  -8  10   95.79    9.78
  -6  -8  10   82.95    8.99
  -6  -8  11  163.28   13.37
  -6  -8  11  124.28   11.26
  -6  -8  12   13.83    4.37
  -6  -8  13   -0.76    3.16
  -6  -7 -14   41.29    7.34
  -6  -7 -13   54.31    7.94
  -6  -7 -12   47.81    7.42
  -6  -7 -11    5.71    3.54
  -6  -7 -11    4.88    2.74
  -6  -7 -10   29.01    5.25
  -6  -7 -10   37.64    4.78
  -6  -7  -9  109.27    9.83
  -6  -7  -9  100.61    7.97
  -6  -7  -8  163.61   11.68
  -6  -7  -8  144.40    9.83
  -6  -7  -7  142.57   10.81
  -6  -7  -7  166.40   10.36
  -6  -7  -6    7.59    2.54
  -6  -7  -6    7.91    2.34
  -6  -7  -6    6.86    2.24
  -6  -7  -5   -0.04    1.60
  -6  -7  -5   -0.50    1.15
  -6  -7  -5    0.33    1.50
  -6  -7  -4  168.17   10.18
  -6  -7  -4  141.15   10.29
  -6  -7  -4  145.43    9.21
  -6  -7  -4  142.04    9.66
  -6  -7  -3  102.47    7.50
  -6  -7  -3   98.87    8.32
  -6  -7  -3  112.67    8.33
  -6  -7  -2  230.20   11.49
  -6  -7  -2  221.25   13.12
  -6  -7  -2  213.12   12.51
  -6  -7  -1   57.59    4.85
  -6  -7  -1   54.28    5.92
  -6  -7  -1   56.44    5.81
  -6  -7   0   39.25    3.69
  -6  -7   0   48.58    5.41
  -6  -7   0   38.87    5.01
  -6  -7   1    3.04    1.16
  -6  -7   1    3.69    2.01
  -6  -7   2   59.50    3.72
  -6  -7   2   75.58    6.86
  -6  -7   3   28.88    4.26
  -6  -7   3   27.14    1.59
  -6  -7   3   28.49    4.38
  -6  -7   4   47.63    5.42
  -6  -7   4   42.38    5.34
  -6  -7   5   53.18    5.98
  -6  -7   5   52.27    5.96
  -6  -7   6    2.56    1.61
  -6  -7   6    2.59    1.66
  -6  -7   7    7.29    2.85
  -6  -7   7    8.52    2.86
  -6  -7   8   16.23    3.81
  -6  -7   8   21.09    4.14
  -6  -7   9   61.81    7.52
  -6  -7   9   55.24    6.53
  -6  -7  10  106.88   10.25
  -6  -7  10  106.56    9.35
  -6  -7  11   64.69    8.44
  -6  -7  11   68.46    7.60
  -6  -7  12    5.67    2.81
  -6  -7  12    0.99    2.63
  -6  -6 -14   15.23    4.86
  -6  -6 -13    3.07    3.04
  -6  -6 -12   60.36    7.99
  -6  -6 -11  134.10   11.62
  -6  -6 -11  123.46    8.96
  -6  -6 -10   87.10    8.82
  -6  -6 -10   70.07    6.51
  -6  -6  -9  135.96   10.91
  -6  -6  -9  136.00    9.31
  -6  -6  -8   -0.67    1.74
  -6  -6  -8    2.11    1.47
  -6  -6  -7    0.37    1.44
  -6  -6  -7    1.89    1.44
  -6  -6  -6  169.14   11.36
  -6  -6  -6  186.29   11.06
  -6  -6  -6  213.16   12.11
  -6  -6  -5  123.96    8.85
  -6  -6  -5  123.02    8.65
  -6  -6  -5  115.13    8.34
  -6  -6  -4  432.22   19.26
  -6  -6  -4  472.84   20.01
  -6  -6  -4  441.59   18.91
  -6  -6  -3  244.92   12.37
  -6  -6  -3  234.06   12.90
  -6  -6  -2  114.32    7.39
  -6  -6  -2  118.18    8.47
  -6  -6  -1   14.80    2.46
  -6  -6  -1   20.25    3.43
  -6  -6  -1   15.88    3.25
  -6  -6   0  510.19   18.82
  -6  -6   0  538.59   22.08
  -6  -6   0  471.79   21.31
  -6  -6   1  675.03   22.95
  -6  -6   1  633.60   26.29
  -6  -6   1  702.92   27.19
  -6  -6   2  465.15   16.14
  -6  -6   2  458.68   20.27
  -6  -6   2  487.88   21.10
  -6  -6   3   59.13    2.93
  -6  -6   3   63.28    6.06
  -6  -6   3   60.60    6.15
  -6  -6   4   56.07    5.80
  -6  -6   4   57.05    6.08
  -6  -6   5  124.67    9.22
  -6  -6   5  117.46    8.64
  -6  -6   6  566.15   24.66
  -6  -6   6  553.88   23.52
  -6  -6   7  210.77   13.23
  -6  -6   7  194.61   11.81
  -6  -6   8   19.26    3.94
  -6  -6   8   24.99    3.96
  -6  -6   9    3.56    2.17
  -6  -6   9    5.62    2.25
  -6  -6  10   59.34    7.56
  -6  -6  10   49.53    5.79
  -6  -6  11   92.37    9.76
  -6  -6  11  105.66    8.69
  -6  -6  12   66.71    8.39
  -6  -6  12   55.03    6.35
  -6  -6  13   50.56    7.96
  -6  -5 -15   12.29    4.55
  -6  -5 -14   30.75    6.31
  -6  -5 -13  160.49   13.53
  -6  -5 -12  162.99   13.24
  -6  -5 -11   21.34    4.69
  -6  -5 -11   24.00    4.01
  -6  -5 -10    8.41    3.41
  -6  -5 -10   -0.48    1.71
  -6  -5  -9   37.79    5.50
  -6  -5  -9   31.12    4.31
  -6  -5  -8  150.22   10.87
  -6  -5  -8  139.07    9.48
  -6  -5  -7  348.49   17.53
  -6  -5  -7  326.66   16.12
  -6  -5  -6  285.05   14.95
  -6  -5  -6  263.57   13.86
  -6  -5  -6  282.38   14.63
  -6  -5  -5   10.89    2.67
  -6  -5  -5    5.82    1.86
  -6  -5  -5    7.92    2.23
  -6  -5  -4    2.39    1.71
  -6  -5  -4    2.31    1.57
  -6  -5  -3   86.04    6.39
  -6  -5  -3   64.99    5.99
  -6  -5  -2  249.22   11.96
  -6  -5  -2  239.91   12.77
  -6  -5  -1  363.93   15.10
  -6  -5  -1  366.28   16.97
  -6  -5   0  401.94   15.99
  -6  -5   0  422.49   18.33
  -6  -5   0  433.03   18.79
  -6  -5   1    0.57    0.81
  -6  -5   1    0.13    1.26
  -6  -5   1    0.12    1.30
  -6  -5   2    7.28    1.34
  -6  -5   2   11.59    2.69
  -6  -5   2    6.26    1.80
  -6  -5   3  143.65    6.12
  -6  -5   3  133.71    8.77
  -6  -5   3  153.37    9.79
  -6  -5   4  117.70    8.71
  -6  -5   4  122.90    8.22
  -6  -5   4  136.64    9.19
  -6  -5   5  109.15    8.61
  -6  -5   5  123.30    8.20
  -6  -5   5  127.59    8.96
  -6  -5   6  249.97   14.24
  -6  -5   6  241.22   12.72
  -6  -5   6  264.37   14.28
  -6  -5   7   15.30    3.57
  -6  -5   7   20.48    3.18
  -6  -5   8    5.32    2.39
  -6  -5   8    8.25    2.12
  -6  -5   9   22.83    4.34
  -6  -5   9   20.68    3.40
  -6  -5  10  100.37    7.76
  -6  -5  10   92.31    9.27
  -6  -5  11  159.71   10.35
  -6  -5  11  165.46   13.17
  -6  -5  12   89.83    7.43
  -6  -5  12   74.70    8.91
  -6  -5  13    8.68    3.00
  -6  -4 -15   52.51    7.97
  -6  -4 -14  116.95   11.59
  -6  -4 -13  167.01   13.74
  -6  -4 -12   22.36    5.02
  -6  -4 -11   10.41    3.85
  -6  -4 -10  406.72   21.35
  -6  -4 -10  427.20   19.86
  -6  -4  -9  237.25   14.87
  -6  -4  -9  259.89   14.03
  -6  -4  -8  150.56   10.97
  -6  -4  -8  168.31   10.59
  -6  -4  -7  105.08    8.50
  -6  -4  -7   95.02    7.63
  -6  -4  -6   22.50    3.79
  -6  -4  -6   29.55    4.09
  -6  -4  -5  269.37   13.96
  -6  -4  -5  261.96   13.65
  -6  -4  -4  501.18   20.46
  -6  -4  -4  462.83   20.24
  -6  -4  -3  345.37   15.75
  -6  -4  -3  367.93   16.61
  -6  -4  -2    5.09    1.80
  -6  -4  -2    2.92    1.83
  -6  -4  -1  402.68   16.08
  -6  -4  -1  372.57   17.18
  -6  -4   0  764.37   26.59
  -6  -4   0  762.84   28.73
  -6  -4   1   42.31    3.68
  -6  -4   1   37.45    4.51
  -6  -4   2  647.11   22.16
  -6  -4   2  626.76   24.23
  -6  -4   2  655.11   25.46
  -6  -4   3  512.33   18.08
  -6  -4   3  536.01   20.77
  -6  -4   3  538.31   21.91
  -6  -4   4   48.06    4.57
  -6  -4   4   55.35    5.44
  -6  -4   5   32.64    4.27
  -6  -4   5   31.19    4.38
  -6  -4   5   31.83    3.67
  -6  -4   6  137.03    9.75
  -6  -4   6  135.13    8.16
  -6  -4   6  130.04    9.08
  -6  -4   7  259.65   14.99
  -6  -4   7  278.11   12.98
  -6  -4   7  285.58   14.66
  -6  -4   8  236.93   14.20
  -6  -4   8  225.13   11.34
  -6  -4   8  215.31   12.68
  -6  -4   9  157.72   11.74
  -6  -4   9  161.26    9.27
  -6  -4  10    3.53    2.41
  -6  -4  10    0.48    1.39
  -6  -4  11   -2.50    2.57
  -6  -4  11   -0.12    1.17
  -6  -4  12  113.54   10.91
  -6  -4  13  140.75   12.57
  -6  -3 -15    3.81    2.91
  -6  -3 -14    7.01    3.43
  -6  -3 -13   95.95   10.32
  -6  -3 -12  102.71   10.27
  -6  -3 -11   77.42    8.45
  -6  -3 -10  178.50   12.83
  -6  -3  -9    1.24    1.80
  -6  -3  -8   13.82    3.39
  -6  -3  -8   12.18    2.59
  -6  -3  -7  242.09   13.96
  -6  -3  -7  243.00   13.44
  -6  -3  -6  224.31   13.11
  -6  -3  -6  250.15   13.30
  -6  -3  -5  137.02    9.16
  -6  -3  -5  122.85    8.68
  -6  -3  -4   32.59    4.17
  -6  -3  -4   36.15    4.41
  -6  -3  -3    4.00    1.59
  -6  -3  -3    3.52    1.80
  -6  -3  -2   -0.08    1.42
  -6  -3  -2    3.20    1.65
  -6  -3  -1   29.49    3.62
  -6  -3  -1   39.02    4.46
  -6  -3   0 1782.06   56.41
  -6  -3   0 1760.39   57.95
  -6  -3   1  318.62   13.70
  -6  -3   1  345.37   15.47
  -6  -3   2  421.67   16.82
  -6  -3   2  495.36   19.55
  -6  -3   3    0.19    0.84
  -6  -3   3    1.85    1.49
  -6  -3   3   -0.02    1.10
  -6  -3   4    9.89    2.30
  -6  -3   4   17.76    3.22
  -6  -3   4   13.91    2.39
  -6  -3   5  268.15   14.23
  -6  -3   5  259.78   11.83
  -6  -3   5  288.02   14.73
  -6  -3   5  266.07   13.49
  -6  -3   6  289.20   15.37
  -6  -3   6  292.59   12.61
  -6  -3   6  286.39   15.59
  -6  -3   6  298.94   14.54
  -6  -3   7  107.72    8.67
  -6  -3   7  104.99    9.01
  -6  -3   7  108.51    6.46
  -6  -3   7   92.44    7.31
  -6  -3   8   71.81    7.32
  -6  -3   8   60.70    6.99
  -6  -3   8   66.92    4.95
  -6  -3   8   73.59    6.46
  -6  -3   9   -1.10    1.81
  -6  -3   9    0.66    1.10
  -6  -3  10  107.59    9.74
  -6  -3  10  106.27    6.37
  -6  -3  10   94.51    7.80
  -6  -3  11   62.20    6.36
  -6  -3  11   60.27    4.71
  -6  -3  11   59.26    7.63
  -6  -3  12  412.72   22.62
  -6  -3  13   56.68    7.93
  -6  -3  14   -0.22    2.46
  -6  -2 -15   33.36    6.30
  -6  -2 -14  116.17   11.44
  -6  -2 -13  274.23   18.11
  -6  -2 -12  167.56   13.27
  -6  -2 -11   30.10    5.60
  -6  -2 -10   29.71    5.17
  -6  -2  -9  143.72   10.96
  -6  -2  -8  494.46   22.96
  -6  -2  -7  668.88   27.82
  -6  -2  -6  342.04   17.05
  -6  -2  -5   28.12    4.07
  -6  -2  -4  361.90   16.89
  -6  -2  -4  343.92   16.40
  -6  -2  -3  698.28   27.53
  -6  -2  -3  727.97   27.37
  -6  -2  -2  426.20   18.58
  -6  -2  -2  413.75   17.98
  -6  -2  -1 1822.56   58.39
  -6  -2  -1 1776.95   54.80
  -6  -2  -1 1728.66   57.28
  -6  -2   0  350.87   15.88
  -6  -2   0  323.12   13.65
  -6  -2   0  354.40   15.14
  -6  -2   1   75.03    6.20
  -6  -2   1   76.26    5.66
  -6  -2   1   70.53    5.37
  -6  -2   2  427.32   16.71
  -6  -2   2  370.49   16.72
  -6  -2   2  435.71   18.01
  -6  -2   3  910.16   32.02
  -6  -2   3  999.88   34.05
  -6  -2   3  935.38   33.49
  -6  -2   4  554.15   20.33
  -6  -2   4  563.27   22.99
  -6  -2   4  567.03   22.32
  -6  -2   5  261.94   13.86
  -6  -2   5  272.82   11.30
  -6  -2   5  254.27   13.96
  -6  -2   5  249.83   12.77
  -6  -2   6    1.91    1.21
  -6  -2   6    3.47    2.01
  -6  -2   6    0.51    1.73
  -6  -2   6    1.90    1.00
  -6  -2   7   85.55    7.64
  -6  -2   7   88.88    8.10
  -6  -2   7   86.75    5.16
  -6  -2   7   88.58    6.77
  -6  -2   8  214.19   13.01
  -6  -2   8  199.06   13.30
  -6  -2   8  191.15    8.50
  -6  -2   8  201.76   11.11
  -6  -2   9  290.19   16.22
  -6  -2   9  273.48   10.66
  -6  -2   9  264.95   16.35
  -6  -2   9  270.52   13.65
  -6  -2  10   64.90    7.41
  -6  -2  10   71.60    8.20
  -6  -2  10   72.39    4.03
  -6  -2  10   68.51    6.20
  -6  -2  11    0.01    1.82
  -6  -2  11   -0.49    2.15
  -6  -2  11    2.94    2.89
  -6  -2  12    3.29    2.65
  -6  -2  12    6.92    3.28
  -6  -2  13   36.12    6.63
  -6  -2  13   22.62    5.17
  -6  -2  14   38.00    6.39
  -6  -1 -15   42.53    7.33
  -6  -1 -14   16.40    4.56
  -6  -1 -13   10.34    4.14
  -6  -1 -12    8.46    3.83
  -6  -1 -11  212.08   14.65
  -6  -1 -10   96.41    9.12
  -6  -1  -9   40.80    5.72
  -6  -1  -8    2.96    1.80
  -6  -1  -7   30.94    4.57
  -6  -1  -6  189.33   11.97
  -6  -1  -5   60.24    6.16
  -6  -1  -4  278.38   14.54
  -6  -1  -3   33.75    2.43
  -6  -1  -3   41.36    4.81
  -6  -1  -2    4.24    1.10
  -6  -1  -2    5.40    1.97
  -6  -1  -1    3.77    1.80
  -6  -1  -1    6.09    1.47
  -6  -1  -1    4.74    1.79
  -6  -1   0  118.80    8.28
  -6  -1   0  118.88    6.87
  -6  -1   0  128.62    8.18
  -6  -1   1   79.63    6.52
  -6  -1   1   95.90    6.30
  -6  -1   1   89.65    6.61
  -6  -1   2  368.29   16.43
  -6  -1   2  374.62   16.00
  -6  -1   2  351.77   15.71
  -6  -1   3  214.44   11.21
  -6  -1   3  218.40   11.02
  -6  -1   3  192.66   11.00
  -6  -1   4  107.29    7.84
  -6  -1   4   94.81    6.90
  -6  -1   5    2.77    1.74
  -6  -1   5    2.28    1.52
  -6  -1   5    2.83    1.92
  -6  -1   5    2.33    0.89
  -6  -1   6  282.82   14.81
  -6  -1   6  281.78   15.35
  -6  -1   6  288.66   10.97
  -6  -1   6  284.77   13.52
  -6  -1   7   79.02    7.19
  -6  -1   7   76.52    4.03
  -6  -1   7   76.52    7.57
  -6  -1   7   78.93    6.13
  -6  -1   8  229.02   13.52
  -6  -1   8  241.85   14.58
  -6  -1   8  216.50    7.54
  -6  -1   8  207.22   11.07
  -6  -1   9  158.73   11.16
  -6  -1   9  143.54   11.39
  -6  -1   9  131.09    8.42
  -6  -1  10   38.01    4.33
  -6  -1  10   38.28    6.12
  -6  -1  10   43.66    6.11
  -6  -1  11   56.90    7.75
  -6  -1  11   66.79    7.71
  -6  -1  12  127.16   12.07
  -6  -1  12  118.69   10.95
  -6  -1  13  106.31   11.20
  -6  -1  13  103.34   10.51
  -6  -1  14   69.58    9.25
  -6  -1  14   74.80    9.19
  -6   0 -14   16.38    4.30
  -6   0 -13   56.68    7.99
  -6   0 -12  123.71   11.44
  -6   0 -11  234.05   15.84
  -6   0 -10    8.41    2.57
  -6   0  -9   -0.24    1.90
  -6   0  -8  107.74    9.39
  -6   0  -7  469.37   22.37
  -6   0  -6  438.10   21.05
  -6   0  -5   38.58    2.32
  -6   0  -5   33.94    4.99
  -6   0  -4    3.61    1.78
  -6   0  -4    2.14    0.87
  -6   0  -4   -0.05    1.42
  -6   0  -3   99.25    7.53
  -6   0  -3   82.16    4.79
  -6   0  -3   90.67    7.59
  -6   0  -2  370.36   16.70
  -6   0  -2  345.84   13.73
  -6   0  -2  368.81   17.25
  -6   0  -1  448.78   17.37
  -6   0  -1  482.27   19.52
  -6   0  -1  457.42   20.03
  -6   0   0  490.87   19.47
  -6   0   0  467.97   18.37
  -6   0   0  462.69   20.10
  -6   0   1   99.46    7.46
  -6   0   1   97.38    6.67
  -6   0   1  112.12    7.18
  -6   0   1  105.62    7.64
  -6   0   2   11.59    2.61
  -6   0   2   11.20    2.09
  -6   0   2    8.51    2.18
  -6   0   2    6.93    2.07
  -6   0   3   74.57    6.19
  -6   0   3   83.12    6.66
  -6   0   3   75.68    5.22
  -6   0   4  421.94   18.02
  -6   0   4  437.21   19.35
  -6   0   4  425.98   16.00
  -6   0   5  553.38   23.16
  -6   0   5  571.17   19.39
  -6   0   5  551.95   23.92
  -6   0   5  560.24   21.90
  -6   0   6  687.31   27.21
  -6   0   6  665.53   28.05
  -6   0   6  677.79   21.84
  -6   0   6  690.86   21.86
  -6   0   6  655.28   25.13
  -6   0   7    8.34    2.10
  -6   0   7    4.66    2.37
  -6   0   7   10.62    2.74
  -6   0   8   20.88    3.08
  -6   0   8   13.87    3.14
  -6   0   8   17.50    4.01
  -6   0   9  147.30   10.85
  -6   0   9  158.62   12.16
  -6   0   9  154.27    8.68
  -6   0  10  265.96   15.62
  -6   0  10  260.37   16.76
  -6   0  10  252.97   11.98
  -6   0  11  333.90   18.73
  -6   0  11  335.59   20.12
  -6   0  12   94.37    9.69
  -6   0  12  106.88   10.94
  -6   0  13    6.99    3.40
  -6   0  13    0.05    2.14
  -6   0  14   21.48    5.16
  -6   1 -14   96.24   10.61
  -6   1 -13   20.68    5.30
  -6   1 -12    0.01    3.08
  -6   1 -11   44.21    6.76
  -6   1 -10   55.53    7.52
  -6   1  -9  117.81   10.51
  -6   1  -9  122.55    5.24
  -6   1  -8   68.37    7.68
  -6   1  -8   67.68    3.82
  -6   1  -8   78.75    3.97
  -6   1  -7   48.12    6.25
  -6   1  -7   48.20    3.17
  -6   1  -6    5.22    2.58
  -6   1  -6    3.93    1.15
  -6   1  -5   69.68    7.15
  -6   1  -5   67.36    4.28
  -6   1  -4   74.71    7.25
  -6   1  -4   71.48    4.64
  -6   1  -3   29.62    4.50
  -6   1  -3   38.46    3.46
  -6   1  -3   37.78    4.78
  -6   1  -2   76.32    6.91
  -6   1  -2   69.14    6.40
  -6   1  -2   73.31    5.19
  -6   1  -1    3.91    1.74
  -6   1  -1    2.33    1.16
  -6   1  -1    5.58    1.94
  -6   1   0   51.27    5.54
  -6   1   0   52.57    4.80
  -6   1   0   43.81    4.74
  -6   1   1  144.55    9.62
  -6   1   1  124.66    7.97
  -6   1   1  124.90    8.14
  -6   1   2    2.92    1.58
  -6   1   2    2.34    1.55
  -6   1   2    3.09    1.60
  -6   1   2    3.66    1.49
  -6   1   3   80.43    6.54
  -6   1   3   79.97    5.59
  -6   1   3   81.74    6.93
  -6   1   4  137.88    8.55
  -6   1   4  125.31    9.11
  -6   1   4  121.60    6.74
  -6   1   5   28.15    3.63
  -6   1   5   32.85    4.27
  -6   1   5   36.62    2.97
  -6   1   5   26.65    4.30
  -6   1   6    2.61    1.43
  -6   1   6    0.03    1.40
  -6   1   6    3.65    2.11
  -6   1   6    1.18    0.52
  -6   1   7   94.84    7.65
  -6   1   7   77.62    7.94
  -6   1   7   86.79    6.20
  -6   1   8  115.94    8.94
  -6   1   8  115.82   10.02
  -6   1   8  108.08    6.97
  -6   1   9  131.36    9.85
  -6   1   9  123.91   10.80
  -6   1   9  117.33    7.12
  -6   1  10  173.31   13.58
  -6   1  10  176.67   12.21
  -6   1  11    1.54    2.92
  -6   1  11    7.99    3.22
  -6   1  12    4.79    3.32
  -6   1  12   11.16    3.75
  -6   1  13   81.37   10.10
  -6   1  13   81.87    9.12
  -6   1  14   97.23   10.30
  -6   2 -13   13.03    3.69
  -6   2 -12  112.24   11.14
  -6   2 -11  210.99   15.59
  -6   2 -10  116.69   11.03
  -6   2  -9  154.32   12.54
  -6   2  -8    1.89    1.31
  -6   2  -8    2.89    2.40
  -6   2  -7   83.99    5.42
  -6   2  -7   92.21    9.03
  -6   2  -6  363.51   14.45
  -6   2  -6  329.38   18.66
  -6   2  -5  866.99   28.99
  -6   2  -5  768.04   33.39
  -6   2  -4  348.70   14.79
  -6   2  -4  363.50   18.71
  -6   2  -3   90.80    6.37
  -6   2  -3  103.96    8.76
  -6   2  -2  103.06    7.87
  -6   2  -2  113.83    7.37
  -6   2  -2  119.96    8.90
  -6   2  -2  105.73    8.90
  -6   2  -1  287.50   15.31
  -6   2  -1  332.83   15.88
  -6   2  -1  324.32   14.62
  -6   2  -1  306.81   16.51
  -6   2   0  851.87   31.37
  -6   2   0  720.22   29.15
  -6   2   0  770.67   29.03
  -6   2   0  830.10   31.85
  -6   2   1  921.63   34.30
  -6   2   1  920.31   34.73
  -6   2   1  834.91   31.58
  -6   2   1  865.36   32.31
  -6   2   2   46.66    5.17
  -6   2   2   45.65    4.61
  -6   2   3    2.29    1.54
  -6   2   3    1.11    1.95
  -6   2   3   -0.58    1.13
  -6   2   4  253.57   13.05
  -6   2   4  253.81   11.38
  -6   2   4  250.39   14.26
  -6   2   5  352.51   16.19
  -6   2   5  377.61   18.86
  -6   2   5  357.65   13.98
  -6   2   5  390.42   17.17
  -6   2   6  423.66   18.50
  -6   2   6  445.95   19.85
  -6   2   6  412.20   21.50
  -6   2   6  485.69   15.68
  -6   2   7   56.24    5.83
  -6   2   7   50.82    6.59
  -6   2   7   59.82    5.07
  -6   2   8    0.72    1.44
  -6   2   8    2.69    2.38
  -6   2   8    0.47    1.56
  -6   2   9    4.84    2.65
  -6   2   9   11.25    2.99
  -6   2  10   59.50    8.00
  -6   2  10   63.11    6.79
  -6   2  11  220.77   16.13
  -6   2  11  196.88   13.50
  -6   2  12   25.02    5.31
  -6   2  12   23.75    4.89
  -6   2  13   53.88    7.39
  -6   2  14    2.77    2.61
  -6   2  15    2.03    3.73
  -6   3 -12   43.41    7.11
  -6   3 -11    2.02    2.62
  -6   3 -10   -3.48    3.20
  -6   3  -9   35.71    6.24
  -6   3  -8  110.63    7.15
  -6   3  -8  114.35   10.66
  -6   3  -7  105.64    7.13
  -6   3  -7  113.42   10.33
  -6   3  -6   38.70    4.17
  -6   3  -6   41.54    6.05
  -6   3  -5   22.44    3.34
  -6   3  -5   23.08    4.63
  -6   3  -4   -0.86    1.88
  -6   3  -4    0.13    1.40
  -6   3  -4    3.94    2.38
  -6   3  -3   52.01    5.67
  -6   3  -3   66.33    5.82
  -6   3  -3   62.52    6.98
  -6   3  -2  223.44   13.36
  -6   3  -2  268.67   13.33
  -6   3  -2  263.65   15.46
  -6   3  -1  131.87    9.73
  -6   3  -1  122.71   10.12
  -6   3  -1  130.75    8.87
  -6   3   0  241.87   14.79
  -6   3   0  243.52   13.43
  -6   3   0  247.96   13.39
  -6   3   1   29.03    4.26
  -6   3   1   30.32    4.15
  -6   3   2    2.62    1.91
  -6   3   2    2.63    1.87
  -6   3   3   46.79    4.78
  -6   3   3   52.80    6.00
  -6   3   4  335.15   15.99
  -6   3   4  311.51   17.20
  -6   3   4  333.60   14.32
  -6   3   5  310.12   15.12
  -6   3   5  335.85   17.94
  -6   3   5  305.80   13.04
  -6   3   5  344.71   15.50
  -6   3   6  308.06   14.70
  -6   3   6  308.90   17.86
  -6   3   6  321.06   12.22
  -6   3   6  331.02   15.56
  -6   3   7    1.11    1.54
  -6   3   7    5.04    2.09
  -6   3   7    2.95    1.72
  -6   3   8    6.60    3.08
  -6   3   8    8.57    2.51
  -6   3   9  129.71   11.66
  -6   3   9  118.12    9.17
  -6   3  10  356.53   21.27
  -6   3  10  335.29   17.74
  -6   3  11  146.91   13.38
  -6   3  11  162.26   11.70
  -6   3  12   19.96    5.48
  -6   3  12   22.09    4.97
  -6   3  13    6.07    3.54
  -6   3  14   60.30    8.22
  -6   4 -11   34.16    6.34
  -6   4 -10   44.58    7.24
  -6   4  -9  100.30   10.33
  -6   4  -8   99.73   10.36
  -6   4  -7   43.49    4.86
  -6   4  -7   36.68    6.32
  -6   4  -6   14.70    2.98
  -6   4  -6   21.22    4.96
  -6   4  -5  148.74   10.21
  -6   4  -5  166.84   10.31
  -6   4  -5  162.70   12.67
  -6   4  -4   96.68    8.24
  -6   4  -4   99.40    9.65
  -6   4  -4  102.52    7.91
  -6   4  -3  314.66   18.45
  -6   4  -3  321.31   16.07
  -6   4  -2   90.45    9.06
  -6   4  -2   85.90    7.45
  -6   4  -1   31.51    5.48
  -6   4  -1   26.31    4.10
  -6   4   0  129.22    9.68
  -6   4   1  292.31   16.02
  -6   4   1  255.34   14.33
  -6   4   2  373.51   17.69
  -6   4   2  388.25   19.41
  -6   4   3  215.97   13.85
  -6   4   3  226.66   12.10
  -6   4   4   41.55    4.44
  -6   4   4   38.91    5.58
  -6   4   4   39.31    4.42
  -6   4   5   20.11    3.53
  -6   4   5   12.26    3.52
  -6   4   5   21.51    3.25
  -6   4   6  119.03   10.65
  -6   4   6  110.81    7.86
  -6   4   7  611.67   29.54
  -6   4   7  647.15   25.37
  -6   4   8  150.03   13.03
  -6   4   8  165.37   10.41
  -6   4   9   87.23    9.94
  -6   4   9   88.96    7.56
  -6   4  10    2.04    3.04
  -6   4  10   -1.89    2.39
  -6   5  -9    4.16    2.82
  -6   5  -8   22.20    5.46
  -6   5  -7   72.34    8.86
  -6   5  -6  147.05   10.24
  -6   5  -6  129.30   11.89
  -6   5  -5  121.01    9.29
  -6   5  -5  105.44   10.69
  -6   5  -4    1.28    1.78
  -6   5  -4    5.75    3.34
  -6   5  -3    4.57    2.09
  -6   5  -3    1.52    2.67
  -6   5  -2   75.58    7.47
  -6   5  -1  149.93   11.07
  -6   5   0   86.67    8.26
  -6   5   1   17.80    4.06
  -6   5   2   21.93    4.30
  -6   5   3   15.32    3.93
  -6   5   3   11.57    2.54
  -6   5   4   81.55    8.90
  -6   5   4  104.11    6.84
  -6   5   5   69.48    8.25
  -6   5   5   74.50    5.80
  -6   5   6   64.41    8.20
  -6   5   7   73.63    8.95
  -6   5   8   12.04    3.85
  -6   5   9   12.55    3.96
  -6   6  -6   30.30    5.91
  -6   6  -5   -1.95    2.56
  -6   6  -5   -0.39    2.42
  -6   6  -4   96.60    9.00
  -6   6  -3  237.74   15.20
  -6   6  -2  295.73   17.44
  -6   6  -1  251.55   16.01
  -6   6   0    4.39    2.91
  -6   6   1   59.29    7.69
  -6   6   2  184.46   13.96
  -6   6   3  310.82   19.38
  -6   6   4  199.13   14.91
  -6   6   5   12.69    4.15
  -6   6   6   13.87    4.11
  -6   6   7  138.17   12.95
  -6   7  -4   78.03    8.94
  -6   7  -3    8.80    4.07
  -6   7  -2    6.70    3.74
  -6   7  -1   52.51    7.32
  -6   7   0  123.64   11.47
  -6   7   1  113.77   11.13
  -6   7   2   47.19    7.20
  -6   7   3   16.39    4.59
  -6   7   3    1.89    2.07
  -6   7   4    9.02    3.96
  -6   8  -2   95.58   10.61
  -6   8  -1  120.84   12.04
  -6   8   0   43.19    7.08
  -6   8   1    4.84    3.89
  -5 -12 -11   16.02    5.00
  -5 -12 -10   22.13    4.99
  -5 -12  -9   11.50    4.43
  -5 -12  -8   12.51    4.18
  -5 -12  -7   -0.06    2.61
  -5 -12  -6    2.83    3.02
  -5 -12  -5   16.16    4.27
  -5 -12  -4   29.44    5.67
  -5 -12  -3    3.11    2.25
  -5 -12  -2    9.72    3.94
  -5 -12  -1    2.46    2.64
  -5 -12   0   15.36    4.20
  -5 -12   1   17.59    4.88
  -5 -12   2   11.11    3.36
  -5 -12   3   44.88    7.50
  -5 -11 -12   69.14    8.60
  -5 -11 -11   56.82    7.75
  -5 -11 -10   13.28    4.28
  -5 -11  -9   17.17    4.49
  -5 -11  -8    5.49    3.50
  -5 -11  -7   73.80    8.44
  -5 -11  -6   98.37    9.95
  -5 -11  -5  121.69   10.99
  -5 -11  -4   68.74    8.16
  -5 -11  -3   13.56    4.45
  -5 -11  -2   29.43    5.64
  -5 -11  -1  170.67   13.44
  -5 -11   0  143.38    8.26
  -5 -11   0  128.87   11.61
  -5 -11   1  169.95    9.55
  -5 -11   1  167.03   13.37
  -5 -11   2    1.40    1.38
  -5 -11   2   -1.69    2.64
  -5 -11   3   12.47    2.86
  -5 -11   3   14.92    4.57
  -5 -11   4   83.87    7.21
  -5 -11   4   76.38    9.22
  -5 -11   5  165.75   11.00
  -5 -11   5  146.14   13.15
  -5 -11   6   70.63    7.38
  -5 -11   6   77.32    9.53
  -5 -11   7   20.74    4.44
  -5 -11   8   -0.95    2.88
  -5 -10 -13   20.44    5.22
  -5 -10 -12   38.85    6.39
  -5 -10 -11   -0.31    2.15
  -5 -10 -11    8.22    3.47
  -5 -10 -10    6.53    3.19
  -5 -10  -9   27.17    5.19
  -5 -10  -8   37.80    5.96
  -5 -10  -7  142.23   11.34
  -5 -10  -6    6.19    2.61
  -5 -10  -5   19.38    4.17
  -5 -10  -5   17.41    3.34
  -5 -10  -4   -0.32    2.29
  -5 -10  -4   -1.71    1.89
  -5 -10  -3   29.24    3.66
  -5 -10  -3   28.75    5.04
  -5 -10  -2  148.77    8.24
  -5 -10  -2  141.26   11.38
  -5 -10  -2  131.70    7.54
  -5 -10  -1   65.16    5.22
  -5 -10  -1   54.85    3.85
  -5 -10  -1   51.98    6.99
  -5 -10   0   73.56    5.68
  -5 -10   0   51.11    6.90
  -5 -10   1    2.23    1.75
  -5 -10   1    2.97    1.57
  -5 -10   1    1.97    2.12
  -5 -10   2    6.80    1.91
  -5 -10   2    7.37    3.23
  -5 -10   3   63.42    5.93
  -5 -10   3   56.16    7.27
  -5 -10   4  149.83   10.05
  -5 -10   4  153.04   12.58
  -5 -10   5   51.83    5.93
  -5 -10   5   61.33    7.94
  -5 -10   6   21.74    4.10
  -5 -10   6   19.29    4.58
  -5 -10   7   21.27    4.28
  -5 -10   7   17.16    4.49
  -5 -10   8   39.86    6.08
  -5 -10   8   33.14    6.39
  -5 -10   9   40.35    6.43
  -5 -10   9   33.61    6.47
  -5 -10  10   34.39    6.22
  -5 -10  11   26.46    5.51
  -5  -9 -14   21.04    5.15
  -5  -9 -13   -3.70    3.17
  -5  -9 -12   24.81    5.54
  -5  -9 -12   30.79    5.49
  -5  -9 -11   95.92   10.45
  -5  -9 -11   97.69    9.24
  -5  -9 -10  106.14   10.94
  -5  -9 -10  118.53   10.06
  -5  -9  -9   34.09    5.41
  -5  -9  -8   57.99    5.82
  -5  -9  -8   50.48    6.44
  -5  -9  -7    8.15    2.47
  -5  -9  -7    1.30    1.71
  -5  -9  -6  193.62   13.30
  -5  -9  -6  224.59   12.65
  -5  -9  -6  234.29   12.99
  -5  -9  -5  251.45   14.80
  -5  -9  -5  230.58   13.16
  -5  -9  -5  217.13   12.27
  -5  -9  -4  123.08   10.10
  -5  -9  -4  139.96    8.70
  -5  -9  -3   86.10    8.20
  -5  -9  -3   88.40    6.31
  -5  -9  -2   42.53    3.88
  -5  -9  -2   45.91    5.87
  -5  -9  -1   26.87    4.59
  -5  -9  -1   20.21    2.23
  -5  -9   0  100.02    9.06
  -5  -9   0  114.42    7.42
  -5  -9   1  333.93   18.25
  -5  -9   1  333.37   15.17
  -5  -9   2  142.06   10.81
  -5  -9   2  113.98    6.60
  -5  -9   2  120.40    8.13
  -5  -9   3   67.88    4.40
  -5  -9   3   81.78    4.68
  -5  -9   3   80.41    6.70
  -5  -9   3   79.79    8.14
  -5  -9   4   -0.30    0.59
  -5  -9   4    0.45    1.24
  -5  -9   4    0.82    0.48
  -5  -9   4   -1.06    2.42
  -5  -9   5   30.54    4.52
  -5  -9   5   30.65    5.26
  -5  -9   6   54.73    6.16
  -5  -9   6   44.01    6.30
  -5  -9   7  399.17   20.01
  -5  -9   7  388.44   21.54
  -5  -9   8   60.65    7.22
  -5  -9   8   72.40    8.71
  -5  -9   9    6.52    3.01
  -5  -9   9   17.15    4.52
  -5  -9  10    2.04    2.90
  -5  -9  10    4.67    3.32
  -5  -9  11   34.78    6.41
  -5  -9  11   27.89    5.62
  -5  -9  12   96.65   10.42
  -5  -8 -14   21.36    4.90
  -5  -8 -13   69.45    8.99
  -5  -8 -13   62.95    7.54
  -5  -8 -12   61.94    8.52
  -5  -8 -12   62.20    7.30
  -5  -8 -11  147.83   12.61
  -5  -8 -11  134.62   10.77
  -5  -8 -10   -1.39    2.97
  -5  -8 -10    0.42    1.65
  -5  -8 -10    3.05    2.30
  -5  -8  -9   65.37    7.81
  -5  -8  -9   54.98    6.58
  -5  -8  -9   68.43    6.07
  -5  -8  -8   35.55    6.27
  -5  -8  -8   40.71    4.67
  -5  -8  -8   42.80    5.67
  -5  -8  -7  175.92   11.85
  -5  -8  -7  167.15   10.21
  -5  -8  -6  195.88   12.28
  -5  -8  -6  167.44   10.45
  -5  -8  -6  175.85   10.94
  -5  -8  -5   61.29    5.72
  -5  -8  -5   44.86    5.70
  -5  -8  -5   53.89    5.53
  -5  -8  -4    1.21    1.27
  -5  -8  -4   -0.12    1.41
  -5  -8  -3   63.43    6.67
  -5  -8  -3   60.89    5.00
  -5  -8  -3   65.76    6.33
  -5  -8  -2  171.14   11.26
  -5  -8  -2  175.85   10.97
  -5  -8  -2  152.88    8.19
  -5  -8  -1  167.03   11.42
  -5  -8  -1  189.29   11.64
  -5  -8   0  101.90    8.46
  -5  -8   1   71.39    5.82
  -5  -8   1   79.18    7.49
  -5  -8   2   48.89    4.93
  -5  -8   2   49.29    3.63
  -5  -8   2   48.85    5.84
  -5  -8   3   51.68    3.17
  -5  -8   3   55.88    5.50
  -5  -8   3   54.17    3.26
  -5  -8   3   50.15    6.11
  -5  -8   4  165.72   10.47
  -5  -8   4  167.34   11.62
  -5  -8   5  283.12   15.27
  -5  -8   5  319.50   17.14
  -5  -8   6   77.85    7.23
  -5  -8   6   79.02    8.02
  -5  -8   7  107.53    9.14
  -5  -8   7  125.82   10.41
  -5  -8   8    0.69    1.63
  -5  -8   8    7.96    2.85
  -5  -8   9   32.61    5.49
  -5  -8   9   25.21    5.15
  -5  -8  10  149.62   12.39
  -5  -8  10  163.11   12.73
  -5  -8  11  134.57   12.00
  -5  -8  11  149.84   12.45
  -5  -8  12   49.28    7.31
  -5  -8  12   45.29    6.94
  -5  -8  13    6.27    2.91
  -5  -7 -14   57.80    8.34
  -5  -7 -13   59.89    8.29
  -5  -7 -12   -3.83    3.76
  -5  -7 -11    7.17    3.20
  -5  -7 -11   -1.01    1.97
  -5  -7 -10  207.91   14.47
  -5  -7 -10  202.25   11.08
  -5  -7  -9   91.10    8.80
  -5  -7  -9   94.36    7.03
  -5  -7  -8  308.75   17.15
  -5  -7  -8  310.87   14.68
  -5  -7  -7  142.28   10.39
  -5  -7  -7  148.53    9.96
  -5  -7  -7  125.87    8.52
  -5  -7  -6    3.58    2.01
  -5  -7  -6    3.14    1.49
  -5  -7  -6    6.04    2.45
  -5  -7  -6    6.60    2.13
  -5  -7  -5  203.89   12.06
  -5  -7  -5  195.94   12.07
  -5  -7  -5  203.38   11.30
  -5  -7  -5  219.47   11.64
  -5  -7  -4  289.70   14.62
  -5  -7  -4  315.65   15.93
  -5  -7  -4  305.74   13.94
  -5  -7  -4  285.26   14.36
  -5  -7  -3  479.70   19.79
  -5  -7  -3  502.23   21.44
  -5  -7  -3  456.51   19.96
  -5  -7  -3  462.01   18.51
  -5  -7  -2  303.77   13.58
  -5  -7  -2  291.45   15.11
  -5  -7  -2  287.64   12.32
  -5  -7  -2  267.89   14.07
  -5  -7  -1   16.40    2.56
  -5  -7  -1   10.43    2.65
  -5  -7  -1   11.68    2.82
  -5  -7   0  210.77    9.95
  -5  -7   0  226.16   12.71
  -5  -7   0  218.13   12.39
  -5  -7   1  552.38   19.67
  -5  -7   1  554.77   23.65
  -5  -7   1  585.76   24.00
  -5  -7   2  440.24   18.46
  -5  -7   2  429.34   15.03
  -5  -7   2  423.29   19.65
  -5  -7   2  430.92   19.90
  -5  -7   3  205.17    7.38
  -5  -7   3  213.44    7.45
  -5  -7   3  245.17   12.23
  -5  -7   3  212.87   12.59
  -5  -7   4   82.45    6.79
  -5  -7   4   62.49    6.47
  -5  -7   5    1.93    1.67
  -5  -7   5    1.33    1.51
  -5  -7   6  255.61   14.23
  -5  -7   6  251.36   14.44
  -5  -7   7  465.62   21.66
  -5  -7   7  448.12   21.45
  -5  -7   8  145.60   11.00
  -5  -7   8  156.51   11.22
  -5  -7   9   52.40    6.66
  -5  -7   9   48.75    6.25
  -5  -7  10    1.19    2.47
  -5  -7  10    3.74    2.05
  -5  -7  11   14.89    4.16
  -5  -7  11   16.25    3.62
  -5  -7  12   82.69    9.41
  -5  -7  12   80.92    8.58
  -5  -7  13   80.34    9.63
  -5  -7  13   87.34    9.17
  -5  -6 -15    8.27    4.40
  -5  -6 -14    3.65    3.49
  -5  -6 -13   17.23    4.72
  -5  -6 -12  115.36   11.03
  -5  -6 -11  114.67   10.39
  -5  -6 -11  100.54    7.34
  -5  -6 -10   70.82    7.86
  -5  -6 -10   67.51    5.86
  -5  -6  -9    5.28    2.49
  -5  -6  -9    4.23    1.86
  -5  -6  -8    1.91    1.81
  -5  -6  -8    2.35    1.55
  -5  -6  -7   16.19    3.43
  -5  -6  -7   13.98    2.84
  -5  -6  -7    9.18    2.50
  -5  -6  -6  570.67   23.24
  -5  -6  -6  489.75   21.08
  -5  -6  -6  538.80   22.19
  -5  -6  -5  126.07    8.84
  -5  -6  -5  141.05    8.75
  -5  -6  -5  136.67    8.70
  -5  -6  -4   89.16    6.95
  -5  -6  -4   90.96    6.54
  -5  -6  -4   95.50    6.99
  -5  -6  -3    8.97    2.13
  -5  -6  -3   13.60    2.88
  -5  -6  -3    9.00    1.92
  -5  -6  -3    9.11    2.37
  -5  -6  -2   75.52    5.56
  -5  -6  -2   75.71    6.54
  -5  -6  -2   70.11    5.97
  -5  -6  -2   64.98    4.85
  -5  -6  -1  113.40    6.82
  -5  -6  -1  132.65    8.71
  -5  -6  -1  117.36    8.16
  -5  -6   0  263.16   11.04
  -5  -6   0  250.32   13.26
  -5  -6   0  272.88   13.54
  -5  -6   1  238.61    9.72
  -5  -6   1  236.68   12.65
  -5  -6   1  240.36   12.78
  -5  -6   2   38.41    2.57
  -5  -6   2   39.08    4.67
  -5  -6   2   29.75    4.00
  -5  -6   3   13.83    2.73
  -5  -6   3   15.30    3.05
  -5  -6   3   11.16    2.60
  -5  -6   4   20.84    3.40
  -5  -6   4   24.03    3.85
  -5  -6   4   24.30    3.59
  -5  -6   5  153.78    9.95
  -5  -6   5  142.29    9.81
  -5  -6   6  178.14   11.17
  -5  -6   6  164.80   10.51
  -5  -6   7  150.95   10.55
  -5  -6   7  144.36    9.88
  -5  -6   8    5.82    2.29
  -5  -6   8    2.74    1.66
  -5  -6   9   -0.61    1.77
  -5  -6   9    3.14    1.61
  -5  -6  10   42.20    6.28
  -5  -6  10   42.18    5.40
  -5  -6  11  130.74   11.45
  -5  -6  11  121.99    9.67
  -5  -6  12   35.33    6.33
  -5  -6  12   41.64    5.65
  -5  -6  13   44.57    6.90
  -5  -6  13   48.80    6.40
  -5  -5 -15   36.01    6.66
  -5  -5 -14   64.51    8.65
  -5  -5 -13  279.43   18.21
  -5  -5 -12  111.10   10.37
  -5  -5 -12   85.62    7.08
  -5  -5 -11   70.53    7.97
  -5  -5 -11   74.16    6.43
  -5  -5 -10    4.61    2.24
  -5  -5 -10   10.35    2.57
  -5  -5  -9   73.36    7.41
  -5  -5  -9   69.09    6.01
  -5  -5  -8  298.22   16.26
  -5  -5  -8  326.43   14.86
  -5  -5  -7  380.34   18.39
  -5  -5  -7  398.68   18.35
  -5  -5  -7  389.00   16.96
  -5  -5  -6 1038.93   38.41
  -5  -5  -6 1023.04   36.89
  -5  -5  -5    2.94    1.80
  -5  -5  -5    4.54    1.59
  -5  -5  -5    4.05    1.83
  -5  -5  -4    7.03    1.89
  -5  -5  -4    8.50    2.12
  -5  -5  -4    4.53    1.60
  -5  -5  -3  389.06   16.12
  -5  -5  -3  356.78   15.43
  -5  -5  -3  388.41   16.54
  -5  -5  -2  715.29   25.31
  -5  -5  -2  693.74   26.35
  -5  -5  -1 1014.82   34.41
  -5  -5  -1 1032.82   36.63
  -5  -5  -1 1112.45   36.90
  -5  -5   0  308.70   12.40
  -5  -5   0  311.04   14.60
  -5  -5   0  332.27   14.89
  -5  -5   1   25.94    2.36
  -5  -5   1   29.26    3.83
  -5  -5   1   30.64    3.76
  -5  -5   2  100.96    4.68
  -5  -5   2  103.17    7.18
  -5  -5   2   97.96    7.32
  -5  -5   3  145.99    5.09
  -5  -5   3  132.47    8.45
  -5  -5   3  133.40    8.94
  -5  -5   4  633.59   25.67
  -5  -5   4  659.99   25.37
  -5  -5   4  710.62   26.65
  -5  -5   5  428.77   19.40
  -5  -5   5  442.45   18.82
  -5  -5   5  464.28   20.00
  -5  -5   6  111.40    8.52
  -5  -5   6  116.36    7.97
  -5  -5   6  124.02    8.93
  -5  -5   7    0.18    1.46
  -5  -5   7    1.55    1.51
  -5  -5   7   -0.34    1.12
  -5  -5   8  123.00    9.74
  -5  -5   8  137.24    9.06
  -5  -5   9  242.50   14.70
  -5  -5   9  230.33   12.73
  -5  -5  10  216.19   14.38
  -5  -5  10  224.27   12.62
  -5  -5  11  181.00   13.44
  -5  -5  11  179.23   11.24
  -5  -5  12    7.00    3.53
  -5  -5  12    0.48    1.39
  -5  -5  13   22.46    5.27
  -5  -5  13   30.08    4.62
  -5  -4 -15   48.20    7.54
  -5  -4 -14   31.57    6.14
  -5  -4 -13   33.42    6.21
  -5  -4 -12   65.94    7.95
  -5  -4 -12   60.46    6.07
  -5  -4 -11    3.82    2.49
  -5  -4 -11    4.87    2.28
  -5  -4 -10  288.28   16.71
  -5  -4 -10  309.31   15.03
  -5  -4  -9  209.00   13.19
  -5  -4  -9  212.34   11.67
  -5  -4  -8   -1.18    1.98
  -5  -4  -8   -1.20    2.41
  -5  -4  -7   24.66    3.86
  -5  -4  -7   31.96    3.91
  -5  -4  -7   25.09    3.93
  -5  -4  -6   20.20    3.38
  -5  -4  -6   23.74    3.34
  -5  -4  -6   19.13    3.25
  -5  -4  -5  231.73   12.39
  -5  -4  -5  235.17   12.02
  -5  -4  -5  271.02   13.06
  -5  -4  -4  634.54   24.69
  -5  -4  -4  672.87   24.83
  -5  -4  -4  660.01   24.81
  -5  -4  -3  206.63   10.57
  -5  -4  -3  221.26   11.07
  -5  -4  -2  188.68    9.54
  -5  -4  -2  195.29   10.21
  -5  -4  -1   28.75    3.10
  -5  -4  -1   30.18    3.59
  -5  -4   0  466.10   17.46
  -5  -4   0  522.44   19.93
  -5  -4   1  429.22   15.70
  -5  -4   1  476.72   18.23
  -5  -4   1  445.16   18.44
  -5  -4   2  337.67   12.00
  -5  -4   2  304.96   14.06
  -5  -4   2  347.15   15.20
  -5  -4   3  488.91   16.07
  -5  -4   3  536.18   19.72
  -5  -4   3  473.40   20.02
  -5  -4   4  158.91    9.60
  -5  -4   4  153.89    8.61
  -5  -4   4  152.74    9.25
  -5  -4   5   60.67    5.71
  -5  -4   5   61.67    5.00
  -5  -4   5   56.78    5.39
  -5  -4   6  319.06   15.78
  -5  -4   6  306.94   13.92
  -5  -4   6  318.58   15.28
  -5  -4   7  221.26   13.00
  -5  -4   7  215.86   11.09
  -5  -4   7  241.76   12.84
  -5  -4   8  300.27   16.23
  -5  -4   8  298.94   13.93
  -5  -4   8  310.49   15.49
  -5  -4   9   83.57    8.00
  -5  -4   9   85.00    6.51
  -5  -4   9   90.48    7.50
  -5  -4  10    0.66    1.84
  -5  -4  10    1.55    1.32
  -5  -4  11    9.32    3.25
  -5  -4  11    7.64    2.14
  -5  -4  12  111.73   10.63
  -5  -4  12  113.45    8.08
  -5  -4  13  116.66   11.24
  -5  -4  14   60.09    8.35
  -5  -3 -16   31.84    6.41
  -5  -3 -15    4.65    3.63
  -5  -3 -14   21.89    5.52
  -5  -3 -13  148.02   12.42
  -5  -3 -12  425.53   22.40
  -5  -3 -11   14.03    3.65
  -5  -3 -10  386.99   19.83
  -5  -3  -9    0.37    1.49
  -5  -3  -8  164.21   11.03
  -5  -3  -8  163.05   10.04
  -5  -3  -8  181.13   11.49
  -5  -3  -7  603.47   23.74
  -5  -3  -7  551.68   23.09
  -5  -3  -6 1413.36   48.59
  -5  -3  -6 1390.49   47.58
  -5  -3  -6 1475.48   48.89
  -5  -3  -5  716.27   27.72
  -5  -3  -5  755.46   27.50
  -5  -3  -4   76.62    6.09
  -5  -3  -4   76.25    5.99
  -5  -3  -3  214.24   10.85
  -5  -3  -3  223.11   11.20
  -5  -3  -2  805.96   28.95
  -5  -3  -2  873.94   30.03
  -5  -3  -1 2246.69   69.38
  -5  -3  -1 2264.30   70.87
  -5  -3   0 2619.23   80.61
  -5  -3   0 2724.63   82.58
  -5  -3   1   24.41    2.61
  -5  -3   1   29.20    3.55
  -5  -3   2  368.00   13.81
  -5  -3   2  398.10   16.35
  -5  -3   3  365.45   13.14
  -5  -3   3  369.43   14.76
  -5  -3   3  349.24   15.54
  -5  -3   4  844.20   27.84
  -5  -3   4  755.68   28.74
  -5  -3   5 1230.39   42.75
  -5  -3   5 1231.64   40.04
  -5  -3   5 1244.05   41.83
  -5  -3   6  393.31   18.27
  -5  -3   6  402.98   15.81
  -5  -3   6  408.53   17.42
  -5  -3   7   10.31    2.69
  -5  -3   7   13.29    2.57
  -5  -3   7   12.81    2.07
  -5  -3   8   67.28    6.74
  -5  -3   8   62.96    4.78
  -5  -3   8   67.45    5.93
  -5  -3   9  273.09   15.25
  -5  -3   9  252.59   11.64
  -5  -3   9  242.78   13.13
  -5  -3  10  402.92   20.23
  -5  -3  10  379.57   15.74
  -5  -3  10  379.71   17.70
  -5  -3  11  225.13   14.91
  -5  -3  11  231.35   11.11
  -5  -3  11  229.77   12.92
  -5  -3  12  101.80    6.79
  -5  -3  12  103.66   10.03
  -5  -3  13    4.21    2.88
  -5  -3  14   42.97    7.06
  -5  -2 -16   55.23    8.19
  -5  -2 -15   76.79    9.27
  -5  -2 -14  134.11   12.02
  -5  -2 -13  282.45   17.86
  -5  -2 -12   32.44    5.45
  -5  -2 -11  150.90   11.61
  -5  -2 -10  148.11   11.13
  -5  -2  -9  622.18   26.76
  -5  -2  -8  106.36    8.55
  -5  -2  -7  204.18   12.11
  -5  -2  -6   12.70    2.70
  -5  -2  -5  101.80    7.48
  -5  -2  -4  827.09   30.15
  -5  -2  -3  222.27   11.48
  -5  -2  -3  234.68   11.47
  -5  -2  -2  197.46   10.34
  -5  -2  -2  195.21    9.97
  -5  -2  -1   28.43    3.45
  -5  -2  -1   27.07    3.21
  -5  -2   0   88.03    6.29
  -5  -2   0   95.02    5.42
  -5  -2   0   84.92    5.69
  -5  -2   1  423.31   17.45
  -5  -2   1  456.96   16.74
  -5  -2   1  423.19   16.60
  -5  -2   2  165.55    8.00
  -5  -2   2  175.34    9.00
  -5  -2   2  149.59    8.63
  -5  -2   3  264.01   10.97
  -5  -2   3  254.76   12.37
  -5  -2   3  265.69   12.26
  -5  -2   4   60.66    5.47
  -5  -2   4   57.46    4.07
  -5  -2   4   52.30    4.76
  -5  -2   5   79.70    6.44
  -5  -2   5   78.67    6.62
  -5  -2   5   81.51    4.83
  -5  -2   5   71.55    5.67
  -5  -2   6   21.62    3.04
  -5  -2   6   16.42    3.05
  -5  -2   6   23.17    2.40
  -5  -2   6   17.63    3.36
  -5  -2   7   63.84    6.18
  -5  -2   7   58.17    3.94
  -5  -2   7   51.70    5.94
  -5  -2   7   67.28    5.43
  -5  -2   8  192.61   12.00
  -5  -2   8  188.71   12.37
  -5  -2   8  191.01    8.48
  -5  -2   8  193.85   10.41
  -5  -2   9  316.47   16.78
  -5  -2   9  317.35   12.22
  -5  -2   9  318.26   17.47
  -5  -2   9  292.68   14.22
  -5  -2  10  113.64    9.47
  -5  -2  10  105.59    5.81
  -5  -2  10  120.94   10.26
  -5  -2  10  107.79    7.61
  -5  -2  11    2.28    1.65
  -5  -2  11    3.97    2.57
  -5  -2  11    1.68    0.87
  -5  -2  11    3.17    2.63
  -5  -2  12   78.09    9.05
  -5  -2  12   83.14    8.81
  -5  -2  13   64.88    8.49
  -5  -2  13   72.80    8.82
  -5  -2  14  124.80   11.70
  -5  -2  15  104.95   11.16
  -5  -1 -16  130.60   12.62
  -5  -1 -15   20.85    4.80
  -5  -1 -14    6.19    3.57
  -5  -1 -13    8.63    3.66
  -5  -1 -12  201.34   14.19
  -5  -1 -11  212.30    7.94
  -5  -1 -11  209.74   14.04
  -5  -1 -10  416.38   20.88
  -5  -1  -9  124.54    9.81
  -5  -1  -8   24.01    4.15
  -5  -1  -7  162.67   10.57
  -5  -1  -7  169.71   10.84
  -5  -1  -6 1181.59   41.79
  -5  -1  -5  669.03   26.12
  -5  -1  -4 1838.73   59.91
  -5  -1  -3  332.96   10.89
  -5  -1  -3  314.68   14.85
  -5  -1  -2   48.18    2.98
  -5  -1  -2   36.92    4.15
  -5  -1  -1 1944.14   63.70
  -5  -1  -1 2003.87   60.76
  -5  -1  -1 2067.43   63.64
  -5  -1   0 2596.91   80.26
  -5  -1   0 2514.25   78.05
  -5  -1   0 2682.53   80.09
  -5  -1   1 1310.36   44.58
  -5  -1   1 1325.49   43.59
  -5  -1   1 1454.65   44.53
  -5  -1   2  295.32   13.05
  -5  -1   2  278.67   12.39
  -5  -1   2  288.03   12.79
  -5  -1   3   43.75    4.02
  -5  -1   3   54.40    4.85
  -5  -1   3   47.30    4.29
  -5  -1   4  469.99   19.35
  -5  -1   4  450.86   17.94
  -5  -1   5  904.76   32.77
  -5  -1   5  923.80   28.88
  -5  -1   5  924.01   33.38
  -5  -1   5  863.88   31.08
  -5  -1   6  962.30   34.72
  -5  -1   6  981.15   35.60
  -5  -1   6  937.05   29.79
  -5  -1   6  971.43   32.75
  -5  -1   7  179.47   11.11
  -5  -1   7  199.64   12.16
  -5  -1   7  195.65    7.38
  -5  -1   7  189.52    9.74
  -5  -1   8    7.73    1.92
  -5  -1   8    9.48    2.70
  -5  -1   8    6.70    2.65
  -5  -1   8    4.82    0.79
  -5  -1   9    7.29    1.97
  -5  -1   9    8.97    2.75
  -5  -1   9   11.24    3.20
  -5  -1  10  103.26    9.04
  -5  -1  10  121.05   10.31
  -5  -1  10  110.49    7.17
  -5  -1  11  196.98   13.35
  -5  -1  11  203.78   14.35
  -5  -1  11  199.69   10.36
  -5  -1  12  372.26   21.49
  -5  -1  12  382.71   20.68
  -5  -1  13   16.66    4.58
  -5  -1  13   21.40    4.95
  -5  -1  14   -0.99    2.30
  -5  -1  14    5.33    3.30
  -5  -1  15   10.32    3.77
  -5  -1  15   17.24    4.28
  -5   0 -16   -0.12    3.11
  -5   0 -15   20.86    4.99
  -5   0 -14   79.79    9.25
  -5   0 -13  178.63   13.60
  -5   0 -12  126.21   11.00
  -5   0 -11    0.98    1.94
  -5   0 -10   63.70    3.45
  -5   0 -10   54.96    6.63
  -5   0  -9  139.41    5.54
  -5   0  -9  138.33   10.42
  -5   0  -8  187.96    6.62
  -5   0  -8  178.00   11.88
  -5   0  -7  235.79    8.25
  -5   0  -7  274.48    8.45
  -5   0  -7  287.89   14.88
  -5   0  -6  100.82    7.96
  -5   0  -6   94.77    3.74
  -5   0  -6   99.12    3.82
  -5   0  -6   86.77    7.59
  -5   0  -5   65.48    3.04
  -5   0  -5   62.97    5.99
  -5   0  -5   73.01    6.50
  -5   0  -4   10.92    2.50
  -5   0  -4    8.50    1.11
  -5   0  -4   10.82    2.62
  -5   0  -3  114.55    5.40
  -5   0  -3  134.39    8.43
  -5   0  -3  123.05    8.32
  -5   0  -2  158.63    7.15
  -5   0  -2  164.91    9.27
  -5   0  -2  158.74    9.52
  -5   0  -1  318.62   12.51
  -5   0  -1  322.21   14.10
  -5   0  -1  316.50   14.63
  -5   0   0  404.39   15.94
  -5   0   0  448.48   17.88
  -5   0   1    3.96    1.67
  -5   0   1    1.13    1.22
  -5   0   1    0.38    1.16
  -5   0   2    5.48    1.66
  -5   0   2    6.02    1.74
  -5   0   2    5.59    1.60
  -5   0   3  326.69   14.26
  -5   0   3  341.57   15.12
  -5   0   4  212.24   10.37
  -5   0   4  214.01   11.54
  -5   0   5  286.60   13.69
  -5   0   5  273.23   10.19
  -5   0   5  292.36   14.47
  -5   0   5  285.98   12.45
  -5   0   6  379.83   16.90
  -5   0   6  374.82   11.87
  -5   0   6  403.38   18.20
  -5   0   6  352.68   11.83
  -5   0   6  357.31   14.92
  -5   0   7   -0.06    1.12
  -5   0   7    0.91    1.48
  -5   0   7    3.44    2.13
  -5   0   8   43.42    5.11
  -5   0   8   37.23    5.29
  -5   0   8   32.30    3.38
  -5   0   9  136.83    9.96
  -5   0   9  147.43   11.12
  -5   0   9  142.62    7.70
  -5   0  10  115.88    9.53
  -5   0  10  126.07   10.63
  -5   0  10  131.50    7.27
  -5   0  11  109.02   10.10
  -5   0  11   91.57    8.74
  -5   0  12   57.05    7.65
  -5   0  12   55.84    7.14
  -5   0  13    0.01    2.45
  -5   0  13    4.32    3.24
  -5   0  14   15.35    4.78
  -5   0  14    5.70    3.57
  -5   0  15   60.27    8.15
  -5   1 -16   29.39    5.87
  -5   1 -15   56.03    7.95
  -5   1 -14   42.43    6.96
  -5   1 -13   22.53    4.96
  -5   1 -12    1.17    3.01
  -5   1 -11   94.28    9.32
  -5   1 -10   64.27    4.27
  -5   1 -10   73.87    7.80
  -5   1  -9   54.87    3.78
  -5   1  -9   55.73    6.64
  -5   1  -8  186.75    8.02
  -5   1  -8  170.87   11.92
  -5   1  -7   14.14    3.26
  -5   1  -6    9.27    1.41
  -5   1  -6   14.93    3.40
  -5   1  -5  104.62    5.43
  -5   1  -5  116.28    8.56
  -5   1  -5  108.52    8.43
  -5   1  -4  233.64    9.66
  -5   1  -4  231.12   12.71
  -5   1  -4  240.48   13.24
  -5   1  -3  307.80   12.15
  -5   1  -3  342.00   15.36
  -5   1  -3  271.15   14.67
  -5   1  -2  214.40    9.74
  -5   1  -2  229.40   11.81
  -5   1  -2  226.89   12.25
  -5   1  -1    9.83    2.17
  -5   1  -1   11.25    1.96
  -5   1  -1   12.88    2.43
  -5   1  -1    9.56    2.44
  -5   1   0   82.00    6.40
  -5   1   0   82.90    5.63
  -5   1   0   74.22    5.69
  -5   1   0   85.98    6.72
  -5   1   1  535.30   21.94
  -5   1   1  561.95   20.48
  -5   1   1  522.93   20.62
  -5   1   1  546.08   21.96
  -5   1   2  600.21   23.87
  -5   1   2  584.50   21.25
  -5   1   2  592.99   22.80
  -5   1   2  582.50   23.33
  -5   1   3  119.04    7.44
  -5   1   3  123.66    8.61
  -5   1   3  118.72    7.99
  -5   1   3  104.91    6.07
  -5   1   4   29.65    3.40
  -5   1   4   31.73    4.34
  -5   1   4   29.48    4.01
  -5   1   4   35.58    2.85
  -5   1   5   92.02    6.01
  -5   1   5   85.23    7.51
  -5   1   5   93.68    6.80
  -5   1   5   81.06    7.22
  -5   1   5   92.38    4.48
  -5   1   6  221.87   11.97
  -5   1   6  225.88   13.20
  -5   1   6  234.39   10.62
  -5   1   7  369.50   17.14
  -5   1   7  405.29   19.24
  -5   1   7  360.92   14.74
  -5   1   8  113.22    8.55
  -5   1   8  121.33    9.90
  -5   1   8  122.73    6.68
  -5   1   9  153.55   10.45
  -5   1   9  154.92   11.69
  -5   1   9  150.90    7.49
  -5   1  10    9.79    1.57
  -5   1  10    6.60    2.38
  -5   1  10   13.02    3.52
  -5   1  11   54.46    6.62
  -5   1  11   50.54    6.98
  -5   1  12  169.42   12.39
  -5   1  12  160.56   13.37
  -5   1  13   98.22    9.77
  -5   1  13  119.15   11.58
  -5   1  14  107.85   10.55
  -5   1  14  110.66   11.59
  -5   1  15   22.10    4.95
  -5   2 -15    2.01    3.23
  -5   2 -14   -0.49    3.14
  -5   2 -13   60.59    8.06
  -5   2 -12  249.27   16.69
  -5   2 -11  296.75   18.08
  -5   2 -10    2.22    2.24
  -5   2  -9    0.95    2.41
  -5   2  -9   -0.56    1.04
  -5   2  -8  190.40   12.93
  -5   2  -7  249.73   14.86
  -5   2  -6  376.16   18.97
  -5   2  -5    7.59    2.42
  -5   2  -5    2.83    1.09
  -5   2  -4    8.38    2.00
  -5   2  -4    3.69    1.95
  -5   2  -4    7.82    1.65
  -5   2  -4    9.63    2.59
  -5   2  -3   56.49    5.05
  -5   2  -3   68.90    6.31
  -5   2  -3   58.06    4.64
  -5   2  -3   61.20    6.21
  -5   2  -2   84.79    6.44
  -5   2  -2   79.30    6.67
  -5   2  -2   81.95    5.74
  -5   2  -2   75.09    6.83
  -5   2  -1  128.62    8.70
  -5   2  -1  155.14    9.98
  -5   2  -1  143.66    8.32
  -5   2  -1  154.78    9.28
  -5   2   0    0.91    1.38
  -5   2   0   -0.17    1.48
  -5   2   0    0.12    1.01
  -5   2   0    1.04    1.27
  -5   2   1  183.80   10.78
  -5   2   1  152.25   10.14
  -5   2   1  174.56    9.37
  -5   2   1  164.24    9.57
  -5   2   2    1.54    1.28
  -5   2   2    3.28    1.75
  -5   2   2    1.97    1.27
  -5   2   3    2.82    1.66
  -5   2   3    0.70    1.11
  -5   2   3    2.55    1.14
  -5   2   4   -0.01    1.31
  -5   2   4    0.71    0.94
  -5   2   4   -0.02    1.21
  -5   2   4    1.62    0.84
  -5   2   5  109.87    6.84
  -5   2   5  108.45    8.47
  -5   2   5  101.59    5.19
  -5   2   5  104.56    7.18
  -5   2   6  244.57   11.42
  -5   2   6  253.34   12.76
  -5   2   6  261.73    8.79
  -5   2   6  245.42   14.44
  -5   2   7  113.78    8.03
  -5   2   7  108.19    9.21
  -5   2   7  109.42    6.35
  -5   2   8   37.97    4.68
  -5   2   8   37.96    5.57
  -5   2   8   45.24    3.58
  -5   2   9    2.84    0.99
  -5   2   9    2.69    2.28
  -5   2   9    0.36    1.48
  -5   2  10   72.99    9.93
  -5   2  10   83.94    7.72
  -5   2  11  362.16   20.85
  -5   2  11  341.83   18.27
  -5   2  12  129.71   12.17
  -5   2  12  151.10   11.47
  -5   2  13   73.99    9.20
  -5   2  13   73.58    8.33
  -5   2  14    0.76    2.59
  -5   2  14    4.31    3.19
  -5   2  15   45.98    7.16
  -5   3 -14  113.08   11.58
  -5   3 -13  122.05   11.75
  -5   3 -12   96.89   10.21
  -5   3 -11    1.72    3.24
  -5   3 -10   36.75    6.18
  -5   3  -9  139.45   11.55
  -5   3  -8  513.51   24.71
  -5   3  -7  381.70   19.96
  -5   3  -6  214.37   10.77
  -5   3  -6  250.14   14.76
  -5   3  -5   63.15    5.34
  -5   3  -5   51.97    6.24
  -5   3  -4   33.80    4.08
  -5   3  -4   30.59    3.62
  -5   3  -4   32.19    4.76
  -5   3  -3  707.20   28.00
  -5   3  -3  762.13   27.71
  -5   3  -3  803.76   31.02
  -5   3  -2 1139.52   42.39
  -5   3  -2 1327.96   42.42
  -5   3  -2 1144.82   43.25
  -5   3  -2 1352.40   45.43
  -5   3  -1  487.46   21.68
  -5   3  -1  541.07   22.21
  -5   3  -1  531.30   21.32
  -5   3  -1  514.74   23.05
  -5   3   0   33.37    4.53
  -5   3   0   42.31    4.70
  -5   3   0   34.40    4.26
  -5   3   0   25.62    4.27
  -5   3   1  158.91   10.59
  -5   3   1  161.92   10.05
  -5   3   1  151.39    9.30
  -5   3   2  777.98   29.66
  -5   3   2  719.93   28.06
  -5   3   2  667.65   25.94
  -5   3   3  561.34   21.34
  -5   3   3  574.45   24.08
  -5   3   4  615.45   22.91
  -5   3   4  617.31   25.74
  -5   3   4  596.06   21.78
  -5   3   5   16.00    2.73
  -5   3   5   23.63    3.32
  -5   3   5   11.83    2.92
  -5   3   5   15.17    2.03
  -5   3   6    6.50    1.75
  -5   3   6    6.31    2.02
  -5   3   6    5.61    2.30
  -5   3   6    5.74    2.10
  -5   3   7  328.32   15.26
  -5   3   7  326.73   17.94
  -5   3   7  314.27   13.28
  -5   3   8  246.62   13.03
  -5   3   8  238.65   15.44
  -5   3   8  238.11   10.27
  -5   3   9   91.11    9.33
  -5   3   9   96.92    7.82
  -5   3  10   74.10    8.80
  -5   3  10   84.03    7.58
  -5   3  11    7.70    3.72
  -5   3  11    7.42    2.64
  -5   3  12   31.41    6.09
  -5   3  12   23.02    4.63
  -5   3  13   40.39    7.23
  -5   3  13   35.83    5.84
  -5   3  14   80.79    8.95
  -5   3  15   53.82    7.66
  -5   4 -13    6.05    3.53
  -5   4 -12   91.58   10.18
  -5   4 -11  131.21   11.90
  -5   4 -10   46.50    6.93
  -5   4  -9    9.47    4.00
  -5   4  -8   11.07    3.95
  -5   4  -7   16.32    4.10
  -5   4  -6  122.58    8.14
  -5   4  -6  122.33   10.34
  -5   4  -5  301.28   14.54
  -5   4  -5  287.39   16.78
  -5   4  -4    2.27    1.71
  -5   4  -4    2.49    1.48
  -5   4  -4    2.52    2.06
  -5   4  -3   25.57    3.85
  -5   4  -3   26.26    3.88
  -5   4  -3   27.12    4.56
  -5   4  -2    4.57    2.44
  -5   4  -2    0.56    1.53
  -5   4  -2    1.69    1.58
  -5   4  -1   31.11    4.69
  -5   4  -1   30.40    4.98
  -5   4  -1   29.69    4.21
  -5   4   0   79.23    7.03
  -5   4   0   90.33    7.48
  -5   4   1  345.80   16.51
  -5   4   1  356.23   17.50
  -5   4   2  156.13    9.56
  -5   4   2  150.24   10.53
  -5   4   3  106.44    7.32
  -5   4   3  107.86    8.89
  -5   4   4    5.37    1.61
  -5   4   4    5.42    2.29
  -5   4   4    6.36    1.91
  -5   4   5  179.54    9.87
  -5   4   5  194.33   13.09
  -5   4   5  225.34   10.07
  -5   4   6   29.21    3.63
  -5   4   6   32.17    3.71
  -5   4   6   30.60    5.09
  -5   4   6   24.62    2.60
  -5   4   7  539.29   20.44
  -5   4   7  551.94   26.17
  -5   4   7  547.85   21.75
  -5   4   8  103.66   10.13
  -5   4   8  125.46    8.37
  -5   4   9   26.47    5.01
  -5   4   9   23.44    3.70
  -5   4  10    1.13    2.74
  -5   4  10    3.84    2.19
  -5   4  11  102.50   10.84
  -5   4  11  103.25    8.58
  -5   4  12   83.35   10.03
  -5   4  12  100.73    8.84
  -5   4  13  113.12   10.08
  -5   5 -12   63.33    8.91
  -5   5 -11   44.51    7.20
  -5   5 -10   20.03    4.88
  -5   5  -9   45.49    7.00
  -5   5  -8  138.05   11.95
  -5   5  -7  118.03   10.78
  -5   5  -6  164.94   12.75
  -5   5  -5   63.52    6.49
  -5   5  -5   57.92    7.48
  -5   5  -5   68.04    6.54
  -5   5  -4   10.25    3.05
  -5   5  -4   14.29    3.87
  -5   5  -4   16.57    3.34
  -5   5  -3   30.66    5.37
  -5   5  -3   34.79    4.81
  -5   5  -2  364.97   19.40
  -5   5  -2  314.07   16.76
  -5   5  -1  269.38   15.08
  -5   5   0  229.68   13.84
  -5   5   1   -1.06    1.53
  -5   5   2   -1.02    2.22
  -5   5   2   -0.52    1.32
  -5   5   3  109.84    9.50
  -5   5   3  103.71    7.77
  -5   5   3  105.19    6.31
  -5   5   4  483.42   23.46
  -5   5   4  479.97   19.93
  -5   5   4  470.52   18.00
  -5   5   5  423.70   21.83
  -5   5   5  400.40   17.11
  -5   5   5  430.31   16.71
  -5   5   6   32.82    5.67
  -5   5   6   29.59    3.42
  -5   5   7   41.76    6.76
  -5   5   7   49.66    4.70
  -5   5   8   73.19    8.67
  -5   5   8   68.76    5.89
  -5   5   9  152.65   12.97
  -5   5   9  118.28    8.33
  -5   5  10  278.02   18.93
  -5   5  11  150.27   13.85
  -5   6 -10   29.05    5.84
  -5   6  -9  101.16   10.72
  -5   6  -8   24.34    5.23
  -5   6  -7   13.50    4.45
  -5   6  -6    9.84    3.88
  -5   6  -5   80.95    7.97
  -5   6  -5   83.47    9.57
  -5   6  -4   48.21    6.04
  -5   6  -4   51.84    7.54
  -5   6  -3   16.59    3.44
  -5   6  -2   31.06    5.13
  -5   6  -1    2.43    2.13
  -5   6   0    4.51    2.19
  -5   6   1   68.78    7.63
  -5   6   2    6.36    3.05
  -5   6   3   40.79    6.26
  -5   6   4   48.52    6.78
  -5   6   5    1.79    2.81
  -5   6   6    3.90    1.59
  -5   6   6    2.22    2.74
  -5   6   7   72.81    8.95
  -5   6   8   63.59    8.39
  -5   6   9   54.65    7.85
  -5   7  -7   36.31    6.36
  -5   7  -6  186.82   13.57
  -5   7  -5  197.15   14.03
  -5   7  -5  217.69   16.30
  -5   7  -4  102.72    9.74
  -5   7  -4   96.67   10.41
  -5   7  -3   15.76    4.14
  -5   7  -2   28.59    5.31
  -5   7  -1  161.91   12.64
  -5   7   0  308.51   18.71
  -5   7   1  226.12   15.83
  -5   7   1  248.24   15.50
  -5   7   2   56.21    6.92
  -5   7   2   54.69    7.64
  -5   7   3    7.12    2.69
  -5   7   3   -0.03    2.85
  -5   7   4  119.94   11.61
  -5   7   4  118.80    9.41
  -5   7   5  267.38   18.21
  -5   7   6  133.04   12.36
  -5   7   7  117.74   11.92
  -5   8  -5    3.07    3.23
  -5   8  -4   16.01    3.85
  -5   8  -3   30.78    5.49
  -5   8  -2   83.39    9.65
  -5   8  -2   65.65    8.37
  -5   8  -1   79.52    9.21
  -5   8  -1   87.51    9.75
  -5   8   0   23.24    5.49
  -5   8   0    9.92    3.89
  -5   8   1   -5.33    3.39
  -5   8   1    3.79    3.59
  -5   8   2   20.28    4.79
  -5   8   2   24.69    5.54
  -5   8   3  106.24   11.13
  -5   8   3   98.84    9.35
  -5   9   0  122.74   12.19
  -5   9   1  106.86   11.25
  -4 -13  -8   19.94    5.64
  -4 -13  -7   17.57    4.46
  -4 -13  -6   33.44    6.42
  -4 -13  -5   -6.89    3.71
  -4 -12 -10   49.64    7.49
  -4 -12  -9   56.90    7.96
  -4 -12  -8   44.59    6.88
  -4 -12  -7    0.29    2.66
  -4 -12  -6   12.93    4.08
  -4 -12  -5  142.94   12.40
  -4 -12  -4   90.49    9.86
  -4 -12  -3   70.73    8.86
  -4 -12  -2    8.01    3.24
  -4 -12  -1   11.89    3.36
  -4 -12   0   98.98   10.54
  -4 -12   1  143.38   12.93
  -4 -12   2   92.08   10.39
  -4 -11 -11   36.78    6.39
  -4 -11 -10    4.53    3.23
  -4 -11  -9   12.25    3.81
  -4 -11  -8   21.76    4.82
  -4 -11  -7   83.73    8.93
  -4 -11  -6   24.08    4.92
  -4 -11  -5   42.91    6.53
  -4 -11  -4   -2.52    2.84
  -4 -11  -3   19.25    4.65
  -4 -11  -2   34.42    5.75
  -4 -11  -1  151.64   12.38
  -4 -11   0   41.99    6.72
  -4 -11   1   45.07    6.83
  -4 -11   2    9.68    4.23
  -4 -11   3   13.66    4.39
  -4 -11   4   36.43    6.36
  -4 -11   5  108.23   11.38
  -4 -11   6   45.58    7.40
  -4 -10 -12   21.16    4.70
  -4 -10 -11    7.81    3.23
  -4 -10 -10  120.79   10.27
  -4 -10  -9  168.73   12.23
  -4 -10  -8  229.25   14.61
  -4 -10  -7   15.33    3.67
  -4 -10  -6    2.99    1.80
  -4 -10  -6   -0.75    2.15
  -4 -10  -5  228.34   14.79
  -4 -10  -5  246.52   13.34
  -4 -10  -4  127.80   10.58
  -4 -10  -4  138.26    8.96
  -4 -10  -3  124.26    6.38
  -4 -10  -3  140.21   11.16
  -4 -10  -3  154.84    8.71
  -4 -10  -2   73.50    4.62
  -4 -10  -2   79.57    8.29
  -4 -10  -2   71.17    5.27
  -4 -10  -1    8.74    1.74
  -4 -10  -1   13.03    3.69
  -4 -10  -1   11.21    1.77
  -4 -10   0  114.57    8.29
  -4 -10   0   97.08    6.08
  -4 -10   0  109.10    9.88
  -4 -10   1  118.78    8.08
  -4 -10   1  112.49    6.90
  -4 -10   1  106.80    9.94
  -4 -10   2  170.82    9.75
  -4 -10   2  172.24    9.48
  -4 -10   2  198.70   13.97
  -4 -10   3   61.43    5.44
  -4 -10   3   54.01    7.22
  -4 -10   4   85.04    6.85
  -4 -10   4   78.80    9.00
  -4 -10   5    3.68    4.67
  -4 -10   5    3.65    3.05
  -4 -10   6   51.41    5.86
  -4 -10   6   74.95    8.86
  -4 -10   7   87.46    8.03
  -4 -10   7   82.64    9.43
  -4 -10   8  153.71   11.45
  -4 -10   8  144.09   12.97
  -4 -10   9   50.60    6.99
  -4 -10   9   66.01    8.75
  -4  -9 -13   31.57    5.25
  -4  -9 -12   29.27    4.97
  -4  -9 -11  102.66    9.22
  -4  -9 -10    9.02    2.61
  -4  -9  -9    2.98    2.14
  -4  -9  -8    1.65    1.50
  -4  -9  -8    0.85    1.93
  -4  -9  -8    3.06    2.35
  -4  -9  -7   15.86    3.29
  -4  -9  -7   11.74    3.07
  -4  -9  -6   11.73    2.97
  -4  -9  -6   11.14    2.35
  -4  -9  -6   13.25    3.11
  -4  -9  -5  400.08   20.03
  -4  -9  -5  394.17   18.20
  -4  -9  -5  447.33   19.35
  -4  -9  -4   15.81    3.30
  -4  -9  -4   14.84    2.73
  -4  -9  -4   14.78    3.54
  -4  -9  -3   16.38    3.32
  -4  -9  -3   16.05    2.67
  -4  -9  -3   10.90    2.95
  -4  -9  -2    3.90    1.32
  -4  -9  -2    3.04    1.53
  -4  -9  -2    6.80    1.67
  -4  -9  -1   74.19    5.10
  -4  -9  -1   86.76    8.16
  -4  -9  -1   78.68    4.85
  -4  -9   0  145.61    7.87
  -4  -9   0  135.13   10.71
  -4  -9   0  152.16    6.31
  -4  -9   1  291.05   13.20
  -4  -9   1  272.04   12.41
  -4  -9   1  251.68   15.55
  -4  -9   2   34.84    3.89
  -4  -9   2   32.86    3.60
  -4  -9   2   31.35    5.03
  -4  -9   3    1.66    1.27
  -4  -9   3    3.67    1.38
  -4  -9   3    7.68    3.14
  -4  -9   4    8.22    1.55
  -4  -9   4   10.98    2.82
  -4  -9   4    5.79    2.60
  -4  -9   5  155.37   10.21
  -4  -9   5  174.51   12.85
  -4  -9   6   37.81    4.85
  -4  -9   6   24.03    4.90
  -4  -9   7   74.67    7.34
  -4  -9   7   83.45    9.07
  -4  -9   8   29.59    4.93
  -4  -9   8   30.15    5.87
  -4  -9   9    5.23    2.46
  -4  -9   9    5.38    2.76
  -4  -9  10   20.92    4.89
  -4  -9  10   22.51    5.16
  -4  -9  11   40.64    6.56
  -4  -9  11   46.22    7.21
  -4  -8 -14  101.58    9.06
  -4  -8 -13   62.82    8.53
  -4  -8 -13   52.33    6.65
  -4  -8 -12   94.74   10.48
  -4  -8 -12  130.42   10.10
  -4  -8 -11   34.83    5.10
  -4  -8 -10    3.80    1.99
  -4  -8 -10   11.88    3.16
  -4  -8  -9  124.19    8.45
  -4  -8  -9  129.29    9.70
  -4  -8  -9  121.53    7.65
  -4  -8  -8  234.51   14.04
  -4  -8  -8  266.52   12.60
  -4  -8  -7  176.99   11.51
  -4  -8  -7  173.31    9.92
  -4  -8  -6   63.47    6.53
  -4  -8  -6   69.05    6.34
  -4  -8  -6   70.67    6.01
  -4  -8  -5   64.29    5.71
  -4  -8  -5   46.82    5.54
  -4  -8  -5   48.45    5.04
  -4  -8  -4   60.15    6.30
  -4  -8  -4   78.92    6.01
  -4  -8  -4   68.88    6.18
  -4  -8  -3   78.92    7.19
  -4  -8  -3   72.38    6.49
  -4  -8  -3   75.33    5.50
  -4  -8  -2  424.75   19.60
  -4  -8  -2  420.58   18.90
  -4  -8  -2  389.14   15.61
  -4  -8  -1  267.93   14.49
  -4  -8  -1  279.63   14.28
  -4  -8  -1  237.91   10.21
  -4  -8   0   91.28    5.89
  -4  -8   0   80.67    7.51
  -4  -8   0   94.51    7.84
  -4  -8   0   81.09    4.21
  -4  -8   1    9.44    1.97
  -4  -8   1    5.51    1.99
  -4  -8   2   39.39    3.43
  -4  -8   2   34.67    3.78
  -4  -8   2   33.43    4.77
  -4  -8   3  127.05    6.46
  -4  -8   3  133.83    8.32
  -4  -8   3  120.87    9.56
  -4  -8   4  170.47    9.85
  -4  -8   4  146.28    6.62
  -4  -8   4  157.06   11.27
  -4  -8   5  379.10   17.42
  -4  -8   5  364.37   11.93
  -4  -8   5  405.66   19.82
  -4  -8   6    7.56    2.51
  -4  -8   6    2.74    2.09
  -4  -8   7    1.85    1.86
  -4  -8   7    1.76    2.00
  -4  -8   8   49.66    6.19
  -4  -8   8   44.67    6.54
  -4  -8   9   41.84    6.02
  -4  -8   9   29.65    5.21
  -4  -8  10  106.86   10.11
  -4  -8  10  117.86   10.87
  -4  -8  11   58.30    7.69
  -4  -8  11   43.19    6.81
  -4  -8  12    0.95    2.67
  -4  -8  12    2.63    2.62
  -4  -8  13    1.95    2.31
  -4  -8  14   18.20    5.31
  -4  -7 -14   13.24    4.70
  -4  -7 -13    2.21    2.93
  -4  -7 -12   30.37    5.79
  -4  -7 -11  116.92   10.89
  -4  -7 -10   27.60    3.96
  -4  -7 -10   32.45    5.66
  -4  -7 -10   25.21    3.21
  -4  -7 -10   28.80    4.45
  -4  -7  -9    9.53    2.03
  -4  -7  -9   11.18    3.04
  -4  -7  -8    0.78    1.14
  -4  -7  -8    0.80    1.41
  -4  -7  -7   -0.09    1.32
  -4  -7  -7    0.37    1.46
  -4  -7  -7    1.59    1.58
  -4  -7  -6   75.18    6.86
  -4  -7  -6   78.30    6.59
  -4  -7  -6   78.29    5.96
  -4  -7  -5   57.92    5.95
  -4  -7  -5   63.32    5.64
  -4  -7  -5   72.88    5.81
  -4  -7  -4    2.58    1.68
  -4  -7  -4    2.50    1.79
  -4  -7  -4    0.80    1.23
  -4  -7  -3   14.86    2.79
  -4  -7  -3   20.37    3.50
  -4  -7  -3   15.32    2.38
  -4  -7  -2   68.28    6.28
  -4  -7  -2   63.46    4.54
  -4  -7  -2   70.95    6.06
  -4  -7  -1    3.89    1.57
  -4  -7  -1    5.78    1.18
  -4  -7  -1    3.14    1.98
  -4  -7   0    0.92    1.32
  -4  -7   0    0.11    0.50
  -4  -7   0   -1.40    1.72
  -4  -7   1  293.71   13.25
  -4  -7   1  305.87   15.56
  -4  -7   1  336.84   15.91
  -4  -7   2  122.32    7.51
  -4  -7   2  114.26    5.95
  -4  -7   2  130.47    9.23
  -4  -7   2  147.52    9.69
  -4  -7   3   55.93    3.33
  -4  -7   3   55.75    5.07
  -4  -7   3   52.68    5.81
  -4  -7   3   65.54    6.45
  -4  -7   4   23.74    3.39
  -4  -7   4   21.68    1.47
  -4  -7   4   25.04    3.97
  -4  -7   5   84.91    6.94
  -4  -7   5   88.99    7.78
  -4  -7   6  142.97    9.80
  -4  -7   6  145.73   10.40
  -4  -7   7  128.73    9.49
  -4  -7   7  133.62   10.16
  -4  -7   8  158.69   11.15
  -4  -7   8  147.63   11.05
  -4  -7   9   26.91    4.79
  -4  -7   9   31.52    4.98
  -4  -7  10   91.53    9.00
  -4  -7  10   84.06    8.53
  -4  -7  11   21.28    4.87
  -4  -7  11   13.01    3.52
  -4  -7  12   31.98    6.00
  -4  -7  12   30.76    5.35
  -4  -7  13   92.50    9.76
  -4  -7  13   88.99    9.95
  -4  -7  14   92.79    9.97
  -4  -6 -15   15.34    4.93
  -4  -6 -14    3.83    3.08
  -4  -6 -13   30.64    6.06
  -4  -6 -12  299.79   18.48
  -4  -6 -11  327.62   18.54
  -4  -6 -11  291.02   13.17
  -4  -6 -10  200.77   13.62
  -4  -6 -10  203.76   10.21
  -4  -6  -9    2.96    2.16
  -4  -6  -9    6.86    1.95
  -4  -6  -8   64.30    6.79
  -4  -6  -8   66.02    5.23
  -4  -6  -7  648.55   25.67
  -4  -6  -7  621.91   23.33
  -4  -6  -6  707.98   26.07
  -4  -6  -6  745.54   27.75
  -4  -6  -5  373.77   17.04
  -4  -6  -5  346.98   15.22
  -4  -6  -5  365.79   15.94
  -4  -6  -4    0.88    1.10
  -4  -6  -4    0.27    1.11
  -4  -6  -4   -1.05    1.16
  -4  -6  -3   72.44    6.18
  -4  -6  -3   69.95    5.10
  -4  -6  -3   77.52    5.85
  -4  -6  -2  542.71   23.09
  -4  -6  -2  596.85   20.95
  -4  -6  -2  642.12   23.24
  -4  -6  -1  430.17   18.27
  -4  -6  -1  431.88   17.78
  -4  -6  -1  395.60   14.78
  -4  -6   0  395.98   17.20
  -4  -6   0  364.66   16.61
  -4  -6   1  350.61   16.14
  -4  -6   1  351.29   16.13
  -4  -6   2    1.84    0.74
  -4  -6   2    2.11    1.27
  -4  -6   2    0.62    1.25
  -4  -6   2    1.81    1.45
  -4  -6   3  129.85    7.94
  -4  -6   3  121.46    4.78
  -4  -6   3  129.16    4.86
  -4  -6   3  121.78    8.51
  -4  -6   3  139.57    9.23
  -4  -6   4  439.92   18.84
  -4  -6   4  460.02   19.88
  -4  -6   4  461.02   20.27
  -4  -6   5  421.50   18.91
  -4  -6   5  446.15   19.62
  -4  -6   5  457.92   20.38
  -4  -6   6  460.77   20.01
  -4  -6   6  429.76   19.82
  -4  -6   7  102.50    8.24
  -4  -6   7  100.29    8.18
  -4  -6   8    9.45    2.85
  -4  -6   8   16.49    3.44
  -4  -6   9   63.84    6.99
  -4  -6   9   71.43    7.04
  -4  -6  10  309.56   17.67
  -4  -6  10  302.33   16.61
  -4  -6  11  421.69   21.94
  -4  -6  11  386.26   19.90
  -4  -6  12   57.57    7.66
  -4  -6  12   50.48    6.41
  -4  -6  13    2.55    2.48
  -4  -6  13   -0.06    2.28
  -4  -6  14    3.06    2.80
  -4  -5 -16   22.00    5.52
  -4  -5 -15   34.76    6.43
  -4  -5 -14   92.64   10.05
  -4  -5 -13  118.39   11.07
  -4  -5 -12   13.30    4.23
  -4  -5 -12   12.30    2.52
  -4  -5 -11    0.61    1.84
  -4  -5 -11    2.45    1.30
  -4  -5 -10   54.26    6.52
  -4  -5 -10   42.96    4.29
  -4  -5  -9  101.97    8.74
  -4  -5  -9  102.67    6.70
  -4  -5  -8  118.59    9.06
  -4  -5  -8  131.35    9.24
  -4  -5  -8  115.43    7.21
  -4  -5  -7  330.79   16.49
  -4  -5  -7  324.47   14.27
  -4  -5  -7  374.62   16.76
  -4  -5  -6  118.47    8.25
  -4  -5  -6  110.27    7.70
  -4  -5  -6  105.35    6.73
  -4  -5  -5   56.83    5.34
  -4  -5  -5   61.13    5.23
  -4  -5  -5   49.44    4.41
  -4  -5  -4   54.88    4.98
  -4  -5  -4   47.52    4.46
  -4  -5  -4   57.53    4.74
  -4  -5  -3  452.81   17.74
  -4  -5  -3  412.90   16.74
  -4  -5  -3  462.69   17.80
  -4  -5  -2  279.95   11.81
  -4  -5  -2  230.85   12.32
  -4  -5  -2  284.56   12.46
  -4  -5  -2  251.33   10.90
  -4  -5  -1 1197.50   39.48
  -4  -5  -1 1296.87   41.99
  -4  -5  -1 1203.40   38.77
  -4  -5  -1 1307.88   41.58
  -4  -5   0   38.16    3.10
  -4  -5   0   40.05    4.17
  -4  -5   0   43.57    4.32
  -4  -5   1   11.70    1.50
  -4  -5   1    9.41    2.24
  -4  -5   1    9.85    2.21
  -4  -5   2  280.99    9.89
  -4  -5   2  276.82   13.29
  -4  -5   3  533.30   20.62
  -4  -5   3  537.57   21.04
  -4  -5   3  505.73   21.13
  -4  -5   4  238.83   11.81
  -4  -5   4  231.04   11.84
  -4  -5   4  218.21   12.07
  -4  -5   5  201.87   11.34
  -4  -5   5  217.05   11.42
  -4  -5   5  228.03   12.25
  -4  -5   6   25.34    3.79
  -4  -5   6   35.19    4.57
  -4  -5   6   30.24    3.96
  -4  -5   7  101.82    7.98
  -4  -5   7   97.58    7.42
  -4  -5   7   98.99    7.87
  -4  -5   8  132.72    9.67
  -4  -5   8  123.49    8.73
  -4  -5   9   83.06    7.86
  -4  -5   9   89.94    7.33
  -4  -5  10  101.05    9.19
  -4  -5  10   98.53    7.99
  -4  -5  11   63.42    7.54
  -4  -5  11   59.52    6.28
  -4  -5  12   18.10    4.65
  -4  -5  12   13.88    3.42
  -4  -5  13   60.58    6.69
  -4  -5  13   59.55    7.78
  -4  -5  14   86.03    8.13
  -4  -5  14   65.54    8.63
  -4  -4 -16  103.82   11.16
  -4  -4 -15   23.56    5.34
  -4  -4 -14   13.40    4.56
  -4  -4 -13    0.67    2.21
  -4  -4 -13    2.19    2.34
  -4  -4 -12  234.73   15.29
  -4  -4 -12  234.92   12.14
  -4  -4 -11   81.38    8.20
  -4  -4 -11   85.50    6.56
  -4  -4 -10  487.88   22.62
  -4  -4 -10  471.47   19.27
  -4  -4  -9  188.69   12.16
  -4  -4  -9  201.78   10.37
  -4  -4  -8   49.07    5.50
  -4  -4  -8   56.39    4.87
  -4  -4  -8   63.42    6.04
  -4  -4  -7  198.15   12.13
  -4  -4  -7  233.65   11.22
  -4  -4  -6  373.28   17.00
  -4  -4  -6  368.06   15.53
  -4  -4  -6  404.17   17.10
  -4  -4  -5  752.72   28.10
  -4  -4  -5  744.67   26.85
  -4  -4  -5  805.17   28.10
  -4  -4  -4 1050.92   37.92
  -4  -4  -4 1207.27   37.90
  -4  -4  -4 1145.84   38.06
  -4  -4  -3  320.04   13.83
  -4  -4  -3  338.77   13.93
  -4  -4  -3  328.48   13.68
  -4  -4  -2   20.91    2.63
  -4  -4  -2   19.36    2.74
  -4  -4  -2   22.19    2.54
  -4  -4  -1   30.82    2.94
  -4  -4  -1   41.50    3.97
  -4  -4   0 1460.27   45.47
  -4  -4   0 1478.14   47.70
  -4  -4   0 1506.22   47.89
  -4  -4   1 1494.98   46.89
  -4  -4   1 1575.40   50.23
  -4  -4   2  826.88   25.73
  -4  -4   2  879.38   29.49
  -4  -4   2  872.98   29.96
  -4  -4   3  566.94   21.56
  -4  -4   3  557.83   21.05
  -4  -4   3  571.65   21.82
  -4  -4   4   53.66    4.82
  -4  -4   4   41.94    4.07
  -4  -4   4   48.08    4.65
  -4  -4   5  244.86   12.48
  -4  -4   5  231.89   11.48
  -4  -4   5  272.81   12.91
  -4  -4   6 1720.08   54.68
  -4  -4   6 1613.29   52.58
  -4  -4   6 1569.68   53.77
  -4  -4   7  411.97   18.75
  -4  -4   7  389.82   17.00
  -4  -4   7  433.80   18.57
  -4  -4   8  183.50   11.57
  -4  -4   8  177.86   10.08
  -4  -4   8  191.05   11.14
  -4  -4   9    7.89    2.64
  -4  -4   9    7.75    2.01
  -4  -4   9    7.81    2.19
  -4  -4  10  125.62    8.48
  -4  -4  10  131.97   10.34
  -4  -4  11  139.87    9.27
  -4  -4  11  144.25   11.39
  -4  -4  12  353.87   16.99
  -4  -4  12  371.07   20.43
  -4  -4  13   66.07    6.38
  -4  -4  13   74.53    8.76
  -4  -4  14   30.17    5.73
  -4  -3 -16   -0.40    2.82
  -4  -3 -15    8.05    3.78
  -4  -3 -14   56.85    7.70
  -4  -3 -13  223.34   15.11
  -4  -3 -12  296.71   17.52
  -4  -3 -11    1.16    2.26
  -4  -3 -10    2.00    2.01
  -4  -3  -9   55.06    6.17
  -4  -3  -9   60.39    5.35
  -4  -3  -8  260.65   14.05
  -4  -3  -8  246.24   12.34
  -4  -3  -8  285.61   14.42
  -4  -3  -7  469.92   20.60
  -4  -3  -7  487.40   19.31
  -4  -3  -7  511.70   20.99
  -4  -3  -6  391.77   17.67
  -4  -3  -6  410.57   16.72
  -4  -3  -6  434.36   18.15
  -4  -3  -5    0.43    1.26
  -4  -3  -5    0.70    1.07
  -4  -3  -5   -0.15    1.08
  -4  -3  -4   27.45    3.33
  -4  -3  -4   31.60    3.38
  -4  -3  -4   31.27    3.50
  -4  -3  -3  275.25   12.38
  -4  -3  -3  279.18   12.39
  -4  -3  -3  309.78   12.73
  -4  -3  -2   37.58    3.46
  -4  -3  -2   36.02    3.54
  -4  -3  -1  766.14   25.99
  -4  -3  -1  800.20   27.15
  -4  -3   0  841.51   26.76
  -4  -3   0  795.06   28.13
  -4  -3   1  611.97   19.82
  -4  -3   1  583.32   21.86
  -4  -3   2   79.58    3.89
  -4  -3   2   80.17    5.19
  -4  -3   2   72.44    5.33
  -4  -3   3   44.84    2.46
  -4  -3   3   39.77    3.58
  -4  -3   3   43.00    3.99
  -4  -3   4  797.90   28.08
  -4  -3   4  782.93   26.44
  -4  -3   4  744.62   27.30
  -4  -3   5  865.36   31.21
  -4  -3   5  880.63   29.39
  -4  -3   5  856.90   30.49
  -4  -3   6  855.46   31.66
  -4  -3   6  875.31   29.36
  -4  -3   6  860.12   30.74
  -4  -3   7   22.97    3.63
  -4  -3   7   13.47    2.64
  -4  -3   7   16.50    2.41
  -4  -3   8    7.38    2.27
  -4  -3   8    5.16    1.86
  -4  -3   8    9.06    1.95
  -4  -3   9  456.87   21.11
  -4  -3   9  438.78   17.85
  -4  -3   9  465.35   19.50
  -4  -3  10  198.14   12.96
  -4  -3  10  209.81   10.60
  -4  -3  10  202.51   11.63
  -4  -3  11  386.34   20.50
  -4  -3  11  410.24   17.10
  -4  -3  12   65.10    7.64
  -4  -3  12   62.03    5.49
  -4  -3  13    2.29    3.14
  -4  -3  13    2.27    1.65
  -4  -3  14   29.09    5.82
  -4  -3  15  106.34   11.11
  -4  -2 -17    0.44    3.08
  -4  -2 -16   80.33    9.60
  -4  -2 -15   62.26    8.24
  -4  -2 -14  109.87   10.53
  -4  -2 -13   71.09    8.07
  -4  -2 -12   37.46    5.66
  -4  -2 -12   48.84    4.14
  -4  -2 -11   97.18    8.89
  -4  -2 -11  100.21    5.90
  -4  -2 -10  301.87   16.59
  -4  -2 -10  337.19   16.54
  -4  -2 -10  316.58   12.31
  -4  -2  -9  510.13   22.58
  -4  -2  -8  278.11   14.74
  -4  -2  -8  298.44   15.10
  -4  -2  -7   66.16    6.07
  -4  -2  -7   67.04    6.12
  -4  -2  -6   47.77    4.95
  -4  -2  -6   49.39    5.06
  -4  -2  -5  777.48   29.50
  -4  -2  -5  883.61   30.16
  -4  -2  -4 1013.11   34.70
  -4  -2  -3  757.02   26.84
  -4  -2  -3  772.92   26.90
  -4  -2  -2   59.73    4.48
  -4  -2  -2   60.96    4.68
  -4  -2  -1  248.74   10.49
  -4  -2  -1  245.73   11.05
  -4  -2   0  507.09   17.58
  -4  -2   0  474.77   18.27
  -4  -2   1  664.21   21.79
  -4  -2   1  619.73   22.26
  -4  -2   1  663.07   23.01
  -4  -2   2  854.32   27.25
  -4  -2   2  895.63   29.20
  -4  -2   2  809.88   28.71
  -4  -2   3  859.18   28.43
  -4  -2   3  867.58   30.23
  -4  -2   3  900.68   29.87
  -4  -2   4   75.75    5.72
  -4  -2   4   72.97    5.74
  -4  -2   4   73.50    4.45
  -4  -2   4   78.49    5.32
  -4  -2   5  215.79   11.34
  -4  -2   5  232.99    9.51
  -4  -2   5  244.48   12.15
  -4  -2   5  218.87   10.48
  -4  -2   6  879.79   32.08
  -4  -2   6  919.53   32.94
  -4  -2   6  887.20   28.78
  -4  -2   6  869.99   30.47
  -4  -2   7  544.22   22.36
  -4  -2   7  543.62   22.96
  -4  -2   7  533.81   18.87
  -4  -2   7  537.41   20.54
  -4  -2   8  680.41   26.90
  -4  -2   8  664.46   22.74
  -4  -2   8  670.58   27.50
  -4  -2   8  646.14   24.49
  -4  -2   9  182.73   11.56
  -4  -2   9  168.10    8.16
  -4  -2   9  183.55   12.00
  -4  -2   9  172.84    9.61
  -4  -2  10   30.60    3.85
  -4  -2  10   32.98    4.92
  -4  -2  10   31.79    3.14
  -4  -2  10   33.04    5.22
  -4  -2  11    8.02    2.85
  -4  -2  11   14.00    3.59
  -4  -2  11    7.77    1.81
  -4  -2  12  678.76   30.26
  -4  -2  13  125.41   11.30
  -4  -2  14   70.06    8.66
  -4  -2  15   11.67    3.78
  -4  -1 -17   33.42    6.73
  -4  -1 -16  113.67   11.61
  -4  -1 -16  127.07   10.55
  -4  -1 -15    0.15    3.23
  -4  -1 -14   20.09    4.84
  -4  -1 -13  125.23   10.78
  -4  -1 -12  230.23   14.82
  -4  -1 -12  233.55   10.68
  -4  -1 -11  158.57   11.51
  -4  -1 -11  172.70    8.21
  -4  -1 -10   98.79    8.51
  -4  -1 -10   99.67    5.41
  -4  -1  -9   18.18    3.50
  -4  -1  -9   14.64    2.93
  -4  -1  -9   19.17    1.90
  -4  -1  -8   46.96    5.35
  -4  -1  -8   58.10    3.11
  -4  -1  -8   50.90    5.42
  -4  -1  -8   64.76    6.12
  -4  -1  -7  356.90   16.88
  -4  -1  -7  364.14   11.66
  -4  -1  -7  381.74   17.05
  -4  -1  -7  395.37   17.55
  -4  -1  -6 1412.96   47.62
  -4  -1  -5  344.36   15.44
  -4  -1  -4   47.86    4.53
  -4  -1  -3    5.51    1.65
  -4  -1  -2  404.69   13.00
  -4  -1  -2  384.66   15.79
  -4  -1  -1 1581.50   50.24
  -4  -1  -1 1545.83   47.65
  -4  -1  -1 1656.10   50.22
  -4  -1   0 1594.50   49.52
  -4  -1   0 1549.83   47.82
  -4  -1   0 1542.11   49.00
  -4  -1   1    1.33    1.06
  -4  -1   1    0.86    1.11
  -4  -1   2  112.69    6.51
  -4  -1   2  112.86    6.10
  -4  -1   2  128.49    6.90
  -4  -1   3   37.39    3.75
  -4  -1   3   37.67    3.37
  -4  -1   4  421.37   16.92
  -4  -1   4  408.43   14.24
  -4  -1   4  414.68   17.23
  -4  -1   4  417.32   15.90
  -4  -1   5  339.28   14.99
  -4  -1   5  350.90   15.56
  -4  -1   5  339.46   11.89
  -4  -1   5  335.92   13.63
  -4  -1   6  325.11   14.79
  -4  -1   6  321.87   11.20
  -4  -1   6  312.13   15.17
  -4  -1   6  313.94   13.04
  -4  -1   7   21.74    2.69
  -4  -1   7   15.79    2.93
  -4  -1   7   21.03    3.63
  -4  -1   7   14.38    1.51
  -4  -1   8    9.88    1.91
  -4  -1   8   10.79    2.71
  -4  -1   8    6.17    1.86
  -4  -1   8    9.34    1.25
  -4  -1   9  112.71    8.66
  -4  -1   9  108.28    4.97
  -4  -1   9  109.50    9.11
  -4  -1   9  111.59    6.81
  -4  -1  10   31.80    3.46
  -4  -1  10   23.00    4.35
  -4  -1  10   32.09    4.72
  -4  -1  11   58.23    7.17
  -4  -1  11   61.93    6.92
  -4  -1  12  533.11   26.47
  -4  -1  12  574.54   26.25
  -4  -1  13   12.33    3.74
  -4  -1  13   22.51    5.00
  -4  -1  14   -1.23    3.33
  -4  -1  14    2.92    3.05
  -4  -1  15   26.21    5.85
  -4  -1  15   29.64    5.54
  -4   0 -17   -2.38    3.85
  -4   0 -16   -0.09    3.01
  -4   0 -16    6.00    3.30
  -4   0 -15   76.34    9.08
  -4   0 -14  140.69   11.96
  -4   0 -13  142.47   11.60
  -4   0 -12  263.85   11.73
  -4   0 -12  253.65   15.70
  -4   0 -11    0.83    0.93
  -4   0 -11    2.03    1.71
  -4   0 -10   24.93    2.58
  -4   0 -10   29.37    4.56
  -4   0  -9  279.66   10.94
  -4   0  -9  291.63   15.40
  -4   0  -8  558.79   23.22
  -4   0  -8  535.34   17.95
  -4   0  -8  515.78   22.73
  -4   0  -7  840.18   26.18
  -4   0  -7  854.24   31.82
  -4   0  -7  818.51   31.39
  -4   0  -6  690.64   22.05
  -4   0  -6  723.48   27.33
  -4   0  -5    7.84    2.10
  -4   0  -5    7.53    2.29
  -4   0  -4  495.70   15.75
  -4   0  -4  501.55   20.06
  -4   0  -4  519.03   20.28
  -4   0  -3 1036.48   34.00
  -4   0  -3  960.98   29.82
  -4   0  -3  978.89   33.92
  -4   0  -2 2012.58   60.94
  -4   0  -2 2135.08   64.70
  -4   0  -1  947.31   30.30
  -4   0  -1  981.81   32.86
  -4   0   0  573.12   20.29
  -4   0   0  631.11   22.03
  -4   0   1  139.49    7.47
  -4   0   1  136.41    7.09
  -4   0   1  131.44    7.39
  -4   0   2  856.97   29.97
  -4   0   2  946.40   30.74
  -4   0   2  905.84   30.56
  -4   0   3 1871.73   58.97
  -4   0   3 1950.70   60.35
  -4   0   4 1235.81   40.63
  -4   0   4 1172.91   38.31
  -4   0   5  473.93   18.68
  -4   0   5  472.08   19.48
  -4   0   5  458.28   14.62
  -4   0   5  462.93   17.03
  -4   0   6  108.10    7.33
  -4   0   6  106.18    7.83
  -4   0   6  107.38    5.99
  -4   0   7  129.12    8.36
  -4   0   7  128.85    9.14
  -4   0   7  112.35    6.23
  -4   0   8  934.72   34.85
  -4   0   8  998.73   36.64
  -4   0   8  951.14   31.39
  -4   0   9  517.74   22.18
  -4   0   9  497.42   23.04
  -4   0   9  498.02   18.24
  -4   0  10  144.64   10.20
  -4   0  10  131.94   10.51
  -4   0  10  135.95    7.10
  -4   0  11   22.27    4.16
  -4   0  11   26.55    4.96
  -4   0  12   38.14    5.72
  -4   0  12   33.15    5.81
  -4   0  13  162.96   12.53
  -4   0  13  161.13   13.19
  -4   0  14   59.62    8.03
  -4   0  14   56.77    7.98
  -4   0  15   66.50    8.38
  -4   0  15   64.70    8.78
  -4   1 -16   93.27   10.13
  -4   1 -16  101.58   10.41
  -4   1 -15   50.25    7.21
  -4   1 -15   52.73    7.34
  -4   1 -14    7.81    3.63
  -4   1 -13   -2.20    3.06
  -4   1 -12   55.72    6.92
  -4   1 -11  358.70   14.48
  -4   1 -11  303.03   17.55
  -4   1 -10  147.62    7.73
  -4   1 -10  128.95   10.17
  -4   1  -9   46.34    3.78
  -4   1  -9   47.08    5.65
  -4   1  -8   15.83    2.08
  -4   1  -8   15.84    3.22
  -4   1  -7  135.82    9.58
  -4   1  -7  131.17    6.52
  -4   1  -7  139.36    9.50
  -4   1  -6  339.02   16.30
  -4   1  -6  325.53   15.97
  -4   1  -5  741.69   27.60
  -4   1  -5  675.65   27.02
  -4   1  -4  110.55    7.65
  -4   1  -4  109.25    7.72
  -4   1  -3  181.49    8.24
  -4   1  -3  130.12    8.64
  -4   1  -3  165.80    7.29
  -4   1  -3  172.44    9.78
  -4   1  -2   36.71    3.43
  -4   1  -2   32.70    3.66
  -4   1  -2   33.48    2.87
  -4   1  -2   36.92    4.06
  -4   1  -1  571.17   20.47
  -4   1  -1  567.27   19.18
  -4   1  -1  568.69   21.27
  -4   1   0  249.20   11.87
  -4   1   0  256.53   11.15
  -4   1   0  266.94   11.56
  -4   1   0  288.02   12.76
  -4   1   1  423.55   16.30
  -4   1   1  356.42   14.72
  -4   1   1  346.23   14.12
  -4   1   1  375.86   15.68
  -4   1   2  182.35    9.95
  -4   1   2  176.37    8.05
  -4   1   2  180.26    9.30
  -4   1   2  183.67    9.72
  -4   1   3   51.10    4.08
  -4   1   3   45.54    4.75
  -4   1   3   47.44    3.28
  -4   1   3   47.25    4.48
  -4   1   4   41.01    3.49
  -4   1   4   36.48    4.35
  -4   1   4   39.00    3.79
  -4   1   4   42.23    4.43
  -4   1   4   38.42    2.58
  -4   1   5   44.40    4.90
  -4   1   5   39.74    4.04
  -4   1   5   47.72    2.30
  -4   1   5   46.49    4.96
  -4   1   5   44.57    3.56
  -4   1   6  698.24   27.51
  -4   1   6  690.08   25.76
  -4   1   6  756.65   27.96
  -4   1   6  670.38   23.40
  -4   1   7  153.66   10.06
  -4   1   7  151.63    9.20
  -4   1   7  153.75   10.23
  -4   1   7  139.69    6.87
  -4   1   8  246.89   13.11
  -4   1   8  248.27   14.36
  -4   1   8  259.67   10.22
  -4   1   9  102.73    8.03
  -4   1   9  102.84    8.92
  -4   1   9  104.19    5.33
  -4   1  10    0.68    0.63
  -4   1  10    0.67    1.85
  -4   1  10    0.26    1.48
  -4   1  11  112.52   10.29
  -4   1  11  128.50    9.88
  -4   1  12  243.25   16.52
  -4   1  12  283.78   16.18
  -4   1  13  120.57   11.37
  -4   1  13  112.33   10.15
  -4   1  14   55.58    7.90
  -4   1  14   58.80    7.81
  -4   1  15   -0.84    2.10
  -4   1  15    3.13    3.17
  -4   2 -16   43.72    7.57
  -4   2 -16   52.86    7.95
  -4   2 -15    0.71    2.94
  -4   2 -15    2.84    2.90
  -4   2 -14   35.57    6.43
  -4   2 -13   81.13    8.88
  -4   2 -12  228.68   15.11
  -4   2 -11  198.30   13.48
  -4   2 -10   12.86    2.53
  -4   2 -10   17.56    3.83
  -4   2  -9   14.19    2.44
  -4   2  -9   12.63    3.21
  -4   2  -8  105.58    6.46
  -4   2  -8   80.72    7.74
  -4   2  -7  565.13   24.30
  -4   2  -6  550.71   24.09
  -4   2  -6  591.58   24.34
  -4   2  -5  128.51    7.00
  -4   2  -5  165.76   10.27
  -4   2  -5  169.91   10.32
  -4   2  -4    2.82    1.66
  -4   2  -4    8.35    1.72
  -4   2  -4   12.24    2.73
  -4   2  -3   75.39    5.41
  -4   2  -3   97.24    7.10
  -4   2  -3   87.05    6.93
  -4   2  -2  862.43   29.60
  -4   2  -2  834.33   28.72
  -4   2  -2  891.76   30.84
  -4   2  -2  798.79   30.74
  -4   2  -1 1055.64   36.37
  -4   2  -1 1072.18   35.59
  -4   2  -1 1162.33   37.11
  -4   2  -1  991.21   37.05
  -4   2   0  374.55   15.95
  -4   2   0  367.27   15.22
  -4   2   0  343.52   14.86
  -4   2   0  370.36   16.37
  -4   2   1  175.94    9.85
  -4   2   1  169.12    9.15
  -4   2   1  160.09    8.47
  -4   2   1  169.74    9.83
  -4   2   2   52.17    5.07
  -4   2   2   39.01    4.20
  -4   2   2   42.49    3.59
  -4   2   3  336.06   15.70
  -4   2   3  309.80   12.47
  -4   2   3  340.35   15.10
  -4   2   4  449.27   16.81
  -4   2   4  472.37   19.89
  -4   2   4  405.01   15.07
  -4   2   4  418.06   18.64
  -4   2   4  467.61   17.31
  -4   2   5  907.46   31.21
  -4   2   5  880.66   32.21
  -4   2   5  955.79   35.01
  -4   2   5  972.86   29.24
  -4   2   6  412.10   19.03
  -4   2   6  413.45   16.78
  -4   2   6  378.62   18.33
  -4   2   6  381.25   14.61
  -4   2   7    4.59    1.06
  -4   2   7    6.82    2.02
  -4   2   7    2.22    1.86
  -4   2   8  117.48    7.98
  -4   2   8  105.94    8.95
  -4   2   8   98.53    4.94
  -4   2   9  168.17   10.54
  -4   2   9  185.69   12.63
  -4   2   9  169.88    6.60
  -4   2  10  548.68   24.26
  -4   2  10  623.39   27.41
  -4   2  11  149.84   10.71
  -4   2  11  153.43   12.21
  -4   2  12   94.79    8.72
  -4   2  12   83.44    9.33
  -4   2  13    4.95    2.69
  -4   2  13   10.35    3.91
  -4   2  14   16.74    4.55
  -4   2  14   20.94    5.13
  -4   2  15  131.84   11.72
  -4   2  15  136.45   13.11
  -4   3 -15  148.25   13.06
  -4   3 -14  103.92   10.58
  -4   3 -14  113.20   11.31
  -4   3 -13   29.63    5.85
  -4   3 -13   38.91    6.70
  -4   3 -12    0.76    2.65
  -4   3 -11   33.93    5.62
  -4   3 -10  125.36    8.32
  -4   3 -10  114.78    9.99
  -4   3  -9   78.88    6.42
  -4   3  -9   70.54    7.45
  -4   3  -8  318.69   17.26
  -4   3  -7   38.32    3.27
  -4   3  -7   42.62    5.11
  -4   3  -7   41.93    5.41
  -4   3  -6   39.20    3.54
  -4   3  -6   32.52    4.73
  -4   3  -5  315.31   13.31
  -4   3  -5  292.46   15.63
  -4   3  -4  133.31    7.70
  -4   3  -4  117.71    8.86
  -4   3  -4  129.38    9.20
  -4   3  -3  396.15   16.64
  -4   3  -3  396.64   18.28
  -4   3  -3  400.59   18.50
  -4   3  -2  233.39   12.26
  -4   3  -2  278.20   12.64
  -4   3  -2  237.24   13.43
  -4   3  -1   66.06    5.65
  -4   3  -1   59.74    5.17
  -4   3  -1   60.68    5.52
  -4   3  -1   64.23    6.05
  -4   3   0  222.15   11.82
  -4   3   0  216.05   11.25
  -4   3   0  222.97   11.32
  -4   3   0  205.69   12.05
  -4   3   1  368.29   16.52
  -4   3   1  329.76   15.43
  -4   3   1  336.27   14.80
  -4   3   2  273.25   13.78
  -4   3   2  234.30   11.26
  -4   3   2  248.88   12.85
  -4   3   3   32.62    4.37
  -4   3   3   41.87    4.74
  -4   3   3   32.05    3.29
  -4   3   4   27.90    4.16
  -4   3   4   25.25    2.90
  -4   3   4   27.23    3.89
  -4   3   4   25.99    2.61
  -4   3   5    6.60    1.65
  -4   3   5    6.36    1.63
  -4   3   5    4.02    1.68
  -4   3   5    3.08    0.94
  -4   3   6   27.73    2.87
  -4   3   6   28.86    3.40
  -4   3   6   26.75    4.21
  -4   3   6   28.61    2.00
  -4   3   7   94.55    6.71
  -4   3   7   87.32    8.09
  -4   3   7   95.05    5.14
  -4   3   8   17.85    1.70
  -4   3   8   15.68    2.88
  -4   3   8   17.70    3.92
  -4   3   9  111.99    8.12
  -4   3   9  104.65    9.57
  -4   3  10   59.66    6.06
  -4   3  10   57.39    7.34
  -4   3  11    2.66    2.13
  -4   3  11    1.83    2.27
  -4   3  12   -0.27    1.60
  -4   3  12    2.94    3.12
  -4   3  13   82.36    8.35
  -4   3  13   88.52    9.93
  -4   3  14   98.70    9.72
  -4   3  14  112.34   11.53
  -4   4 -14    4.16    3.61
  -4   4 -13   41.43    6.99
  -4   4 -12  162.09   13.27
  -4   4 -12  177.84   14.40
  -4   4 -11  319.02   18.76
  -4   4 -10  190.81   13.54
  -4   4  -9   32.88    5.29
  -4   4  -8   10.05    3.11
  -4   4  -7  410.00   16.26
  -4   4  -7  392.61   19.98
  -4   4  -6  294.03   13.23
  -4   4  -6  291.25   16.03
  -4   4  -6  285.68   14.59
  -4   4  -5 1274.01   42.92
  -4   4  -5 1284.39   46.31
  -4   4  -4  235.95   11.81
  -4   4  -4  200.01   12.73
  -4   4  -3    2.29    1.76
  -4   4  -3   -1.45    1.57
  -4   4  -2  105.75    7.74
  -4   4  -2   97.15    7.33
  -4   4  -2   93.25    7.81
  -4   4  -2  103.79    8.49
  -4   4  -1  817.45   31.41
  -4   4  -1  899.16   32.20
  -4   4  -1  831.66   31.11
  -4   4  -1  812.88   32.45
  -4   4   0  920.88   33.72
  -4   4   0  848.00   32.46
  -4   4   0  911.38   33.11
  -4   4   1 1019.29   36.86
  -4   4   1  990.47   36.04
  -4   4   1  952.61   34.71
  -4   4   2  135.32    9.70
  -4   4   2  133.47    8.18
  -4   4   2  130.19    9.27
  -4   4   3    1.13    0.85
  -4   4   3    2.26    1.72
  -4   4   3    1.98    1.20
  -4   4   4  405.58   19.32
  -4   4   4  403.74   15.99
  -4   4   4  393.20   15.40
  -4   4   5  878.44   30.44
  -4   4   5  952.53   36.03
  -4   4   5  966.09   31.37
  -4   4   6  705.71   24.85
  -4   4   6  712.36   29.74
  -4   4   6  740.72   23.67
  -4   4   6  661.47   25.11
  -4   4   7  186.19    8.57
  -4   4   7  184.72   12.78
  -4   4   7  203.25   10.29
  -4   4   8   10.39    1.38
  -4   4   8    9.90    1.41
  -4   4   8   12.71    3.57
  -4   4   8    9.77    2.31
  -4   4   9   68.78   10.27
  -4   4   9   70.08    6.19
  -4   4  10  454.15   24.10
  -4   4  10  461.54   20.36
  -4   4  11  329.09   20.24
  -4   4  11  341.19   17.12
  -4   4  12   99.87   10.66
  -4   4  12   90.53    8.23
  -4   4  13   12.81    4.27
  -4   4  13   14.66    3.88
  -4   5 -13   94.23   10.18
  -4   5 -12   26.22    5.91
  -4   5 -11   18.38    4.74
  -4   5 -11   20.29    4.94
  -4   5 -10   52.83    7.51
  -4   5 -10   45.67    6.75
  -4   5  -9  176.95   12.98
  -4   5  -8  281.61   16.89
  -4   5  -7   46.18    6.28
  -4   5  -6    4.38    2.00
  -4   5  -6    5.01    2.23
  -4   5  -6    3.06    2.39
  -4   5  -5    5.85    2.08
  -4   5  -5    7.48    2.77
  -4   5  -5    9.77    2.57
  -4   5  -4  185.03   11.00
  -4   5  -4  190.89   12.60
  -4   5  -4  170.59    9.94
  -4   5  -3  115.29    8.63
  -4   5  -3  118.85    9.61
  -4   5  -2  202.57   11.96
  -4   5  -2  185.37   11.49
  -4   5  -2  177.85   12.27
  -4   5  -1  159.09   10.65
  -4   5  -1  144.31   10.07
  -4   5   0    0.92    1.40
  -4   5   0   -4.95    2.01
  -4   5   1   30.80    4.55
  -4   5   1   30.38    4.08
  -4   5   2   84.67    7.82
  -4   5   2   95.09    7.22
  -4   5   3   43.08    3.27
  -4   5   3   41.20    5.44
  -4   5   3   32.63    4.09
  -4   5   4  221.11    9.46
  -4   5   4  208.17   10.97
  -4   5   4  224.78   13.88
  -4   5   5  167.07    8.09
  -4   5   5  164.50    8.87
  -4   5   5  168.29   12.03
  -4   5   6   32.14    3.23
  -4   5   6   19.05    4.10
  -4   5   6   26.14    3.00
  -4   5   7   36.60    3.47
  -4   5   7   40.78    3.97
  -4   5   7   41.62    6.03
  -4   5   7   39.92    3.57
  -4   5   8   10.90    1.60
  -4   5   8    9.75    2.24
  -4   5   8   10.54    3.92
  -4   5   9  117.97    7.94
  -4   5   9  122.52   11.14
  -4   5  10  163.04   10.12
  -4   5  10  173.04   13.79
  -4   5  11  109.60    8.35
  -4   5  11  103.77   10.84
  -4   5  12    4.71    2.82
  -4   6 -12    3.80    3.64
  -4   6 -11   64.92    8.56
  -4   6 -10   25.41    5.77
  -4   6  -9   98.71   10.12
  -4   6  -9  151.94   13.14
  -4   6  -8   39.68    6.90
  -4   6  -8   37.85    6.28
  -4   6  -7   -6.00    3.20
  -4   6  -7    3.45    2.88
  -4   6  -6   55.76    7.08
  -4   6  -5  294.40   17.52
  -4   6  -4  216.68   11.49
  -4   6  -4  217.76   14.57
  -4   6  -3   68.97    5.49
  -4   6  -2   22.82    2.95
  -4   6  -2   27.17    4.28
  -4   6  -1   90.72    5.53
  -4   6  -1   90.23    8.15
  -4   6   0  153.97   11.21
  -4   6   1  484.82   23.09
  -4   6   2   92.77    4.54
  -4   6   2   87.42    7.63
  -4   6   2   94.64    8.77
  -4   6   3   53.66    3.09
  -4   6   3   43.95    6.10
  -4   6   3   46.00    5.20
  -4   6   4   44.93    4.93
  -4   6   4   40.41    2.71
  -4   6   4   33.68    5.63
  -4   6   4   31.93    4.24
  -4   6   5   46.56    3.25
  -4   6   5   53.18    5.15
  -4   6   5   52.02    6.97
  -4   6   5   42.92    4.73
  -4   6   6  171.71    7.97
  -4   6   6  182.04   13.45
  -4   6   6  185.72    9.93
  -4   6   7  235.49   16.00
  -4   6   8  118.72   11.19
  -4   6   9    8.38    4.07
  -4   6  10    4.86    2.48
  -4   6  11   81.56    9.99
  -4   7 -10   -1.16    3.04
  -4   7  -9    5.44    2.95
  -4   7  -8   35.43    6.49
  -4   7  -7   49.73    7.55
  -4   7  -7   40.03    6.80
  -4   7  -6   22.46    5.18
  -4   7  -5   48.05    7.42
  -4   7  -4   -0.65    2.85
  -4   7  -3    0.61    2.68
  -4   7  -2   32.43    5.86
  -4   7  -2   25.18    4.79
  -4   7  -1  108.62    9.70
  -4   7  -1  104.85    9.96
  -4   7   0   33.45    5.25
  -4   7   0   42.89    6.15
  -4   7   1   41.81    5.70
  -4   7   1   38.57    5.81
  -4   7   2    3.71    2.23
  -4   7   2   -0.28    2.16
  -4   7   3    1.90    1.55
  -4   7   3    0.76    2.22
  -4   7   4  111.70   10.54
  -4   7   4  110.25    8.53
  -4   7   5   50.44    7.37
  -4   7   5   67.78    6.23
  -4   7   6   30.81    5.87
  -4   7   7   29.00    5.63
  -4   7   8    0.04    1.62
  -4   7   9    4.04    2.88
  -4   8  -5    5.62    3.76
  -4   8  -4   82.28    9.58
  -4   8  -3  107.45   10.51
  -4   8  -3  102.69   10.58
  -4   8  -2  145.91   12.28
  -4   8  -2  147.08   12.52
  -4   8  -1   73.99    9.48
  -4   8  -1   66.73    8.38
  -4   8   0   -2.18    3.14
  -4   8   0    3.55    3.17
  -4   8   1   38.06    5.87
  -4   8   1   36.19    6.35
  -4   8   2   70.21    8.69
  -4   8   2   73.59    7.95
  -4   8   3  221.78   16.47
  -4   8   3  256.51   15.01
  -4   8   4  105.91   11.06
  -4   8   4  111.73    9.09
  -4   8   5   64.20    8.75
  -4   8   6   -1.39    2.47
  -4   9  -4   11.22    3.87
  -4   9  -3   -0.81    2.33
  -4   9  -2    8.52    3.68
  -4   9  -2    5.05    3.02
  -4   9  -1   29.79    5.97
  -4   9  -1   22.96    4.99
  -4   9   0   40.16    6.63
  -4   9   0   49.56    7.57
  -4   9   1   66.31    8.54
  -4   9   1   60.29    8.30
  -4   9   2   20.98    5.18
  -4   9   2   34.44    6.54
  -3 -13  -7   25.15    6.08
  -3 -13  -6   28.40    5.87
  -3 -13  -5    2.82    3.78
  -3 -12  -9   17.46    4.86
  -3 -12  -8    5.64    3.67
  -3 -12  -7    1.95    2.68
  -3 -12  -6   16.89    4.62
  -3 -12  -5   45.52    6.87
  -3 -12  -4   45.54    7.01
  -3 -12  -3   15.48    4.10
  -3 -12  -2    2.69    2.32
  -3 -12  -1    4.34    2.82
  -3 -12   0   40.17    6.69
  -3 -12   1   80.27    9.92
  -3 -11 -10   -4.81    3.04
  -3 -11  -9   64.94    7.84
  -3 -11  -8   86.09    8.76
  -3 -11  -7  153.30   12.06
  -3 -11  -6   74.06    8.28
  -3 -11  -5   45.08    6.56
  -3 -11  -4   11.55    3.86
  -3 -11  -3   84.73    8.97
  -3 -11  -2  143.54   12.06
  -3 -11  -1  183.67   13.90
  -3 -11   0  147.62   12.62
  -3 -11   1    0.73    2.39
  -3 -11   2   15.25    4.21
  -3 -11   3  128.43   12.15
  -3 -11   4  153.34   13.48
  -3 -11   5  120.29   12.01
  -3 -10 -11   24.76    4.61
  -3 -10 -10   81.89    8.22
  -3 -10  -9   67.17    7.34
  -3 -10  -8   35.31    5.57
  -3 -10  -7    7.76    2.97
  -3 -10  -6   54.78    6.65
  -3 -10  -5  145.57   11.32
  -3 -10  -5  159.89   10.57
  -3 -10  -4  124.67   10.35
  -3 -10  -4  140.94    9.32
  -3 -10  -3   17.76    4.11
  -3 -10  -3   16.08    3.04
  -3 -10  -2    4.91    2.61
  -3 -10  -2    4.13    1.86
  -3 -10  -1    0.34    1.97
  -3 -10   0  110.38    8.40
  -3 -10   0   93.80    4.77
  -3 -10   0   97.58    9.56
  -3 -10   1   93.83    7.71
  -3 -10   1   99.43    5.66
  -3 -10   1  130.14   10.91
  -3 -10   2   38.68    3.61
  -3 -10   2   40.07    4.83
  -3 -10   2   41.97    6.53
  -3 -10   3   17.04    2.72
  -3 -10   3   17.03    4.30
  -3 -10   4   30.29    5.48
  -3 -10   5    3.69    2.81
  -3 -10   6   41.47    6.87
  -3 -10   7   97.66   10.47
  -3 -10   8   95.56   10.49
  -3  -9 -12  130.49   10.00
  -3  -9 -11  191.17   12.26
  -3  -9 -10   89.13    7.97
  -3  -9  -9   -0.90    2.46
  -3  -9  -8   13.56    3.15
  -3  -9  -7  435.01   15.82
  -3  -9  -7  421.03   20.20
  -3  -9  -7  396.12   17.69
  -3  -9  -6  213.18    9.17
  -3  -9  -6  247.60   14.10
  -3  -9  -6  261.94   13.93
  -3  -9  -6  228.45   12.20
  -3  -9  -5  621.25   20.20
  -3  -9  -5  550.78   25.81
  -3  -9  -5  665.12   25.55
  -3  -9  -5  615.48   24.81
  -3  -9  -4   43.84    5.18
  -3  -9  -4   54.82    5.30
  -3  -9  -4   43.05    5.63
  -3  -9  -3  156.19    6.26
  -3  -9  -3  168.22   11.51
  -3  -9  -3  165.40   10.63
  -3  -9  -3  163.66    9.34
  -3  -9  -2  410.49   14.55
  -3  -9  -2  447.80   21.30
  -3  -9  -1  423.06   15.48
  -3  -9  -1  500.68   22.50
  -3  -9  -1  495.56   17.42
  -3  -9   0  424.20   19.44
  -3  -9   0  487.84   16.67
  -3  -9   0  449.67   21.97
  -3  -9   0  459.03   16.34
  -3  -9   1   23.07    3.48
  -3  -9   1   35.10    3.23
  -3  -9   1   32.68    2.13
  -3  -9   1   34.87    5.30
  -3  -9   2   15.45    2.79
  -3  -9   2   16.13    2.56
  -3  -9   2   17.62    4.18
  -3  -9   3  472.30   18.68
  -3  -9   3  459.55   18.80
  -3  -9   3  467.84   23.13
  -3  -9   4  175.79   10.01
  -3  -9   4  172.78    9.28
  -3  -9   4  191.99   13.46
  -3  -9   5  354.82   16.25
  -3  -9   5  320.86   19.07
  -3  -9   6   25.93    3.92
  -3  -9   6   23.82    5.41
  -3  -9   7    3.29    2.02
  -3  -9   7   -0.91    2.70
  -3  -9   8    9.92    3.20
  -3  -9   8   12.62    3.96
  -3  -9   9   58.56    7.96
  -3  -9  10   77.13    9.34
  -3  -9  11   71.27    9.18
  -3  -8 -13   27.54    4.43
  -3  -8 -12   -0.43    1.29
  -3  -8 -11    1.29    1.43
  -3  -8 -10   46.76    4.93
  -3  -8 -10   43.87    5.38
  -3  -8  -9   20.11    3.09
  -3  -8  -9   25.54    2.93
  -3  -8  -9   24.02    3.90
  -3  -8  -8   87.05    6.07
  -3  -8  -8   74.19    7.01
  -3  -8  -8   81.99    5.82
  -3  -8  -7  115.11    6.80
  -3  -8  -7  114.44    8.71
  -3  -8  -7  120.03    7.55
  -3  -8  -6   14.67    2.72
  -3  -8  -6   14.55    3.04
  -3  -8  -6   13.53    2.97
  -3  -8  -5   29.41    3.83
  -3  -8  -5   35.95    4.67
  -3  -8  -5   39.65    4.56
  -3  -8  -4   22.25    3.56
  -3  -8  -4   18.83    3.08
  -3  -8  -4   21.48    3.76
  -3  -8  -3   35.80    4.48
  -3  -8  -3   40.68    4.03
  -3  -8  -3   32.42    4.55
  -3  -8  -2  182.03    7.87
  -3  -8  -2  186.84   11.72
  -3  -8  -2  186.85    9.20
  -3  -8  -2  199.72   11.37
  -3  -8  -1  162.32    7.53
  -3  -8  -1  183.91   11.51
  -3  -8  -1  167.49   10.63
  -3  -8  -1  181.23    8.22
  -3  -8   0   -0.05    0.63
  -3  -8   0   -1.00    1.03
  -3  -8   0    1.25    1.48
  -3  -8   0   -0.32    0.58
  -3  -8   1   21.84    3.06
  -3  -8   1   22.20    2.58
  -3  -8   1   18.43    3.68
  -3  -8   1   19.35    1.48
  -3  -8   2  122.80    7.10
  -3  -8   2  128.91    7.37
  -3  -8   2  105.36    8.91
  -3  -8   3   35.19    3.48
  -3  -8   3   31.61    3.64
  -3  -8   3   29.41    4.64
  -3  -8   4  151.71    9.11
  -3  -8   4  166.26    8.10
  -3  -8   4  137.60   10.80
  -3  -8   5  213.97    9.45
  -3  -8   5  238.30   12.29
  -3  -8   5  214.91   14.00
  -3  -8   6   -0.66    0.84
  -3  -8   6    2.13    1.54
  -3  -8   6    0.75    1.86
  -3  -8   7   89.31    7.74
  -3  -8   7   87.67    8.84
  -3  -8   8   81.76    7.74
  -3  -8   8   81.53    8.63
  -3  -8   9   66.56    7.34
  -3  -8   9   81.10    8.76
  -3  -8  10   53.07    6.91
  -3  -8  10   41.16    6.47
  -3  -8  11   12.09    3.54
  -3  -8  12   18.20    4.73
  -3  -8  13   60.59    8.45
  -3  -7 -14   13.73    4.62
  -3  -7 -14   35.47    4.99
  -3  -7 -13   11.25    3.21
  -3  -7 -12   51.63    5.70
  -3  -7 -11  535.52   23.04
  -3  -7 -11  537.64   23.10
  -3  -7 -10   99.67    7.69
  -3  -7 -10  110.51    8.31
  -3  -7 -10  107.70    5.87
  -3  -7  -9   59.66    5.44
  -3  -7  -9   56.41    4.22
  -3  -7  -9   39.71    4.88
  -3  -7  -8    1.39    1.36
  -3  -7  -8    1.89    1.00
  -3  -7  -8    1.78    1.31
  -3  -7  -7   17.72    2.56
  -3  -7  -7   26.78    4.14
  -3  -7  -7   19.22    3.41
  -3  -7  -6  599.24   23.68
  -3  -7  -6  608.88   23.79
  -3  -7  -6  527.42   21.08
  -3  -7  -5  393.41   18.11
  -3  -7  -5  426.80   17.97
  -3  -7  -5  403.90   16.82
  -3  -7  -4  274.86   13.72
  -3  -7  -4  252.44   12.24
  -3  -7  -4  255.01   12.43
  -3  -7  -3   11.78    2.42
  -3  -7  -3   12.58    2.82
  -3  -7  -3   10.59    1.93
  -3  -7  -2    7.42    2.07
  -3  -7  -2    4.26    2.19
  -3  -7  -2    7.38    1.56
  -3  -7  -1  342.76   15.79
  -3  -7  -1  302.52   11.82
  -3  -7  -1  282.70   14.32
  -3  -7   0  187.66    8.38
  -3  -7   0  171.93   10.75
  -3  -7   0  198.36   11.04
  -3  -7   0  169.68    7.15
  -3  -7   1  480.67   17.70
  -3  -7   1  505.99   21.37
  -3  -7   1  462.45   14.77
  -3  -7   1  568.81   21.83
  -3  -7   2  383.75   15.21
  -3  -7   2  431.15   16.34
  -3  -7   2  399.26   18.71
  -3  -7   2  420.31   18.94
  -3  -7   3    9.13    1.95
  -3  -7   3    9.27    1.53
  -3  -7   3   11.38    2.90
  -3  -7   3    7.00    2.50
  -3  -7   4    6.86    1.31
  -3  -7   4    4.66    1.57
  -3  -7   4    6.01    2.15
  -3  -7   5   45.00    3.11
  -3  -7   5   55.80    5.26
  -3  -7   5   65.30    6.57
  -3  -7   6  165.45    6.54
  -3  -7   6  151.47    9.94
  -3  -7   6  149.55   10.96
  -3  -7   7  295.65   15.51
  -3  -7   7  310.27   16.95
  -3  -7   8   96.41    8.20
  -3  -7   8   81.80    8.16
  -3  -7   9    2.94    2.40
  -3  -7   9   -0.21    2.19
  -3  -7  10    3.10    2.91
  -3  -7  10    2.03    2.03
  -3  -7  11   87.68    9.05
  -3  -7  11   82.89    9.00
  -3  -7  12   70.22    8.34
  -3  -7  13   47.63    6.98
  -3  -7  14   25.44    5.46
  -3  -6 -15    7.68    3.05
  -3  -6 -14   53.31    7.75
  -3  -6 -13   97.78   10.35
  -3  -6 -12   92.99    9.60
  -3  -6 -11  145.07    6.91
  -3  -6 -10   40.20    4.79
  -3  -6 -10   41.22    3.35
  -3  -6  -9   18.31    3.09
  -3  -6  -9   14.86    2.05
  -3  -6  -8  223.61   11.90
  -3  -6  -8  241.15   13.16
  -3  -6  -8  199.67    9.48
  -3  -6  -7  212.49   11.58
  -3  -6  -7  215.95    9.82
  -3  -6  -7  203.45   11.88
  -3  -6  -6  183.07   10.12
  -3  -6  -6  158.11    8.24
  -3  -6  -6  149.70    9.51
  -3  -6  -5   20.91    2.69
  -3  -6  -5   20.46    3.16
  -3  -6  -5   20.91    3.15
  -3  -6  -4   41.47    4.43
  -3  -6  -4   32.93    3.62
  -3  -6  -4   44.07    3.98
  -3  -6  -3   90.03    6.68
  -3  -6  -3   82.49    5.89
  -3  -6  -3   83.19    5.51
  -3  -6  -2  206.17   11.25
  -3  -6  -2  224.57   10.98
  -3  -6  -2  223.90    9.62
  -3  -6  -1  533.49   21.35
  -3  -6  -1  538.42   18.12
  -3  -6  -1  507.12   20.66
  -3  -6   0   56.08    5.35
  -3  -6   0   61.32    3.31
  -3  -6   0   67.09    5.61
  -3  -6   1  286.54   11.51
  -3  -6   1  245.25   13.02
  -3  -6   1  258.38   13.12
  -3  -6   2    8.28    1.33
  -3  -6   2    7.20    1.62
  -3  -6   2    7.13    2.23
  -3  -6   2    8.76    2.44
  -3  -6   3    1.97    0.79
  -3  -6   3   -0.11    0.86
  -3  -6   3    0.87    1.33
  -3  -6   3    1.82    1.56
  -3  -6   4  187.02    9.81
  -3  -6   4  167.94    6.72
  -3  -6   4  175.39   10.63
  -3  -6   4  202.27   11.41
  -3  -6   5  196.29    6.89
  -3  -6   5  178.28   10.36
  -3  -6   5  200.47   11.72
  -3  -6   5  208.32   12.21
  -3  -6   6  312.42   15.23
  -3  -6   6  321.16   16.13
  -3  -6   7   62.85    6.15
  -3  -6   7   66.76    6.60
  -3  -6   8    6.17    2.09
  -3  -6   8    5.31    2.50
  -3  -6   9   27.90    4.50
  -3  -6   9   23.72    4.14
  -3  -6  10  133.38   10.55
  -3  -6  10  125.24   10.10
  -3  -6  11  384.22   20.72
  -3  -6  11  391.62   20.16
  -3  -6  12   53.75    7.34
  -3  -6  12   51.12    6.75
  -3  -6  13    5.74    3.00
  -3  -6  13    1.13    2.36
  -3  -6  14   12.25    3.64
  -3  -6  15   24.81    5.26
  -3  -5 -16   69.39    9.10
  -3  -5 -15   76.11    9.29
  -3  -5 -14   90.50    9.90
  -3  -5 -13   89.23    9.48
  -3  -5 -12   25.44    5.11
  -3  -5 -12   24.66    2.73
  -3  -5 -11   86.25    8.39
  -3  -5 -11   72.11    4.84
  -3  -5 -10  110.38    8.26
  -3  -5 -10  111.54    9.38
  -3  -5 -10  107.53    6.13
  -3  -5  -9  371.77   16.93
  -3  -5  -9  374.86   14.52
  -3  -5  -8  294.66   14.67
  -3  -5  -8  257.66   11.24
  -3  -5  -7  416.06   15.99
  -3  -5  -7  438.32   18.85
  -3  -5  -6   19.31    2.43
  -3  -5  -6   17.38    3.05
  -3  -5  -5  125.86    7.86
  -3  -5  -5  137.49    7.18
  -3  -5  -4 1347.59   41.42
  -3  -5  -4 1277.58   40.08
  -3  -5  -3  788.10   29.01
  -3  -5  -3  826.49   28.23
  -3  -5  -3  850.01   27.93
  -3  -5  -2 1066.07   34.88
  -3  -5  -2 1036.14   32.52
  -3  -5  -2  930.81   33.39
  -3  -5  -1    1.66    1.09
  -3  -5  -1    1.64    1.22
  -3  -5  -1   -0.36    0.60
  -3  -5   0  837.26   26.72
  -3  -5   0  844.44   30.13
  -3  -5   1 1383.99   46.85
  -3  -5   1 1485.75   47.22
  -3  -5   2 1221.75   41.21
  -3  -5   2 1262.58   43.01
  -3  -5   3  235.17    8.19
  -3  -5   3  253.09   11.27
  -3  -5   3  258.71   12.29
  -3  -5   3  245.60   12.29
  -3  -5   4   18.98    2.78
  -3  -5   4   15.98    3.03
  -3  -5   4   14.39    2.70
  -3  -5   5   38.13    4.14
  -3  -5   5   33.33    4.18
  -3  -5   5   32.68    3.99
  -3  -5   6  501.26   21.45
  -3  -5   6  511.26   21.73
  -3  -5   7  534.55   22.76
  -3  -5   7  549.22   22.71
  -3  -5   7  557.50   23.36
  -3  -5   8  200.86   12.04
  -3  -5   8  186.18   11.29
  -3  -5   9   41.14    5.27
  -3  -5   9   27.74    4.21
  -3  -5  10   11.45    3.92
  -3  -5  10   10.96    2.79
  -3  -5  11   25.37    4.77
  -3  -5  11   24.72    4.10
  -3  -5  12   97.29    8.64
  -3  -5  12   89.62    9.30
  -3  -5  13  185.21   12.75
  -3  -5  13  187.66   14.18
  -3  -5  14   85.67    8.46
  -3  -5  15   42.55    6.26
  -3  -4 -16  118.33   11.76
  -3  -4 -15    1.24    3.12
  -3  -4 -14   24.95    5.31
  -3  -4 -13  147.10   10.12
  -3  -4 -13  146.51   11.97
  -3  -4 -12  471.44   22.38
  -3  -4 -12  402.46   16.54
  -3  -4 -11  227.13   14.40
  -3  -4 -11  245.60   11.13
  -3  -4 -10   33.73    4.43
  -3  -4 -10   43.36    5.63
  -3  -4 -10   29.83    3.16
  -3  -4  -9   13.14    3.16
  -3  -4  -9    9.10    2.18
  -3  -4  -9   11.60    1.98
  -3  -4  -9   13.94    3.06
  -3  -4  -8  185.98    8.90
  -3  -4  -8  189.79   11.51
  -3  -4  -8  191.86   11.21
  -3  -4  -7  255.12   13.26
  -3  -4  -7  237.33   10.58
  -3  -4  -7  258.55   12.91
  -3  -4  -6  944.48   31.82
  -3  -4  -6 1021.34   34.40
  -3  -4  -5  126.93    6.70
  -3  -4  -5  125.46    7.55
  -3  -4  -4  156.56    8.07
  -3  -4  -4  146.22    7.44
  -3  -4  -3   53.71    4.00
  -3  -4  -3   53.83    4.08
  -3  -4  -2   91.42    5.04
  -3  -4  -2   86.24    5.42
  -3  -4  -1  385.60   15.52
  -3  -4  -1  379.79   13.55
  -3  -4  -1  397.83   15.17
  -3  -4   0 1384.38   45.01
  -3  -4   0 1419.26   44.92
  -3  -4   1  372.48   13.04
  -3  -4   1  403.54   15.72
  -3  -4   1  434.71   16.04
  -3  -4   2  344.60   11.18
  -3  -4   2  363.60   14.07
  -3  -4   2  356.65   14.52
  -3  -4   2  367.16   14.90
  -3  -4   3    1.00    1.14
  -3  -4   3    2.36    1.27
  -3  -4   3    3.37    1.39
  -3  -4   4  244.45   11.48
  -3  -4   4  264.67   11.69
  -3  -4   4  222.90   11.60
  -3  -4   5  240.42   11.96
  -3  -4   5  246.57   11.72
  -3  -4   5  252.83   12.41
  -3  -4   6 1351.89   44.36
  -3  -4   6 1247.55   43.11
  -3  -4   6 1309.69   44.22
  -3  -4   7  282.06   14.09
  -3  -4   7  268.98   13.10
  -3  -4   7  273.87   13.83
  -3  -4   8   24.32    3.88
  -3  -4   8   24.19    3.81
  -3  -4   8   21.80    3.30
  -3  -4   9   21.63    4.03
  -3  -4   9   25.10    3.64
  -3  -4  10  262.21   13.62
  -3  -4  10  256.15   15.06
  -3  -4  11  436.22   19.73
  -3  -4  11  440.29   21.91
  -3  -4  12  145.21   10.01
  -3  -4  12  145.97   11.80
  -3  -4  13   49.53    5.63
  -3  -4  13   40.92    6.57
  -3  -4  14    3.98    2.26
  -3  -4  14    1.27    2.78
  -3  -3 -17    8.98    3.57
  -3  -3 -16    7.13    3.61
  -3  -3 -15  110.09   11.00
  -3  -3 -14  187.89   13.93
  -3  -3 -13  410.30   17.70
  -3  -3 -13  425.58   18.62
  -3  -3 -13  424.19   21.91
  -3  -3 -12  186.62   10.21
  -3  -3 -12  187.07   10.53
  -3  -3 -12  197.83   11.75
  -3  -3 -12  195.93   13.18
  -3  -3 -11    0.77    1.80
  -3  -3 -11   -0.05    1.37
  -3  -3 -11    2.58    2.02
  -3  -3 -10  317.42   13.51
  -3  -3 -10  307.43   15.60
  -3  -3 -10  303.68   16.16
  -3  -3 -10  282.66   12.94
  -3  -3  -9  583.61   24.74
  -3  -3  -9  580.39   21.78
  -3  -3  -9  629.23   25.19
  -3  -3  -8  294.20   14.74
  -3  -3  -8  278.31   12.31
  -3  -3  -8  297.39   14.72
  -3  -3  -7  598.85   24.25
  -3  -3  -7  606.97   22.06
  -3  -3  -7  668.09   24.63
  -3  -3  -6  257.52   11.36
  -3  -3  -6  282.52   13.21
  -3  -3  -6  285.62   13.12
  -3  -3  -5   63.19    5.21
  -3  -3  -5   62.76    4.47
  -3  -3  -5   69.04    5.25
  -3  -3  -4  499.94   18.10
  -3  -3  -4  433.39   16.61
  -3  -3  -4  451.85   17.38
  -3  -3  -3  904.71   29.96
  -3  -3  -3  983.84   30.79
  -3  -3  -3  867.31   30.05
  -3  -3  -2  859.76   27.14
  -3  -3  -2  800.93   26.65
  -3  -3  -2  787.98   26.96
  -3  -3  -1 1890.97   56.88
  -3  -3  -1 1822.77   56.59
  -3  -3  -1 1935.23   57.86
  -3  -3   0  574.05   18.91
  -3  -3   0  594.16   20.51
  -3  -3   0  582.80   20.50
  -3  -3   1  459.05   15.04
  -3  -3   1  482.54   17.26
  -3  -3   1  486.57   17.48
  -3  -3   2  188.88    6.34
  -3  -3   2  200.66    8.89
  -3  -3   2  201.39    9.18
  -3  -3   3 2137.13   66.51
  -3  -3   3 2013.53   66.30
  -3  -3   4  709.03   26.02
  -3  -3   4  775.32   25.54
  -3  -3   4  728.64   26.01
  -3  -3   5  121.58    7.69
  -3  -3   5  129.52    7.06
  -3  -3   5  144.28    8.00
  -3  -3   6   70.49    5.82
  -3  -3   6   60.34    4.72
  -3  -3   6   75.63    5.70
  -3  -3   7  157.83    9.80
  -3  -3   7  171.30    8.82
  -3  -3   7  161.75    9.31
  -3  -3   8  242.28   13.17
  -3  -3   8  240.05   11.47
  -3  -3   8  241.99   12.29
  -3  -3   9  373.46   16.03
  -3  -3   9  385.95   18.46
  -3  -3  10  184.77   10.26
  -3  -3  10  199.81   12.62
  -3  -3  11   51.71    5.06
  -3  -3  11   55.24    6.61
  -3  -3  12    0.73    1.22
  -3  -3  12    1.07    2.51
  -3  -3  13  114.61    8.30
  -3  -3  13  113.70   10.63
  -3  -3  14   88.99    9.75
  -3  -2 -17   40.36    6.89
  -3  -2 -16   49.53    7.51
  -3  -2 -15   13.47    3.19
  -3  -2 -15    9.32    3.94
  -3  -2 -14   -0.35    2.48
  -3  -2 -13    2.93    2.12
  -3  -2 -13    0.55    1.74
  -3  -2 -12   37.92    5.49
  -3  -2 -12   50.71    4.77
  -3  -2 -11   -1.50    1.59
  -3  -2 -11   -0.53    1.30
  -3  -2 -11    2.00    1.38
  -3  -2 -10  431.06   20.28
  -3  -2 -10  447.04   19.43
  -3  -2 -10  443.54   17.06
  -3  -2  -9   50.74    5.57
  -3  -2  -9   55.14    4.15
  -3  -2  -9   64.40    6.21
  -3  -2  -8    1.63    1.67
  -3  -2  -8    0.06    0.65
  -3  -2  -8    3.23    1.60
  -3  -2  -7   21.13    3.23
  -3  -2  -7   21.94    2.07
  -3  -2  -7   24.37    3.90
  -3  -2  -6  329.87   14.95
  -3  -2  -6  353.61   15.22
  -3  -2  -5  295.67   13.18
  -3  -2  -5  295.22   13.11
  -3  -2  -4  474.18   17.43
  -3  -2  -4  418.11   16.93
  -3  -2  -3  169.58    8.17
  -3  -2  -3  171.43    8.00
  -3  -2  -3  158.82    8.05
  -3  -2  -2  712.05   23.13
  -3  -2  -2  650.86   22.97
  -3  -2  -1  842.29   26.58
  -3  -2  -1  796.79   26.97
  -3  -2   0 9887.54  286.44
  -3  -2   0 9919.10  287.64
  -3  -2   1  746.31   22.99
  -3  -2   1  708.22   24.40
  -3  -2   2  286.11    9.74
  -3  -2   2  274.37   10.89
  -3  -2   2  308.19   11.80
  -3  -2   3  200.88    9.39
  -3  -2   3  199.94    9.55
  -3  -2   3  207.20    8.40
  -3  -2   3  193.82    8.91
  -3  -2   4   -0.33    0.85
  -3  -2   4   -0.24    1.19
  -3  -2   4   -0.37    1.16
  -3  -2   4   -0.18    0.73
  -3  -2   5  167.86    9.16
  -3  -2   5  176.28    9.65
  -3  -2   5  173.16    7.73
  -3  -2   5  184.28    8.75
  -3  -2   6  283.66   13.51
  -3  -2   6  292.49   11.61
  -3  -2   6  293.29   14.01
  -3  -2   6  299.21   12.65
  -3  -2   7  218.45   11.75
  -3  -2   7  226.92    9.78
  -3  -2   7  225.08   12.27
  -3  -2   7  223.71   10.66
  -3  -2   8  203.65   11.60
  -3  -2   8  196.97    9.16
  -3  -2   8  194.05   11.70
  -3  -2   8  196.99   10.05
  -3  -2   9  286.24   14.97
  -3  -2   9  278.54   15.21
  -3  -2   9  276.71   12.06
  -3  -2   9  284.40   13.11
  -3  -2  10    5.57    1.60
  -3  -2  10    8.57    2.60
  -3  -2  11    1.29    1.07
  -3  -2  11    0.63    1.73
  -3  -2  12  366.21   19.73
  -3  -2  13  290.50   17.58
  -3  -2  14   37.57    6.34
  -3  -2  15   18.30    4.47
  -3  -1 -17   52.03    7.74
  -3  -1 -16   29.41    5.99
  -3  -1 -15    2.00    1.60
  -3  -1 -15    1.05    2.69
  -3  -1 -14   16.46    4.11
  -3  -1 -13  337.28   18.51
  -3  -1 -13  324.19   15.16
  -3  -1 -12  214.16   13.77
  -3  -1 -12  227.72   11.33
  -3  -1 -11   72.20    7.29
  -3  -1 -11   75.52    5.51
  -3  -1 -11   76.83    6.99
  -3  -1 -10   62.54    6.47
  -3  -1 -10   65.33    4.79
  -3  -1 -10   70.22    6.40
  -3  -1  -9   37.78    4.72
  -3  -1  -9   32.00    4.35
  -3  -1  -9   34.88    3.13
  -3  -1  -9   38.27    4.49
  -3  -1  -9   31.82    4.32
  -3  -1  -8   18.81    3.22
  -3  -1  -8   22.83    3.40
  -3  -1  -8   16.74    1.93
  -3  -1  -8   23.62    3.71
  -3  -1  -7  566.14   21.16
  -3  -1  -7  470.76   16.55
  -3  -1  -7  503.49   20.13
  -3  -1  -7  523.04   20.75
  -3  -1  -6  450.39   17.69
  -3  -1  -6  397.00   13.43
  -3  -1  -6  435.00   17.54
  -3  -1  -5  304.71   14.78
  -3  -1  -5  382.80   11.64
  -3  -1  -5  384.22   15.68
  -3  -1  -4   40.86    3.84
  -3  -1  -4   32.03    3.44
  -3  -1  -3   21.56    2.65
  -3  -1  -2  153.25    7.44
  -3  -1  -1 1080.57   32.47
  -3  -1  -1  979.02   30.06
  -3  -1  -1  962.23   31.77
  -3  -1   0 8988.81  266.00
  -3  -1   0 9516.58  264.95
  -3  -1   0 8844.73  265.53
  -3  -1   1  497.42   17.58
  -3  -1   1  499.99   17.02
  -3  -1   1  511.65   17.35
  -3  -1   2  467.38   15.56
  -3  -1   2  480.09   16.74
  -3  -1   2  422.74   15.94
  -3  -1   3 1054.79   32.20
  -3  -1   3 1062.92   34.56
  -3  -1   3 1025.35   33.34
  -3  -1   4  943.25   32.48
  -3  -1   4  958.70   29.88
  -3  -1   4 1035.41   33.30
  -3  -1   4  981.11   31.37
  -3  -1   5 1204.06   40.01
  -3  -1   5 1227.74   40.63
  -3  -1   5 1206.29   36.78
  -3  -1   5 1211.96   38.33
  -3  -1   6  684.03   24.85
  -3  -1   6  650.35   21.20
  -3  -1   6  648.68   25.11
  -3  -1   6  672.24   22.81
  -3  -1   7   -0.24    0.66
  -3  -1   7    1.09    1.13
  -3  -1   7   -0.21    1.26
  -3  -1   7    0.02    0.57
  -3  -1   8   63.77    5.90
  -3  -1   8   64.50    6.27
  -3  -1   8   61.36    3.76
  -3  -1   8   60.99    4.51
  -3  -1   9  495.63   21.28
  -3  -1   9  465.35   21.43
  -3  -1   9  465.81   16.78
  -3  -1   9  495.56   18.35
  -3  -1  10  561.37   24.87
  -3  -1  10  562.76   24.42
  -3  -1  11   53.34    6.44
  -3  -1  11   59.50    6.64
  -3  -1  12  258.20   16.26
  -3  -1  12  302.40   16.89
  -3  -1  13   -0.37    1.93
  -3  -1  13    2.48    2.67
  -3  -1  14   57.58    7.90
  -3  -1  14   60.04    7.68
  -3  -1  15  129.61   11.79
  -3   0 -17   17.19    5.07
  -3   0 -16   44.50    7.18
  -3   0 -16   50.29    6.64
  -3   0 -15   91.23    9.75
  -3   0 -15   94.74    8.70
  -3   0 -14  104.56    9.78
  -3   0 -13   85.29    8.48
  -3   0 -13   89.94    6.93
  -3   0 -12   10.78    3.02
  -3   0 -12   10.97    2.61
  -3   0 -11   36.33    5.03
  -3   0 -11   36.88    3.89
  -3   0 -10  271.44   14.61
  -3   0 -10  280.52   14.77
  -3   0 -10  254.66   11.54
  -3   0  -9  206.17   12.14
  -3   0  -9  206.19   11.99
  -3   0  -9  204.04   11.95
  -3   0  -9  208.39    9.39
  -3   0  -9  210.84   12.32
  -3   0  -8  177.23   10.62
  -3   0  -8  182.30   10.70
  -3   0  -8  175.33    8.09
  -3   0  -8  213.80   11.49
  -3   0  -7  111.43    7.67
  -3   0  -7  107.56    5.35
  -3   0  -7  104.87    7.49
  -3   0  -7  112.23    7.79
  -3   0  -6    3.62    1.58
  -3   0  -6    1.99    0.79
  -3   0  -6    4.86    1.77
  -3   0  -6    1.15    1.30
  -3   0  -5   16.45    2.69
  -3   0  -5   11.21    1.19
  -3   0  -5   12.89    2.45
  -3   0  -4  253.10   11.94
  -3   0  -4  291.80   12.37
  -3   0  -3  281.74    9.02
  -3   0  -3  236.03   11.36
  -3   0  -3  280.27   11.96
  -3   0  -2    4.30    0.79
  -3   0  -2    4.17    1.41
  -3   0  -1 1268.26   37.73
  -3   0  -1 1197.11   39.63
  -3   0   0    0.05    0.67
  -3   0   0    1.05    0.96
  -3   0   1  135.82    6.50
  -3   0   1  136.76    6.74
  -3   0   2  227.43    9.24
  -3   0   2  214.59    9.59
  -3   0   2  219.29    9.38
  -3   0   3  425.23   15.26
  -3   0   3  442.93   16.72
  -3   0   4  424.90   16.45
  -3   0   4  435.89   13.45
  -3   0   4  451.29   17.37
  -3   0   4  408.56   15.05
  -3   0   5  133.31    7.60
  -3   0   5  142.94    8.33
  -3   0   5  135.11    6.32
  -3   0   6   91.09    6.40
  -3   0   6   95.65    6.96
  -3   0   6   93.49    4.97
  -3   0   7   42.78    4.41
  -3   0   7   37.06    4.53
  -3   0   7   34.35    2.83
  -3   0   8  144.69    9.26
  -3   0   8  151.51    9.92
  -3   0   8  145.66    6.96
  -3   0   9  466.16   20.04
  -3   0   9  446.79   20.56
  -3   0   9  431.12   16.05
  -3   0  10  178.69   11.27
  -3   0  10  157.13   11.17
  -3   0  11    1.73    1.66
  -3   0  11   -0.14    1.83
  -3   0  12   74.74    7.74
  -3   0  12   71.57    7.86
  -3   0  13  127.58   10.75
  -3   0  13  135.10   11.44
  -3   0  14  103.36    9.95
  -3   0  14   97.84   10.00
  -3   0  15  105.73   11.01
  -3   0  16   12.40    4.39
  -3   1 -17   72.60    9.13
  -3   1 -16  101.59   10.39
  -3   1 -16  113.03   10.64
  -3   1 -15   53.77    6.99
  -3   1 -15   45.42    7.12
  -3   1 -14   13.84    3.79
  -3   1 -14   17.62    4.38
  -3   1 -13   67.11    7.39
  -3   1 -12  137.53   10.48
  -3   1 -12  138.91    8.77
  -3   1 -11  674.46   27.87
  -3   1 -11  651.64   24.59
  -3   1 -10  280.52   15.33
  -3   1 -10  311.80   13.39
  -3   1  -9  135.64    9.46
  -3   1  -9  143.01    9.98
  -3   1  -9  147.14    7.79
  -3   1  -8    0.97    1.17
  -3   1  -8    0.25    1.19
  -3   1  -8    0.55    0.87
  -3   1  -8   -1.24    1.37
  -3   1  -7  453.73   18.86
  -3   1  -7  385.51   14.83
  -3   1  -7  385.40   17.43
  -3   1  -6 1707.87   56.61
  -3   1  -6 1735.34   56.20
  -3   1  -5  596.89   23.32
  -3   1  -5  610.34   23.17
  -3   1  -4 1233.62   37.70
  -3   1  -4 1207.48   40.92
  -3   1  -4 1223.16   40.91
  -3   1  -3  253.27    9.88
  -3   1  -3  251.26   11.62
  -3   1  -3  247.52   11.67
  -3   1  -2    2.44    0.85
  -3   1  -2    5.23    1.44
  -3   1  -2    1.85    0.83
  -3   1  -2    1.64    1.23
  -3   1  -1 1015.89   32.40
  -3   1  -1  956.41   32.53
  -3   1  -1 1013.15   31.60
  -3   1  -1  987.54   33.28
  -3   1   0 2701.83   87.20
  -3   1   0 2941.91   86.70
  -3   1   0 2753.29   87.65
  -3   1   1 3176.56   89.80
  -3   1   1 2890.47   87.76
  -3   1   1 2907.18   88.62
  -3   1   1 2888.08   89.27
  -3   1   2 1141.60   37.59
  -3   1   2 1188.25   37.18
  -3   1   2 1104.03   35.05
  -3   1   3  125.81    6.14
  -3   1   3  130.49    7.59
  -3   1   3  120.02    5.14
  -3   1   3  124.46    7.22
  -3   1   4  176.14    9.46
  -3   1   4  175.57    7.44
  -3   1   4  179.73    8.45
  -3   1   4  161.01    5.86
  -3   1   4  183.80    9.43
  -3   1   5 1230.37   40.73
  -3   1   5 1177.97   39.02
  -3   1   5 1256.76   40.84
  -3   1   5 1161.47   36.86
  -3   1   6 3153.13   96.30
  -3   1   6 3064.96   94.70
  -3   1   6 3134.50   96.52
  -3   1   6 3091.71   91.58
  -3   1   7  535.79   21.24
  -3   1   7  491.93   19.88
  -3   1   7  531.67   21.61
  -3   1   7  480.19   16.55
  -3   1   8  123.54    8.58
  -3   1   8  109.32    7.79
  -3   1   8  111.25    8.55
  -3   1   8  117.39    5.27
  -3   1   9   66.19    6.74
  -3   1   9   70.10    6.32
  -3   1  10  119.43    9.60
  -3   1  10  108.47    8.51
  -3   1  11  643.57   28.40
  -3   1  11  648.46   27.29
  -3   1  12  438.61   22.46
  -3   1  12  443.69   21.58
  -3   1  13  117.87   10.76
  -3   1  13  125.20   10.46
  -3   1  14   -0.05    3.28
  -3   1  14    3.15    2.66
  -3   1  15   37.36    6.87
  -3   1  16  138.31   13.05
  -3   2 -16    2.51    3.97
  -3   2 -16   -1.70    3.03
  -3   2 -15   43.68    6.83
  -3   2 -15   24.28    5.57
  -3   2 -14   73.55    8.29
  -3   2 -14   75.58    8.57
  -3   2 -13   90.07    8.87
  -3   2 -13   94.50    9.22
  -3   2 -12  115.08    8.22
  -3   2 -12  119.49    9.83
  -3   2 -11   52.57    5.21
  -3   2 -11   46.50    5.84
  -3   2 -10    3.89    1.91
  -3   2 -10    4.11    2.17
  -3   2  -9   59.12    5.10
  -3   2  -9   80.38    7.12
  -3   2  -8  348.14   14.73
  -3   2  -8  366.65   17.19
  -3   2  -8  341.47   16.77
  -3   2  -7  875.33   34.02
  -3   2  -7  922.90   33.43
  -3   2  -7  940.73   33.88
  -3   2  -6  457.12   15.06
  -3   2  -6  404.89   18.67
  -3   2  -6  441.26   19.53
  -3   2  -5    0.13    1.43
  -3   2  -5    0.88    0.72
  -3   2  -5    2.43    1.55
  -3   2  -4  145.75    7.13
  -3   2  -4  174.26    9.74
  -3   2  -4  166.72    9.42
  -3   2  -3  801.10   25.64
  -3   2  -3  692.36   27.07
  -3   2  -3  751.35   27.53
  -3   2  -2 1929.49   56.71
  -3   2  -2 1787.72   56.55
  -3   2  -1  592.77   21.45
  -3   2  -1  584.54   20.99
  -3   2  -1  581.39   21.72
  -3   2  -1  632.22   22.67
  -3   2   0  572.01   20.95
  -3   2   0  531.63   20.23
  -3   2   0  574.26   20.53
  -3   2   0  589.42   21.62
  -3   2   1  109.89    6.88
  -3   2   1  108.88    6.00
  -3   2   1  102.38    6.43
  -3   2   1  114.60    7.09
  -3   2   2  676.16   24.51
  -3   2   2  625.28   23.70
  -3   2   2  667.15   22.15
  -3   2   3  542.09   20.73
  -3   2   3  504.82   20.01
  -3   2   3  510.42   17.41
  -3   2   4 1006.24   34.40
  -3   2   4  956.87   33.72
  -3   2   4  982.12   29.68
  -3   2   4  903.90   31.39
  -3   2   5  280.66   13.51
  -3   2   5  261.80   10.09
  -3   2   5  244.30   11.22
  -3   2   5  248.11   12.80
  -3   2   5  263.09    8.52
  -3   2   6  210.41   11.69
  -3   2   6  211.09   10.18
  -3   2   6  201.77   11.56
  -3   2   6  198.48    7.88
  -3   2   7   81.91    6.89
  -3   2   7   69.89    5.58
  -3   2   7   66.74    6.40
  -3   2   7   74.01    3.54
  -3   2   8  123.35    8.97
  -3   2   8  115.10    7.83
  -3   2   8  115.72    8.98
  -3   2   8  120.07    4.47
  -3   2   9  265.13   14.39
  -3   2   9  255.17   13.29
  -3   2   9  243.02   14.45
  -3   2  10  345.76   16.86
  -3   2  10  341.44   18.29
  -3   2  11  164.85   10.99
  -3   2  11  153.62   11.82
  -3   2  12    5.24    2.17
  -3   2  12    7.01    2.93
  -3   2  13    7.77    3.32
  -3   2  13    4.25    3.19
  -3   2  14   66.56    7.81
  -3   2  14   55.99    7.92
  -3   2  15  134.32   12.56
  -3   2  16  119.37   12.17
  -3   3 -15  126.74   11.44
  -3   3 -15  101.32   10.66
  -3   3 -14   94.84    9.73
  -3   3 -14  104.40   10.57
  -3   3 -13    3.86    2.78
  -3   3 -13    0.60    2.93
  -3   3 -12   18.10    4.68
  -3   3 -12   11.92    3.65
  -3   3 -11  283.29   14.55
  -3   3 -11  288.18   16.35
  -3   3 -10  109.05    7.93
  -3   3 -10   99.48    8.65
  -3   3  -9  255.81   12.91
  -3   3  -9  251.87   14.36
  -3   3  -8   96.81    4.47
  -3   3  -8   96.69    7.98
  -3   3  -7    1.36    0.91
  -3   3  -7    2.26    1.70
  -3   3  -7    6.15    1.80
  -3   3  -6  167.82    7.80
  -3   3  -6  186.60   11.42
  -3   3  -6  166.32   10.45
  -3   3  -6  158.63    9.64
  -3   3  -5  399.82   15.80
  -3   3  -5  486.99   20.05
  -3   3  -5  421.12   18.69
  -3   3  -4  396.05   16.11
  -3   3  -4  418.34   18.37
  -3   3  -3  189.10    9.28
  -3   3  -3  188.92   10.68
  -3   3  -3  176.78   10.32
  -3   3  -2  169.28    8.83
  -3   3  -2  164.48    9.43
  -3   3  -2  143.01    9.04
  -3   3  -1  103.19    6.73
  -3   3  -1   88.06    6.52
  -3   3  -1  110.78    7.39
  -3   3   0   37.38    4.05
  -3   3   0   41.04    4.07
  -3   3   0   38.10    3.86
  -3   3   0   40.86    4.38
  -3   3   1 2311.18   68.02
  -3   3   1 2148.40   67.04
  -3   3   2  520.62   20.62
  -3   3   2  509.69   20.19
  -3   3   2  477.12   18.18
  -3   3   3  367.65   16.49
  -3   3   3  354.70   13.32
  -3   3   3  370.77   16.25
  -3   3   3  344.94   13.53
  -3   3   4   15.97    3.14
  -3   3   4   13.52    1.93
  -3   3   4   12.42    2.63
  -3   3   4   13.66    1.76
  -3   3   5  300.22   14.80
  -3   3   5  260.84   13.85
  -3   3   5  275.95   10.21
  -3   3   5  283.49   11.79
  -3   3   6  906.73   29.29
  -3   3   6  994.08   35.28
  -3   3   6  901.27   31.30
  -3   3   6  977.87   34.97
  -3   3   7  856.86   31.38
  -3   3   7  776.16   27.67
  -3   3   7  747.53   30.42
  -3   3   7  763.44   23.96
  -3   3   8  330.15   17.38
  -3   3   8  345.84   15.34
  -3   3   9    6.50    2.39
  -3   3   9    8.18    2.36
  -3   3  10   -0.43    1.68
  -3   3  10    1.89    1.30
  -3   3  11  518.90   24.79
  -3   3  11  475.02   21.76
  -3   3  12  124.48   11.25
  -3   3  12  158.16   10.90
  -3   3  13  246.13   16.62
  -3   3  13  228.17   14.42
  -3   3  14   67.67    8.75
  -3   3  15   -1.74    5.17
  -3   4 -14   28.39    5.85
  -3   4 -14   15.17    3.96
  -3   4 -13   96.99    9.66
  -3   4 -13   94.30   10.21
  -3   4 -12  202.76   13.89
  -3   4 -12  192.58   14.80
  -3   4 -11  127.79   10.45
  -3   4 -11  121.22   11.05
  -3   4 -10   10.08    3.03
  -3   4 -10   13.91    3.49
  -3   4  -9    3.35    2.00
  -3   4  -9    2.42    0.95
  -3   4  -8  162.58   11.18
  -3   4  -8  177.48    8.08
  -3   4  -7  314.21   16.79
  -3   4  -7  339.35   16.60
  -3   4  -7  365.86   14.10
  -3   4  -6  143.00   10.08
  -3   4  -6  155.90    9.62
  -3   4  -6  172.48    8.63
  -3   4  -5  145.47    9.76
  -3   4  -5  145.74    8.74
  -3   4  -5  142.86    8.08
  -3   4  -4    0.08    1.70
  -3   4  -4    2.03    1.45
  -3   4  -4    1.72    1.71
  -3   4  -3   -0.18    1.46
  -3   4  -3    1.35    1.38
  -3   4  -3    0.62    1.60
  -3   4  -2  573.37   23.84
  -3   4  -2  533.11   23.49
  -3   4  -1   46.13    4.72
  -3   4  -1   42.74    4.70
  -3   4  -1   48.77    5.19
  -3   4   0  215.91   11.67
  -3   4   0  210.65   11.33
  -3   4   0  211.31   11.17
  -3   4   1  179.13   10.71
  -3   4   1  181.41   10.51
  -3   4   1  195.36   10.09
  -3   4   2    1.71    1.06
  -3   4   2   -0.39    1.23
  -3   4   2    0.92    0.99
  -3   4   3    0.25    1.78
  -3   4   3    0.61    0.64
  -3   4   3    1.16    1.85
  -3   4   3    0.48    0.95
  -3   4   4  237.07   13.40
  -3   4   4  216.26   12.74
  -3   4   4  238.63   10.49
  -3   4   4  244.38    9.84
  -3   4   5  284.80   15.05
  -3   4   5  274.41   14.66
  -3   4   5  261.51   10.90
  -3   4   5  269.82   11.18
  -3   4   6  415.43   19.77
  -3   4   6  424.81   14.82
  -3   4   6  405.62   16.04
  -3   4   7    7.17    1.12
  -3   4   7    6.18    1.06
  -3   4   7    6.82    2.64
  -3   4   7    5.32    1.60
  -3   4   8    1.16    1.83
  -3   4   8    3.20    1.53
  -3   4   9   16.01    3.70
  -3   4   9   16.85    2.99
  -3   4  10  187.60   13.32
  -3   4  10  174.28   10.62
  -3   4  11  307.08   18.60
  -3   4  11  318.81   16.00
  -3   4  12   32.40    5.79
  -3   4  13   22.29    5.05
  -3   4  14    4.14    2.64
  -3   5 -13  116.21   10.84
  -3   5 -12   36.81    6.28
  -3   5 -12   39.34    6.73
  -3   5 -11    3.22    2.49
  -3   5 -11    4.39    2.55
  -3   5 -10   17.59    4.09
  -3   5 -10    9.98    3.84
  -3   5  -9  223.89   14.04
  -3   5  -9  226.75   15.61
  -3   5  -8  429.67   20.88
  -3   5  -7  418.82   20.66
  -3   5  -7  371.57   18.99
  -3   5  -6   31.57    3.86
  -3   5  -6   31.95    4.09
  -3   5  -6   19.89    3.90
  -3   5  -5  128.12    8.43
  -3   5  -5  133.07    8.47
  -3   5  -5  135.06    9.81
  -3   5  -4  275.29   13.09
  -3   5  -4  222.71   11.33
  -3   5  -4  227.43   13.44
  -3   5  -3  769.88   29.05
  -3   5  -3  840.27   31.19
  -3   5  -3  732.55   26.72
  -3   5  -2  888.58   32.98
  -3   5  -2  882.31   33.82
  -3   5  -2  874.82   34.03
  -3   5  -2  901.36   29.77
  -3   5  -1  195.16   11.26
  -3   5  -1  161.55   10.50
  -3   5   0   -1.53    1.58
  -3   5   0   -0.80    1.59
  -3   5   0    1.64    1.27
  -3   5   1  541.97   23.49
  -3   5   1  563.72   23.56
  -3   5   1  546.84   22.27
  -3   5   2  650.92   26.39
  -3   5   2  599.18   19.98
  -3   5   2  637.89   24.21
  -3   5   2  661.03   26.20
  -3   5   3  535.19   17.18
  -3   5   3  483.18   20.18
  -3   5   3  501.60   22.68
  -3   5   4  354.58   12.59
  -3   5   4  353.56   17.82
  -3   5   4  337.38   14.72
  -3   5   5    6.21    1.55
  -3   5   5    8.22    1.42
  -3   5   5   12.95    3.34
  -3   5   5    9.66    1.92
  -3   5   6    2.56    1.09
  -3   5   6    3.84    1.15
  -3   5   6    2.87    1.71
  -3   5   6    1.66    1.03
  -3   5   7  685.78   23.13
  -3   5   7  663.79   24.34
  -3   5   7  644.17   29.31
  -3   5   7  747.87   23.33
  -3   5   8  262.91   11.91
  -3   5   8  267.07   15.98
  -3   5   8  251.78    8.34
  -3   5   8  241.63    8.31
  -3   5   9  143.20    8.61
  -3   5   9  128.14   10.99
  -3   5  10   95.95    9.68
  -3   5  11    5.16    2.72
  -3   5  12   53.15    7.77
  -3   5  13  149.49   13.50
  -3   6 -12   89.73    9.34
  -3   6 -11  189.71   13.82
  -3   6 -10   74.63    8.29
  -3   6 -10  101.75   10.71
  -3   6  -9    9.49    3.48
  -3   6  -9   11.25    4.16
  -3   6  -8   21.90    4.36
  -3   6  -8   26.34    5.37
  -3   6  -7  107.50    9.49
  -3   6  -7  109.82   10.60
  -3   6  -6  314.56   17.51
  -3   6  -6  322.00   15.71
  -3   6  -6  332.09   15.85
  -3   6  -6  356.81   19.59
  -3   6  -5  486.78   22.88
  -3   6  -5  459.15   19.76
  -3   6  -5  523.65   21.53
  -3   6  -5  472.77   23.71
  -3   6  -4    9.58    2.61
  -3   6  -4   22.50    4.22
  -3   6  -4   16.26    2.74
  -3   6  -3   -0.69    1.75
  -3   6  -3    4.01    1.49
  -3   6  -2  278.63   11.66
  -3   6  -1  176.67    7.82
  -3   6   0  375.54   13.16
  -3   6   0  396.22   19.07
  -3   6   1   64.15    3.02
  -3   6   1   64.67    6.25
  -3   6   1   53.43    6.19
  -3   6   2   56.90    6.49
  -3   6   2   65.64    6.09
  -3   6   2   59.98    5.88
  -3   6   3    0.53    1.53
  -3   6   3    0.65    1.93
  -3   6   3    0.64    1.27
  -3   6   4   95.05    7.07
  -3   6   4  112.92    9.45
  -3   6   4   98.66    7.13
  -3   6   5  153.60    8.92
  -3   6   5  154.95   11.63
  -3   6   5  133.44    8.23
  -3   6   6   36.55    5.65
  -3   6   6   33.10    3.74
  -3   6   6   38.58    3.79
  -3   6   7  292.70   17.67
  -3   6   7  305.34   12.34
  -3   6   8   24.12    5.19
  -3   6   9   10.65    3.52
  -3   6  10   45.66    7.13
  -3   6  11   91.14   10.00
  -3   6  12  146.66   13.29
  -3   7 -10    0.77    3.59
  -3   7  -9   18.65    4.81
  -3   7  -8   83.41    8.81
  -3   7  -8   88.44    9.99
  -3   7  -7  133.38   11.21
  -3   7  -7  130.92   12.13
  -3   7  -6  134.04   12.07
  -3   7  -5   60.86    7.76
  -3   7  -4   -0.27    2.33
  -3   7  -3   71.80    8.01
  -3   7  -2  294.57   17.10
  -3   7  -1  570.41   26.01
  -3   7   0  137.39   10.80
  -3   7   0  129.64   10.11
  -3   7   1    1.47    1.61
  -3   7   1    1.16    1.98
  -3   7   2   28.05    4.30
  -3   7   2   28.43    5.07
  -3   7   3  315.11   18.07
  -3   7   3  296.01   15.61
  -3   7   3  305.09   15.44
  -3   7   4  579.25   26.98
  -3   7   4  551.14   23.46
  -3   7   4  561.70   23.23
  -3   7   5  218.40   15.13
  -3   7   5  212.06   12.12
  -3   7   5  240.54   12.22
  -3   7   6   18.28    2.84
  -3   7   6   11.59    3.78
  -3   7   7   29.07    5.56
  -3   7   8  135.43   12.10
  -3   7   9  177.29   14.39
  -3   7  10  102.31   10.92
  -3   7  11   57.10    8.64
  -3   8  -6   32.52    6.38
  -3   8  -5   39.28    6.74
  -3   8  -4   80.19    9.28
  -3   8  -3   16.48    4.45
  -3   8  -2    6.86    3.24
  -3   8  -1    3.53    2.47
  -3   8  -1    6.47    3.25
  -3   8   0   34.98    5.67
  -3   8   0   41.12    6.45
  -3   8   1   15.38    3.80
  -3   8   1   11.18    3.53
  -3   8   2   27.17    4.61
  -3   8   2   32.58    5.92
  -3   8   3   37.14    5.08
  -3   8   3   40.01    6.46
  -3   8   4   18.02    3.49
  -3   8   4   20.96    4.93
  -3   8   5    0.77    1.40
  -3   8   5    6.96    3.41
  -3   8   6    5.99    3.18
  -3   8   7   64.31    8.52
  -3   8   8   70.73    9.24
  -3   9  -4   56.84    8.25
  -3   9  -3   -0.03    2.62
  -3   9  -2   71.98    8.80
  -3   9  -1  226.36   16.39
  -3   9  -1  241.81   16.43
  -3   9   0  230.23   16.43
  -3   9   0  219.49   15.43
  -3   9   1  151.50   12.88
  -3   9   1  123.79   11.05
  -3   9   2   13.08    3.85
  -3   9   2   10.33    3.90
  -3   9   3    7.94    3.23
  -3   9   3    5.76    3.11
  -3   9   4  154.49   13.48
  -3   9   4  139.25   10.62
  -3   9   5  177.00   14.92
  -3  10  -1   -1.48    2.18
  -3  10   0    9.23    3.82
  -3  10   1   17.87    4.67
  -3  10   2   11.27    4.16
  -2 -12  -7   89.67    9.73
  -2 -12  -6  134.14   12.03
  -2 -12  -5   97.21   10.27
  -2 -12  -4   53.28    7.54
  -2 -12  -3    2.64    2.58
  -2 -12  -2   42.74    6.89
  -2 -12  -1  190.94   15.18
  -2 -12   0  171.42   14.40
  -2 -11  -9   18.44    4.17
  -2 -11  -8   55.03    7.14
  -2 -11  -7    0.09    2.70
  -2 -11  -6   15.86    4.42
  -2 -11  -5   -0.89    3.05
  -2 -11  -4    0.46    2.66
  -2 -11  -3   23.71    5.38
  -2 -11  -2   11.20    3.97
  -2 -11  -1  100.80   10.23
  -2 -11   0   67.71    8.44
  -2 -11   1    5.94    2.92
  -2 -11   2   17.89    4.48
  -2 -11   3   41.22    6.77
  -2 -11   4  104.26   11.00
  -2 -10 -10   50.11    6.03
  -2 -10  -9   95.10    8.45
  -2 -10  -8   32.04    4.92
  -2 -10  -7   10.24    2.76
  -2 -10  -6  128.77   10.25
  -2 -10  -5  242.78   14.88
  -2 -10  -4  332.77   18.68
  -2 -10  -4  380.82   17.71
  -2 -10  -3   16.51    3.38
  -2 -10  -3   14.34    3.70
  -2 -10  -2    3.37    2.52
  -2 -10  -1  114.07   10.23
  -2 -10   0  170.48   12.90
  -2 -10   1  376.59   20.83
  -2 -10   2   63.39    8.15
  -2 -10   3    2.27    2.88
  -2 -10   4   -2.76    3.21
  -2 -10   5  118.14   11.30
  -2 -10   6  100.94   10.62
  -2 -10   7  105.41   11.08
  -2  -9 -11   53.70    5.99
  -2  -9 -10    1.53    2.08
  -2  -9  -9   44.17    5.39
  -2  -9  -8  109.45    8.76
  -2  -9  -7  131.88    9.82
  -2  -9  -6   23.18    4.12
  -2  -9  -5   12.79    2.95
  -2  -9  -5    1.90    4.56
  -2  -9  -4    0.23    1.79
  -2  -9  -4    0.58    1.64
  -2  -9  -3   77.34    7.48
  -2  -9  -3   84.61    6.59
  -2  -9  -2   75.19    7.50
  -2  -9  -2   89.73    6.35
  -2  -9  -1  137.20    9.77
  -2  -9  -1  121.69   10.10
  -2  -9  -1  145.16    7.99
  -2  -9   0   40.45    4.85
  -2  -9   0   42.90    3.66
  -2  -9   0   41.32    5.75
  -2  -9   1   59.75    5.96
  -2  -9   1   72.02    7.73
  -2  -9   1   79.68    4.69
  -2  -9   2    6.67    2.22
  -2  -9   2    9.29    3.26
  -2  -9   2    7.54    1.16
  -2  -9   3   23.85    3.58
  -2  -9   3   20.11    1.32
  -2  -9   3   23.14    4.68
  -2  -9   3   19.97    1.30
  -2  -9   4  173.76   10.23
  -2  -9   4  183.63   14.25
  -2  -9   5  192.55   14.06
  -2  -9   6   67.69    8.27
  -2  -9   7    2.49    2.32
  -2  -9   8    5.71    3.89
  -2  -9   9   63.83    8.41
  -2  -9  10   47.03    7.44
  -2  -8 -12   10.31    2.43
  -2  -8 -11    7.85    2.27
  -2  -8 -10   73.55    6.58
  -2  -8  -9  154.37    8.37
  -2  -8  -9  148.38    9.85
  -2  -8  -8  207.59    9.67
  -2  -8  -8  228.54   12.52
  -2  -8  -7  408.22   14.70
  -2  -8  -7  375.68   18.09
  -2  -8  -6   21.60    1.94
  -2  -8  -6   19.76    3.68
  -2  -8  -6   12.07    2.76
  -2  -8  -5  138.16    5.27
  -2  -8  -5  136.51    9.49
  -2  -8  -5  134.03    9.07
  -2  -8  -4  346.84   17.21
  -2  -8  -4  366.85   16.27
  -2  -8  -3  339.36   16.61
  -2  -8  -3  318.06   14.53
  -2  -8  -2  583.86   24.78
  -2  -8  -2  589.34   21.88
  -2  -8  -1   10.54    1.01
  -2  -8  -1   10.39    2.82
  -2  -8  -1   12.79    2.05
  -2  -8   0   71.23    3.78
  -2  -8   0   69.69    6.10
  -2  -8   0   73.22    7.09
  -2  -8   0   68.67    4.55
  -2  -8   1  753.71   24.41
  -2  -8   1  799.59   27.97
  -2  -8   1  769.26   30.43
  -2  -8   1  693.17   23.98
  -2  -8   2  475.45   18.91
  -2  -8   2  470.17   16.95
  -2  -8   2  482.83   22.00
  -2  -8   2  433.66   14.99
  -2  -8   3  246.31   12.15
  -2  -8   3  246.26   11.31
  -2  -8   3  272.55   15.48
  -2  -8   4   45.03    4.36
  -2  -8   4   43.70    4.32
  -2  -8   4   45.77    6.10
  -2  -8   5   71.88    5.90
  -2  -8   5   63.78    5.16
  -2  -8   5   80.58    8.08
  -2  -8   6  108.73    6.76
  -2  -8   6  101.84    9.53
  -2  -8   7  442.43   22.80
  -2  -8   8  231.29   15.65
  -2  -8   9   10.53    4.37
  -2  -8  10    3.23    2.29
  -2  -8  11   13.91    4.51
  -2  -8  12   95.55   10.58
  -2  -7 -13   44.06    4.95
  -2  -7 -12  133.05    8.93
  -2  -7 -11  270.46   15.77
  -2  -7 -11  280.60   13.94
  -2  -7 -11  264.03   13.84
  -2  -7 -10  138.80   10.49
  -2  -7 -10  130.68    8.57
  -2  -7 -10  148.20    9.28
  -2  -7  -9   24.02    3.26
  -2  -7  -9   23.54    4.23
  -2  -7  -9   16.18    2.89
  -2  -7  -8    0.84    1.10
  -2  -7  -8    3.63    1.17
  -2  -7  -8    2.47    1.52
  -2  -7  -8    4.53    1.81
  -2  -7  -7   67.50    4.70
  -2  -7  -7   60.52    5.63
  -2  -7  -7   65.41    4.61
  -2  -7  -7   73.95    6.73
  -2  -7  -6  335.10   12.62
  -2  -7  -6  323.02   15.26
  -2  -7  -6  314.45   15.60
  -2  -7  -6  322.50   13.58
  -2  -7  -5  308.14   11.44
  -2  -7  -5  325.22   15.09
  -2  -7  -5  286.49   13.18
  -2  -7  -5  338.15   15.19
  -2  -7  -4   51.41    5.23
  -2  -7  -4   63.90    5.32
  -2  -7  -4   50.55    4.65
  -2  -7  -3   12.52    2.60
  -2  -7  -3    8.58    2.18
  -2  -7  -3   15.46    2.50
  -2  -7  -2    0.61    0.43
  -2  -7  -2   -0.30    1.30
  -2  -7  -2   -1.24    1.61
  -2  -7  -2    0.41    1.10
  -2  -7  -1   56.54    3.10
  -2  -7  -1   61.86    5.90
  -2  -7  -1   60.22    4.21
  -2  -7  -1   65.26    5.76
  -2  -7   0  167.72    7.08
  -2  -7   0  172.32   10.58
  -2  -7   0  165.77    7.50
  -2  -7   0  187.59   10.68
  -2  -7   1  498.45   19.45
  -2  -7   1  499.92   17.59
  -2  -7   1  533.27   22.11
  -2  -7   1  490.63   16.75
  -2  -7   1  539.33   21.95
  -2  -7   2  328.01   13.39
  -2  -7   2  300.40   12.27
  -2  -7   2  351.76   16.39
  -2  -7   2  288.99   10.13
  -2  -7   3   66.71    4.93
  -2  -7   3   67.65    4.96
  -2  -7   3   60.64    6.24
  -2  -7   4   45.90    4.27
  -2  -7   4   47.48    3.99
  -2  -7   4   38.28    5.09
  -2  -7   5  346.71   15.63
  -2  -7   5  352.40   14.03
  -2  -7   5  365.77   18.38
  -2  -7   6   90.97    7.07
  -2  -7   6   85.14    5.39
  -2  -7   6   83.28    8.05
  -2  -7   7  549.76   23.15
  -2  -7   7  545.32   19.61
  -2  -7   7  543.03   25.08
  -2  -7   8   23.50    2.67
  -2  -7   8   25.92    4.14
  -2  -7   8   29.12    5.05
  -2  -7   9    1.04    1.91
  -2  -7  10  101.24    9.84
  -2  -7  11  172.90   13.42
  -2  -7  12  136.03   12.01
  -2  -7  13   57.39    7.92
  -2  -7  14   13.31    4.27
  -2  -6 -15   36.08    6.57
  -2  -6 -13  196.46   11.22
  -2  -6 -12  114.81    9.06
  -2  -6 -12  109.83    7.80
  -2  -6 -11  173.44   11.31
  -2  -6 -11  178.05   10.93
  -2  -6 -11  174.05   10.22
  -2  -6 -10   41.76    5.18
  -2  -6 -10   42.29    4.70
  -2  -6 -10   41.59    4.50
  -2  -6 -10   32.13    2.00
  -2  -6  -9  225.06   12.74
  -2  -6  -9  226.60   11.44
  -2  -6  -9  250.91   11.99
  -2  -6  -9  200.75    8.28
  -2  -6  -8  614.61   24.98
  -2  -6  -8  600.96   22.60
  -2  -6  -8  575.59   23.17
  -2  -6  -8  633.00   25.82
  -2  -6  -8  613.68   20.45
  -2  -6  -7 1070.81   37.39
  -2  -6  -7 1004.48   33.90
  -2  -6  -7 1056.40   35.78
  -2  -6  -7 1054.23   37.46
  -2  -6  -7  982.89   32.70
  -2  -6  -6  369.26   14.30
  -2  -6  -6  379.53   16.23
  -2  -6  -6  375.65   14.35
  -2  -6  -6  371.16   16.89
  -2  -6  -5    0.96    0.95
  -2  -6  -5    2.30    1.26
  -2  -6  -5    2.16    1.61
  -2  -6  -4  281.53   13.34
  -2  -6  -4  296.85   13.10
  -2  -6  -4  284.96   12.35
  -2  -6  -3  890.41   32.03
  -2  -6  -3  849.80   30.52
  -2  -6  -2 1565.24   49.72
  -2  -6  -2 1515.88   48.67
  -2  -6  -2 1449.27   47.00
  -2  -6  -1  804.85   26.99
  -2  -6  -1  862.80   31.32
  -2  -6  -1  872.90   30.67
  -2  -6   0   80.23    4.34
  -2  -6   0   80.79    6.47
  -2  -6   0   96.56    6.70
  -2  -6   0   85.96    4.41
  -2  -6   1  250.17   11.21
  -2  -6   1  243.06   10.29
  -2  -6   1  229.82   12.66
  -2  -6   1  294.49    9.43
  -2  -6   1  259.93   12.99
  -2  -6   2  247.99   10.38
  -2  -6   2  235.41   10.17
  -2  -6   2  250.30   12.75
  -2  -6   2  236.81    7.70
  -2  -6   2  229.38   12.39
  -2  -6   3  659.21   22.50
  -2  -6   3  674.41   23.43
  -2  -6   3  642.22   25.83
  -2  -6   3  636.95   25.81
  -2  -6   4  433.64   17.25
  -2  -6   4  426.92   15.55
  -2  -6   4  417.62   19.15
  -2  -6   5  474.14   18.78
  -2  -6   5  439.92   16.02
  -2  -6   5  447.62   20.28
  -2  -6   6    7.71    1.37
  -2  -6   6   11.16    2.60
  -2  -6   6    4.37    2.35
  -2  -6   7   95.18    8.07
  -2  -6   7   80.25    6.87
  -2  -6   7   79.89    4.70
  -2  -6   8  227.55    9.57
  -2  -6   8  224.50   13.07
  -2  -6   8  240.05   14.08
  -2  -6   9   75.45    7.37
  -2  -6   9   71.92    7.42
  -2  -6  10  161.68   11.66
  -2  -6  10  162.28   11.84
  -2  -6  11   47.51    6.44
  -2  -6  12    2.93    2.34
  -2  -6  13   28.83    5.50
  -2  -6  14   76.57    9.01
  -2  -6  15   38.03    6.63
  -2  -5 -16  134.80   12.87
  -2  -5 -15   89.15   10.01
  -2  -5 -14    3.25    3.41
  -2  -5 -13   -1.49    2.78
  -2  -5 -13    1.74    1.90
  -2  -5 -12  182.39   11.02
  -2  -5 -11  144.46    9.79
  -2  -5 -11  138.43    9.24
  -2  -5 -11  137.64    5.36
  -2  -5 -10  430.34   18.90
  -2  -5 -10  387.71   18.25
  -2  -5 -10  435.05   14.26
  -2  -5  -9    2.49    1.66
  -2  -5  -9    2.64    0.83
  -2  -5  -9    4.00    1.89
  -2  -5  -8   12.03    2.28
  -2  -5  -8    8.98    1.28
  -2  -5  -8    9.25    2.31
  -2  -5  -8    8.73    2.31
  -2  -5  -7   55.09    5.15
  -2  -5  -7   47.95    4.23
  -2  -5  -7   51.08    4.58
  -2  -5  -7   56.27    5.68
  -2  -5  -7   50.16    3.37
  -2  -5  -6  526.81   20.52
  -2  -5  -6  469.51   19.28
  -2  -5  -6  503.28   17.59
  -2  -5  -6  535.29   20.91
  -2  -5  -5  669.29   24.23
  -2  -5  -5  664.51   22.42
  -2  -5  -5  647.33   24.45
  -2  -5  -4   72.60    5.31
  -2  -5  -4   67.22    5.09
  -2  -5  -4   65.36    4.43
  -2  -5  -3   22.05    2.57
  -2  -5  -3   25.22    3.05
  -2  -5  -3   26.87    2.76
  -2  -5  -2   40.94    3.90
  -2  -5  -2   35.47    3.03
  -2  -5  -2   29.59    3.12
  -2  -5  -1  123.62    7.54
  -2  -5  -1  130.18    6.06
  -2  -5  -1  150.02    7.80
  -2  -5   0  265.65    9.35
  -2  -5   0  190.15   10.59
  -2  -5   0  227.20    8.49
  -2  -5   0  237.78   11.10
  -2  -5   1  721.96   21.88
  -2  -5   1  605.05   23.80
  -2  -5   1  626.40   19.62
  -2  -5   1  655.33   23.94
  -2  -5   2  421.06   14.99
  -2  -5   2  421.66   15.75
  -2  -5   2  424.79   17.68
  -2  -5   2  462.09   18.09
  -2  -5   3    5.16    1.38
  -2  -5   3    7.38    1.23
  -2  -5   3    4.75    1.81
  -2  -5   3    6.79    1.93
  -2  -5   4    8.06    1.20
  -2  -5   4    8.47    1.84
  -2  -5   4    6.13    1.94
  -2  -5   4    5.27    1.78
  -2  -5   5   62.20    3.53
  -2  -5   5   62.60    5.21
  -2  -5   5   64.22    5.81
  -2  -5   5   66.35    5.99
  -2  -5   6  312.81   11.22
  -2  -5   6  290.04   14.28
  -2  -5   6  320.25   15.33
  -2  -5   7  563.98   23.42
  -2  -5   7  597.00   24.13
  -2  -5   8  100.49    8.06
  -2  -5   8  105.85    8.34
  -2  -5   9   55.23    6.09
  -2  -5   9   56.00    6.05
  -2  -5  10    1.14    2.01
  -2  -5  10   -1.08    2.25
  -2  -5  11   59.71    7.12
  -2  -5  11   80.43    7.69
  -2  -5  12   92.74    8.60
  -2  -5  13   91.70    8.85
  -2  -5  14  106.23    9.89
  -2  -4 -17   43.48    7.30
  -2  -4 -16   63.85    8.59
  -2  -4 -15   -0.41    2.86
  -2  -4 -14   39.91    6.48
  -2  -4 -13  193.47   13.57
  -2  -4 -13  193.76   11.03
  -2  -4 -13  180.02    7.77
  -2  -4 -12  352.85   15.72
  -2  -4 -12  362.99   19.18
  -2  -4 -12  340.08   12.71
  -2  -4 -11  290.98   13.44
  -2  -4 -11  270.20   15.84
  -2  -4 -11  273.14   10.65
  -2  -4 -10   42.92    4.89
  -2  -4 -10   43.53    4.44
  -2  -4 -10   46.33    3.22
  -2  -4  -9    0.92    1.22
  -2  -4  -9   -0.43    1.18
  -2  -4  -9    0.02    0.55
  -2  -4  -9    1.17    1.42
  -2  -4  -8  331.56   14.52
  -2  -4  -8  334.60   14.19
  -2  -4  -8  336.73   15.87
  -2  -4  -8  301.77   11.68
  -2  -4  -7  338.36   14.53
  -2  -4  -7  350.99   14.71
  -2  -4  -7  353.28   16.02
  -2  -4  -7  347.01   12.64
  -2  -4  -6 2660.48   83.17
  -2  -4  -6 2729.77   84.48
  -2  -4  -6 2741.06   80.97
  -2  -4  -5  140.27    7.89
  -2  -4  -5  125.75    6.11
  -2  -4  -4    4.25    1.11
  -2  -4  -4    8.77    1.84
  -2  -4  -3  230.95   10.18
  -2  -4  -3  231.05    9.80
  -2  -4  -3  209.71    9.13
  -2  -4  -2 1578.90   47.54
  -2  -4  -2 1502.27   46.48
  -2  -4  -2 1430.98   45.86
  -2  -4  -1 1774.72   52.81
  -2  -4  -1 1667.26   50.40
  -2  -4  -1 1606.08   51.87
  -2  -4   0  915.54   29.40
  -2  -4   0  840.53   26.21
  -2  -4   0  879.50   29.04
  -2  -4   1  259.56   10.54
  -2  -4   1  313.03   12.52
  -2  -4   1  287.17   12.14
  -2  -4   2  227.89    8.31
  -2  -4   2  240.01    9.80
  -2  -4   2  240.87   10.91
  -2  -4   2  229.39   10.82
  -2  -4   3  650.42   22.24
  -2  -4   3  613.24   19.58
  -2  -4   3  700.84   23.47
  -2  -4   3  608.34   23.11
  -2  -4   4  819.04   25.38
  -2  -4   4  859.83   28.86
  -2  -4   4  830.15   29.34
  -2  -4   4  895.02   30.14
  -2  -4   5 1285.54   38.49
  -2  -4   5 1262.59   42.42
  -2  -4   5 1289.95   42.94
  -2  -4   5 1311.25   43.45
  -2  -4   6  292.28   13.88
  -2  -4   6  300.05   13.96
  -2  -4   6  307.33   14.46
  -2  -4   7    3.67    1.69
  -2  -4   7    6.08    1.91
  -2  -4   8  193.64   11.63
  -2  -4   8  212.76   11.53
  -2  -4   9  307.41   15.89
  -2  -4   9  294.69   14.93
  -2  -4  10  327.67   17.32
  -2  -4  10  331.90   16.44
  -2  -4  11  430.70   21.53
  -2  -4  11  440.81   20.19
  -2  -4  12   10.17    3.40
  -2  -4  12   12.67    3.25
  -2  -4  13    0.36    1.43
  -2  -4  14   43.90    6.04
  -2  -3 -17   32.37    6.48
  -2  -3 -16   61.79    8.26
  -2  -3 -15  137.64   12.01
  -2  -3 -14   89.31    9.29
  -2  -3 -14  104.67    8.31
  -2  -3 -14   95.93    6.11
  -2  -3 -13  204.02    9.81
  -2  -3 -13  218.76   14.27
  -2  -3 -13  211.32   11.87
  -2  -3 -13  185.76   11.72
  -2  -3 -13  209.86    9.79
  -2  -3 -12    2.12    1.19
  -2  -3 -12    1.12    1.54
  -2  -3 -12    2.31    1.43
  -2  -3 -12    1.85    1.83
  -2  -3 -11   14.12    2.15
  -2  -3 -11   17.75    2.57
  -2  -3 -11   11.02    2.57
  -2  -3 -11   13.27    2.65
  -2  -3 -11   17.62    3.74
  -2  -3 -10  449.04   16.45
  -2  -3 -10  462.33   20.76
  -2  -3 -10  444.30   17.12
  -2  -3 -10  411.36   19.32
  -2  -3 -10  444.28   18.41
  -2  -3  -9  597.62   24.27
  -2  -3  -9  560.79   19.89
  -2  -3  -9  574.43   20.74
  -2  -3  -9  579.26   23.09
  -2  -3  -9  550.11   21.55
  -2  -3  -9  596.69   24.10
  -2  -3  -8  212.67   11.85
  -2  -3  -8  204.60    9.60
  -2  -3  -8  214.33    9.01
  -2  -3  -8  211.54   11.01
  -2  -3  -8  216.80   10.25
  -2  -3  -8  203.24   11.55
  -2  -3  -7   11.80    1.97
  -2  -3  -7   10.22    1.54
  -2  -3  -7   13.85    2.68
  -2  -3  -6   88.71    4.86
  -2  -3  -6  103.91    6.75
  -2  -3  -5  723.48   23.81
  -2  -3  -5  754.05   26.07
  -2  -3  -4  904.17   29.71
  -2  -3  -4  875.76   28.16
  -2  -3  -3  438.97   15.58
  -2  -3  -3  468.50   16.37
  -2  -3  -2    5.32    1.14
  -2  -3  -2    4.64    1.09
  -2  -3  -1    6.07    1.29
  -2  -3  -1    7.02    1.44
  -2  -3  -1    9.96    1.23
  -2  -3   0  233.51    9.67
  -2  -3   0  244.50    9.60
  -2  -3   0  219.85    7.74
  -2  -3   1  154.20    7.53
  -2  -3   1  173.74    7.82
  -2  -3   2  235.58    9.99
  -2  -3   2  267.30   10.75
  -2  -3   2  261.30   10.84
  -2  -3   3   12.24    1.96
  -2  -3   3   14.77    2.20
  -2  -3   3   14.79    2.10
  -2  -3   4  304.17   12.85
  -2  -3   4  302.97   12.62
  -2  -3   4  320.42   13.22
  -2  -3   5    4.71    1.61
  -2  -3   5    2.67    1.24
  -2  -3   5    7.36    1.77
  -2  -3   6   90.07    6.51
  -2  -3   6   93.99    6.14
  -2  -3   6   88.55    6.27
  -2  -3   7   69.73    5.98
  -2  -3   7   67.11    5.31
  -2  -3   8  185.95   11.30
  -2  -3   8  221.12   10.92
  -2  -3   9  162.57   10.70
  -2  -3   9  171.92    9.79
  -2  -3  10   35.39    5.07
  -2  -3  10   32.46    4.06
  -2  -3  11   24.08    3.72
  -2  -3  11   25.98    4.66
  -2  -3  12   80.86    7.03
  -2  -3  12   74.70    8.04
  -2  -2 -18   74.87    9.56
  -2  -2 -17  140.43   12.70
  -2  -2 -16  121.42   11.56
  -2  -2 -15   87.00    9.33
  -2  -2 -14   -0.71    2.04
  -2  -2 -14    3.04    1.63
  -2  -2 -13   38.33    5.56
  -2  -2 -13   40.20    4.98
  -2  -2 -13   41.43    4.97
  -2  -2 -13   50.10    4.59
  -2  -2 -12  812.65   32.51
  -2  -2 -12  796.42   30.20
  -2  -2 -12  794.92   29.92
  -2  -2 -11  111.59    8.82
  -2  -2 -11  110.95    7.51
  -2  -2 -11  100.07    7.52
  -2  -2 -10  770.99   29.61
  -2  -2 -10  734.70   29.45
  -2  -2 -10  728.34   26.98
  -2  -2 -10  786.98   28.07
  -2  -2 -10  740.84   29.66
  -2  -2  -9  428.00   18.79
  -2  -2  -9  399.14   18.77
  -2  -2  -9  446.69   17.13
  -2  -2  -9  429.52   17.70
  -2  -2  -9  433.82   19.27
  -2  -2  -8  321.30   14.88
  -2  -2  -8  316.49   14.51
  -2  -2  -8  291.76   12.57
  -2  -2  -8  311.73   14.77
  -2  -2  -7  597.51   22.95
  -2  -2  -7  593.37   20.63
  -2  -2  -7  588.17   22.88
  -2  -2  -6 2783.81   85.48
  -2  -2  -6 2784.15   82.87
  -2  -2  -6 2753.16   85.35
  -2  -2  -5 1757.32   54.99
  -2  -2  -5 1832.38   57.34
  -2  -2  -4  877.22   28.16
  -2  -2  -4  869.17   29.44
  -2  -2  -4  904.78   29.42
  -2  -2  -3  400.56   14.83
  -2  -2  -3  410.81   14.09
  -2  -2  -3  389.74   14.56
  -2  -2  -2  763.37   24.53
  -2  -2  -2  755.56   24.83
  -2  -2  -2  782.89   24.75
  -2  -2  -1 2230.08   66.61
  -2  -2  -1 2274.10   66.96
  -2  -2  -1 2233.27   66.45
  -2  -2   0 4848.13  136.27
  -2  -2   0 4445.57  137.28
  -2  -2   1  461.01   14.00
  -2  -2   1  449.84   15.61
  -2  -2   1  454.54   15.83
  -2  -2   2  252.51   10.15
  -2  -2   2  259.01    9.87
  -2  -2   2  265.43   10.26
  -2  -2   3    5.39    1.49
  -2  -2   3    3.21    1.19
  -2  -2   3    3.67    1.04
  -2  -2   4   47.45    3.94
  -2  -2   4   60.94    3.83
  -2  -2   4   56.59    4.02
  -2  -2   5  773.75   26.62
  -2  -2   5  759.68   25.16
  -2  -2   5  732.92   25.66
  -2  -2   6 1289.13   42.85
  -2  -2   6 1296.39   41.04
  -2  -2   6 1284.98   41.67
  -2  -2   7  207.92   11.14
  -2  -2   7  209.93    9.67
  -2  -2   7  212.79   10.16
  -2  -2   8   85.87    5.76
  -2  -2   8   86.77    6.94
  -2  -2   9   10.66    2.14
  -2  -2   9    7.22    2.25
  -2  -2  10  147.08    8.45
  -2  -2  10  138.51   10.04
  -2  -2  11  244.57   12.03
  -2  -2  11  230.72   14.17
  -2  -2  12  254.90   15.49
  -2  -2  13  114.48   10.31
  -2  -1 -18   96.62   10.80
  -2  -1 -17   14.61    4.67
  -2  -1 -16   30.31    5.97
  -2  -1 -15   46.50    6.74
  -2  -1 -15   46.63    5.35
  -2  -1 -14   86.66    8.57
  -2  -1 -14   76.98    6.64
  -2  -1 -13  147.49   11.11
  -2  -1 -13  163.69   10.16
  -2  -1 -13  153.74    9.58
  -2  -1 -12  190.97   12.47
  -2  -1 -12  204.46   11.22
  -2  -1 -12  203.87   11.94
  -2  -1 -11  285.74   15.31
  -2  -1 -11  285.41   13.40
  -2  -1 -11  286.40   14.44
  -2  -1 -10    5.92    2.21
  -2  -1 -10    3.24    1.39
  -2  -1 -10    3.20    1.68
  -2  -1 -10   -0.42    1.17
  -2  -1  -9  194.37   11.27
  -2  -1  -9  185.76   10.96
  -2  -1  -9  187.83    9.33
  -2  -1  -9  207.67   10.75
  -2  -1  -9  200.75   11.47
  -2  -1  -8    2.85    1.76
  -2  -1  -8    1.65    1.42
  -2  -1  -8    0.99    1.25
  -2  -1  -8    2.79    1.30
  -2  -1  -8    0.10    1.33
  -2  -1  -7    6.42    1.84
  -2  -1  -7    7.32    1.91
  -2  -1  -7   10.00    1.56
  -2  -1  -7    9.91    2.04
  -2  -1  -7   11.53    2.35
  -2  -1  -6  280.63   12.69
  -2  -1  -6  276.52   10.55
  -2  -1  -6  310.22   13.14
  -2  -1  -5  179.18    8.95
  -2  -1  -5  182.04    7.01
  -2  -1  -5  182.87    8.99
  -2  -1  -4   45.11    3.68
  -2  -1  -4   46.92    2.37
  -2  -1  -4   48.62    3.79
  -2  -1  -3    1.96    1.05
  -2  -1  -3    1.04    0.71
  -2  -1  -2   26.20    2.37
  -2  -1  -2   24.10    2.25
  -2  -1  -1  416.64   14.10
  -2  -1  -1  400.32   13.85
  -2  -1   0 2105.95   65.93
  -2  -1   0 2249.63   65.48
  -2  -1   0 2277.08   65.35
  -2  -1   1  162.33    5.95
  -2  -1   1  152.55    6.56
  -2  -1   1  164.83    6.65
  -2  -1   2  195.36    7.07
  -2  -1   2  188.82    8.05
  -2  -1   2  186.48    7.58
  -2  -1   3  392.17   14.72
  -2  -1   3  404.84   13.29
  -2  -1   3  420.12   15.15
  -2  -1   3  400.86   14.01
  -2  -1   4  331.29   12.87
  -2  -1   4  311.23   10.93
  -2  -1   4  315.39   13.00
  -2  -1   4  315.73   11.73
  -2  -1   5 1033.10   33.76
  -2  -1   5 1025.18   34.02
  -2  -1   5  973.20   31.14
  -2  -1   5 1025.21   32.19
  -2  -1   6  141.96    8.07
  -2  -1   6  131.49    6.13
  -2  -1   6  137.26    8.15
  -2  -1   6  139.54    6.78
  -2  -1   7   20.17    2.37
  -2  -1   7   22.95    3.25
  -2  -1   7   21.78    2.27
  -2  -1   7   19.85    3.01
  -2  -1   8  106.45    7.69
  -2  -1   8  112.68    7.96
  -2  -1   8  100.75    5.68
  -2  -1   9  330.05   16.09
  -2  -1   9  336.13   13.23
  -2  -1   9  316.52   16.02
  -2  -1  10  298.27   15.75
  -2  -1  10  308.01   16.00
  -2  -1  11  113.45    9.17
  -2  -1  11   98.95    8.68
  -2  -1  12   13.03    3.57
  -2  -1  12   17.92    3.99
  -2  -1  13   -0.04    2.35
  -2   0 -18   -4.70    4.38
  -2   0 -17   12.54    4.65
  -2   0 -16  125.30   11.32
  -2   0 -16  140.60   10.40
  -2   0 -15   79.19    8.56
  -2   0 -15   69.68    6.92
  -2   0 -14   51.03    6.46
  -2   0 -14   43.38    5.29
  -2   0 -13   87.32    8.18
  -2   0 -13   81.52    6.89
  -2   0 -13   79.18    7.08
  -2   0 -12    5.47    2.10
  -2   0 -12    6.82    2.12
  -2   0 -11   74.59    6.90
  -2   0 -11   72.04    6.56
  -2   0 -11   69.59    5.81
  -2   0 -10  208.30   11.87
  -2   0 -10  212.03   11.74
  -2   0 -10  189.08    9.97
  -2   0 -10  197.57   11.94
  -2   0  -9  531.64   22.42
  -2   0  -9  525.87   21.93
  -2   0  -9  510.70   21.58
  -2   0  -9  535.18   19.94
  -2   0  -9  569.98   22.62
  -2   0  -8  105.87    7.67
  -2   0  -8  107.03    7.46
  -2   0  -8  122.27    7.76
  -2   0  -8  108.27    6.20
  -2   0  -8  111.25    7.71
  -2   0  -7  171.09    9.65
  -2   0  -7  173.78    9.58
  -2   0  -7  181.58    9.62
  -2   0  -7  172.23    7.93
  -2   0  -7  186.56    9.92
  -2   0  -6  269.67   12.19
  -2   0  -6  265.38   12.08
  -2   0  -6  266.44   10.26
  -2   0  -6  265.55   12.24
  -2   0  -5   64.32    4.85
  -2   0  -5   70.51    3.67
  -2   0  -5   63.85    4.82
  -2   0  -5   71.71    5.05
  -2   0  -4 1163.63   39.55
  -2   0  -4 1260.32   37.27
  -2   0  -4 1187.57   39.65
  -2   0  -3  568.76   18.47
  -2   0  -3  462.63   17.89
  -2   0  -2  582.04   19.73
  -2   0  -1 1279.43   37.55
  -2   0  -1 1239.03   39.15
  -2   0   0  130.95    5.92
  -2   0   0  134.55    5.49
  -2   0   0  162.51    6.44
  -2   0   1  766.66   25.24
  -2   0   1  803.47   24.80
  -2   0   1  791.28   24.88
  -2   0   1  774.60   24.84
  -2   0   2    5.97    1.26
  -2   0   2    4.11    0.96
  -2   0   2    4.94    1.21
  -2   0   3  503.35   17.63
  -2   0   3  499.56   17.23
  -2   0   3  482.87   17.61
  -2   0   3  488.72   16.11
  -2   0   4   45.39    3.56
  -2   0   4   48.22    3.96
  -2   0   4   44.40    2.72
  -2   0   5    0.52    0.69
  -2   0   5    0.31    1.00
  -2   0   5    1.13    1.23
  -2   0   5    0.32    0.31
  -2   0   6  493.77   19.12
  -2   0   6  515.11   19.84
  -2   0   6  493.74   16.77
  -2   0   7  523.72   20.31
  -2   0   7  515.82   20.70
  -2   0   7  502.19   17.41
  -2   0   8  300.45   14.30
  -2   0   8  295.18   14.55
  -2   0   9  397.95   18.06
  -2   0   9  391.08   18.22
  -2   0  10   29.78    4.35
  -2   0  10   24.77    4.11
  -2   0  11   43.03    5.54
  -2   0  11   46.45    5.76
  -2   0  12  726.16   30.28
  -2   0  12  708.11   30.39
  -2   0  13  279.92   16.58
  -2   0  13  272.90   16.60
  -2   0  14   83.65    8.90
  -2   0  15   28.92    5.67
  -2   0  16   -0.01    2.53
  -2   1 -17   81.22    9.53
  -2   1 -16   77.29    8.85
  -2   1 -16   87.14    8.75
  -2   1 -15    2.04    2.37
  -2   1 -15    0.71    1.89
  -2   1 -14   31.06    5.24
  -2   1 -14   26.27    4.46
  -2   1 -13  165.98   11.70
  -2   1 -13  172.42   10.75
  -2   1 -13  167.67   11.42
  -2   1 -12  499.52   23.32
  -2   1 -12  547.97   22.30
  -2   1 -12  555.36   23.62
  -2   1 -11  163.16   10.73
  -2   1 -11  166.81    9.75
  -2   1 -10  107.74    8.09
  -2   1 -10  101.21    7.98
  -2   1 -10   95.06    6.73
  -2   1 -10   98.98    7.95
  -2   1  -9   71.41    6.42
  -2   1  -9   51.41    5.30
  -2   1  -9   54.05    5.60
  -2   1  -9   59.31    4.83
  -2   1  -9   71.33    6.22
  -2   1  -8   56.91    5.52
  -2   1  -8   58.15    5.39
  -2   1  -8   59.63    5.60
  -2   1  -8   59.53    4.57
  -2   1  -8   67.84    5.85
  -2   1  -7  571.80   22.83
  -2   1  -7  581.16   22.50
  -2   1  -7  606.45   23.18
  -2   1  -7  576.85   20.75
  -2   1  -7  608.91   22.85
  -2   1  -6 1379.26   46.22
  -2   1  -6 1417.89   46.14
  -2   1  -6 1529.86   47.15
  -2   1  -6 1351.07   44.06
  -2   1  -6 1452.10   46.38
  -2   1  -5   18.12    2.66
  -2   1  -5   13.83    2.34
  -2   1  -4  318.94   10.85
  -2   1  -4  370.68   14.32
  -2   1  -4  358.25   13.85
  -2   1  -3   29.29    2.03
  -2   1  -3   28.69    3.00
  -2   1  -3   34.79    3.20
  -2   1  -2   23.42    1.98
  -2   1  -2   27.90    2.71
  -2   1  -2   26.47    2.74
  -2   1  -1  779.66   24.45
  -2   1  -1  795.56   24.89
  -2   1   0 2268.17   63.92
  -2   1   0 2016.80   63.26
  -2   1   0 2063.38   63.22
  -2   1   0 2142.34   64.16
  -2   1   1   89.96    5.14
  -2   1   1   98.26    5.09
  -2   1   1   97.81    4.48
  -2   1   1   83.91    5.05
  -2   1   2  379.42   13.65
  -2   1   2  329.66   11.35
  -2   1   2  351.69   13.24
  -2   1   3  101.82    5.97
  -2   1   3   98.19    4.52
  -2   1   3  110.63    5.30
  -2   1   3   95.96    3.66
  -2   1   3  106.41    5.96
  -2   1   4   21.42    2.71
  -2   1   4   23.82    2.49
  -2   1   4   25.97    3.06
  -2   1   4   23.82    1.75
  -2   1   5  210.64   10.22
  -2   1   5  222.88    9.75
  -2   1   5  220.89   10.60
  -2   1   5  204.46    7.49
  -2   1   6  943.47   32.12
  -2   1   6  973.24   31.67
  -2   1   6  935.26   32.59
  -2   1   6  903.41   28.09
  -2   1   7  409.26   16.83
  -2   1   7  414.07   16.68
  -2   1   7  400.55   17.31
  -2   1   7  381.08   12.86
  -2   1   8    0.68    1.15
  -2   1   8   -1.07    1.66
  -2   1   8    1.15    1.08
  -2   1   9   14.06    2.92
  -2   1   9   10.62    2.63
  -2   1  10  133.83    9.83
  -2   1  10  147.90    9.79
  -2   1  11  119.84    9.56
  -2   1  11  115.80    9.00
  -2   1  12  455.88   22.46
  -2   1  12  471.85   22.07
  -2   1  13   46.03    6.29
  -2   1  14   -1.79    2.84
  -2   1  15   24.96    5.67
  -2   1  16  116.45   11.60
  -2   1  17  136.11   12.75
  -2   2 -16   26.63    5.76
  -2   2 -16   25.60    5.57
  -2   2 -15  129.24   10.93
  -2   2 -15  134.17   11.28
  -2   2 -14  133.02   10.64
  -2   2 -14  133.45   10.97
  -2   2 -13  171.25   11.94
  -2   2 -13  210.55   13.42
  -2   2 -12   81.62    7.59
  -2   2 -12   91.64    7.48
  -2   2 -12   74.84    7.59
  -2   2 -11    5.49    2.41
  -2   2 -11    2.90    1.79
  -2   2 -11    6.96    2.61
  -2   2 -10  206.97   11.95
  -2   2 -10  186.40   10.79
  -2   2 -10  233.24   12.82
  -2   2  -9  275.57   14.23
  -2   2  -9  222.38   11.56
  -2   2  -9  232.53   12.62
  -2   2  -8  810.74   30.09
  -2   2  -8  845.26   32.21
  -2   2  -8  858.76   31.65
  -2   2  -7  804.19   28.67
  -2   2  -7  705.48   25.75
  -2   2  -7  724.65   27.51
  -2   2  -7  716.03   27.08
  -2   2  -6  176.45    6.75
  -2   2  -6  194.83   10.63
  -2   2  -6  177.66    9.77
  -2   2  -6  204.43   10.25
  -2   2  -5  124.24    5.55
  -2   2  -5  152.82    8.73
  -2   2  -5  147.23    8.16
  -2   2  -4  696.72   23.76
  -2   2  -4  822.77   27.40
  -2   2  -4  794.41   26.70
  -2   2  -3 2502.90   73.95
  -2   2  -3 2407.95   76.21
  -2   2  -3 2486.99   76.08
  -2   2  -2 2515.82   77.19
  -2   2  -2 2737.48   79.01
  -2   2  -2 2516.40   78.55
  -2   2  -1  772.00   25.56
  -2   2  -1  762.83   26.32
  -2   2  -1  769.53   26.08
  -2   2   0    3.53    1.26
  -2   2   0    4.75    1.32
  -2   2   0    6.34    1.36
  -2   2   1  784.77   28.23
  -2   2   1  899.93   28.47
  -2   2   1  851.11   27.32
  -2   2   2 1339.42   43.27
  -2   2   2 1325.28   42.97
  -2   2   2 1351.78   41.09
  -2   2   3 2248.32   60.89
  -2   2   3 1793.31   56.58
  -2   2   3 2135.93   60.36
  -2   2   3 1819.16   57.36
  -2   2   4  834.05   28.85
  -2   2   4  834.26   26.69
  -2   2   4  800.76   24.73
  -2   2   4  821.42   28.70
  -2   2   5  118.62    7.47
  -2   2   5  131.25    6.60
  -2   2   5  115.73    7.46
  -2   2   5  112.71    4.65
  -2   2   6    5.22    1.84
  -2   2   6    8.04    2.24
  -2   2   6    7.60    1.82
  -2   2   7  579.01   23.11
  -2   2   7  588.80   23.57
  -2   2   7  591.25   22.06
  -2   2   8  401.48   17.88
  -2   2   8  389.57   18.22
  -2   2   8  404.49   17.12
  -2   2   9  838.53   31.51
  -2   2   9  858.26   32.51
  -2   2   9  811.10   30.61
  -2   2  10  291.51   14.97
  -2   2  10  289.44   15.79
  -2   2  10  284.12   14.61
  -2   2  11   16.20    3.27
  -2   2  11   14.71    3.77
  -2   2  11   17.26    3.46
  -2   2  12  109.51    9.76
  -2   2  12  122.60    9.56
  -2   2  13  181.41   13.31
  -2   2  14  199.93   14.54
  -2   2  15   95.41   10.13
  -2   2  16   43.55    7.33
  -2   2  17   -2.21    3.16
  -2   3 -16   65.42    8.55
  -2   3 -15   11.78    4.00
  -2   3 -15   12.23    4.18
  -2   3 -14    0.18    2.55
  -2   3 -14   -0.11    2.93
  -2   3 -13   13.40    3.76
  -2   3 -13   15.53    4.03
  -2   3 -12  126.47    9.71
  -2   3 -12  107.97    8.91
  -2   3 -12  119.70   10.18
  -2   3 -11  410.78   19.43
  -2   3 -11  382.90   18.36
  -2   3 -11  417.80   20.77
  -2   3 -10   36.92    5.24
  -2   3 -10   33.01    4.38
  -2   3 -10   46.42    5.46
  -2   3  -9    1.15    1.41
  -2   3  -9    1.28    1.70
  -2   3  -8   -0.17    0.53
  -2   3  -8    1.74    1.16
  -2   3  -8   -0.70    1.47
  -2   3  -7  104.49    5.15
  -2   3  -7  110.83    8.42
  -2   3  -7  111.57    7.80
  -2   3  -7  129.01    8.37
  -2   3  -6  324.16   12.27
  -2   3  -6  373.90   16.66
  -2   3  -6  313.75   14.94
  -2   3  -6  326.76   14.86
  -2   3  -5  187.12    8.80
  -2   3  -5  245.20   12.33
  -2   3  -5  243.16   11.56
  -2   3  -5  216.51   10.59
  -2   3  -4  295.77   12.44
  -2   3  -4  322.87   15.01
  -2   3  -4  346.92   14.66
  -2   3  -4  347.85   13.72
  -2   3  -3  105.69    6.29
  -2   3  -3  134.02    8.06
  -2   3  -3  129.54    7.57
  -2   3  -2   40.11    3.58
  -2   3  -2   47.24    4.36
  -2   3  -2   38.16    3.94
  -2   3  -1  597.77   21.77
  -2   3  -1  623.78   22.36
  -2   3  -1  591.63   22.31
  -2   3   0  820.94   28.51
  -2   3   0  826.03   28.22
  -2   3   0  825.36   28.95
  -2   3   1 1797.92   60.02
  -2   3   1 1964.44   60.29
  -2   3   1 1967.06   59.17
  -2   3   2 1341.55   41.13
  -2   3   2 1246.81   40.55
  -2   3   3    1.05    1.13
  -2   3   3    1.63    0.66
  -2   3   3    2.12    1.59
  -2   3   3    1.70    0.95
  -2   3   4   66.95    5.62
  -2   3   4   64.64    5.50
  -2   3   4   61.28    3.65
  -2   3   4   66.34    3.96
  -2   3   5  948.79   34.30
  -2   3   5  996.81   31.35
  -2   3   5  933.80   29.64
  -2   3   5 1000.61   34.48
  -2   3   6 1481.90   47.45
  -2   3   6 1397.16   44.10
  -2   3   6 1412.81   47.20
  -2   3   6 1359.92   40.79
  -2   3   6 1376.76   40.82
  -2   3   7  771.09   28.82
  -2   3   7  750.43   28.76
  -2   3   7  709.35   26.03
  -2   3   8   74.88    6.75
  -2   3   8   84.70    7.35
  -2   3   8   72.47    5.71
  -2   3   9    2.47    1.19
  -2   3   9    4.33    1.98
  -2   3   9    5.00    1.97
  -2   3  10   91.14    8.43
  -2   3  10  118.43    8.28
  -2   3  11  408.16   20.23
  -2   3  11  347.08   17.47
  -2   3  12  354.99   19.58
  -2   3  13  106.44   10.22
  -2   3  14   46.68    7.10
  -2   3  15    4.21    3.37
  -2   3  16   40.67    7.04
  -2   4 -15   15.67    4.34
  -2   4 -14   52.68    7.04
  -2   4 -14   70.08    8.75
  -2   4 -13   84.90    8.28
  -2   4 -13   83.09    9.26
  -2   4 -12  160.86   11.41
  -2   4 -12  158.03   12.65
  -2   4 -11  173.43   11.72
  -2   4 -11  191.06   13.52
  -2   4 -10    5.37    3.05
  -2   4 -10    2.30    0.65
  -2   4 -10    0.60    1.48
  -2   4 -10    2.61    1.52
  -2   4  -9    0.76    0.79
  -2   4  -9    0.15    1.91
  -2   4  -9    0.83    1.60
  -2   4  -9    1.00    1.46
  -2   4  -8  371.71   17.34
  -2   4  -8  347.64   17.19
  -2   4  -8  356.56   13.48
  -2   4  -7  333.64   16.16
  -2   4  -7  341.53   16.18
  -2   4  -7  348.51   13.53
  -2   4  -6  659.13   23.96
  -2   4  -6  611.83   24.04
  -2   4  -6  560.73   21.22
  -2   4  -5    2.08    1.35
  -2   4  -5    0.59    1.21
  -2   4  -5    1.22    0.96
  -2   4  -5    3.52    1.90
  -2   4  -4   65.48    5.06
  -2   4  -4   94.07    7.24
  -2   4  -4   73.58    6.01
  -2   4  -4   70.39    5.19
  -2   4  -3  170.15    9.06
  -2   4  -3  170.23   10.22
  -2   4  -3  178.49    9.89
  -2   4  -3  176.31    8.42
  -2   4  -2  932.56   30.75
  -2   4  -2  834.69   31.28
  -2   4  -2  830.84   31.02
  -2   4  -1 1181.34   37.00
  -2   4  -1 1101.49   36.84
  -2   4   0   76.79    5.91
  -2   4   0   63.60    5.25
  -2   4   1   78.10    6.28
  -2   4   1   93.83    6.08
  -2   4   2  313.83   14.40
  -2   4   2  278.66   12.44
  -2   4   2  304.63   14.17
  -2   4   2  296.25   10.09
  -2   4   3  248.52   13.03
  -2   4   3  255.07   12.93
  -2   4   3  256.55   11.11
  -2   4   3  260.35    9.24
  -2   4   4  687.40   25.23
  -2   4   4  624.30   20.09
  -2   4   4  599.23   24.26
  -2   4   4  568.48   21.01
  -2   4   5  448.40   19.56
  -2   4   5  429.61   15.50
  -2   4   5  422.96   15.58
  -2   4   5  420.30   19.14
  -2   4   5  446.90   15.36
  -2   4   6  150.82   10.06
  -2   4   6  151.43    7.57
  -2   4   6  145.68    9.89
  -2   4   6  158.57    6.32
  -2   4   7   19.00    3.44
  -2   4   7   16.28    3.42
  -2   4   7   19.08    2.56
  -2   4   8   96.16    8.36
  -2   4   8  108.14    6.92
  -2   4   9  205.44   13.26
  -2   4   9  217.54   11.28
  -2   4  10  329.27   18.05
  -2   4  11  394.52   20.90
  -2   4  12    0.16    2.01
  -2   4  13    5.61    3.07
  -2   4  14  112.73   11.09
  -2   4  15  149.43   13.32
  -2   4  16  130.22   12.94
  -2   5 -13   18.48    4.14
  -2   5 -13   12.87    4.32
  -2   5 -12    3.35    2.44
  -2   5 -12   -0.48    3.03
  -2   5 -11  112.95    9.26
  -2   5 -11  105.82   10.37
  -2   5 -10   92.61    8.19
  -2   5 -10   99.61    9.86
  -2   5  -9   56.17    6.09
  -2   5  -9   63.42    7.62
  -2   5  -8   38.69    5.01
  -2   5  -8   50.41    6.42
  -2   5  -8   47.54    4.17
  -2   5  -7   -1.09    1.37
  -2   5  -7    0.22    1.39
  -2   5  -7   -1.43    2.02
  -2   5  -7    0.43    1.18
  -2   5  -6    2.87    1.75
  -2   5  -6    2.48    1.61
  -2   5  -6    3.66    1.98
  -2   5  -6    3.26    1.68
  -2   5  -5  385.56   17.73
  -2   5  -5  386.94   16.37
  -2   5  -5  377.17   16.30
  -2   5  -4    0.39    1.59
  -2   5  -4    1.93    1.29
  -2   5  -4    3.57    1.62
  -2   5  -3   16.89    3.16
  -2   5  -3   11.67    1.88
  -2   5  -3    8.82    2.22
  -2   5  -3   13.96    2.80
  -2   5  -2   90.98    6.85
  -2   5  -2   83.32    4.97
  -2   5  -2   85.50    7.07
  -2   5  -1    8.83    1.37
  -2   5  -1    8.90    2.39
  -2   5  -1   10.69    2.51
  -2   5   0   20.42    1.70
  -2   5   0   24.80    3.65
  -2   5   0   24.14    3.53
  -2   5   1  118.50    8.21
  -2   5   1   94.17    3.81
  -2   5   1  105.24    7.23
  -2   5   2   88.66    7.10
  -2   5   2   72.37    6.46
  -2   5   2   68.35    5.60
  -2   5   2   71.11    5.56
  -2   5   3   34.85    4.49
  -2   5   3   32.67    1.72
  -2   5   3   30.18    4.20
  -2   5   3   39.80    3.84
  -2   5   3   27.50    3.27
  -2   5   4  181.59   11.42
  -2   5   4  180.57    6.84
  -2   5   4  182.18   11.38
  -2   5   4  183.73    9.25
  -2   5   4  185.68    9.02
  -2   5   5   11.73    2.28
  -2   5   5    9.58    1.41
  -2   5   5    8.79    2.44
  -2   5   5   14.97    2.20
  -2   5   6   11.82    1.69
  -2   5   6    9.01    1.58
  -2   5   6   13.06    3.11
  -2   5   7  163.51   11.44
  -2   5   7  170.98    6.58
  -2   5   8  128.06   10.19
  -2   5   9   42.04    5.84
  -2   5  10   27.54    5.07
  -2   5  11    3.52    2.56
  -2   5  12   28.02    5.38
  -2   5  13   69.65    8.57
  -2   5  14  101.51   10.78
  -2   5  15   24.88    5.77
  -2   6 -12   86.88    8.55
  -2   6 -12   87.29   10.30
  -2   6 -11  107.98    9.41
  -2   6 -11  126.36   11.87
  -2   6 -10   99.53    8.71
  -2   6 -10  100.00   10.31
  -2   6  -9   17.92    3.80
  -2   6  -9   33.17    5.81
  -2   6  -8   34.78    5.13
  -2   6  -8   49.55    6.96
  -2   6  -7   32.39    4.54
  -2   6  -7   27.56    3.99
  -2   6  -7   32.06    4.05
  -2   6  -7   31.43    5.26
  -2   6  -6  246.13   14.37
  -2   6  -6  258.29   13.42
  -2   6  -6  255.29   15.93
  -2   6  -5  728.93   28.62
  -2   6  -5  713.62   27.14
  -2   6  -5  782.23   30.87
  -2   6  -4  200.63   11.94
  -2   6  -4  177.23    9.27
  -2   6  -4  179.60   10.76
  -2   6  -4  158.13   11.53
  -2   6  -3   86.08    5.53
  -2   6  -3   88.55    7.23
  -2   6  -3   91.79    8.03
  -2   6  -2   93.79    5.29
  -2   6  -2   95.20    7.73
  -2   6  -2  114.46    8.72
  -2   6  -1  616.58   25.88
  -2   6  -1  648.42   20.67
  -2   6  -1  593.83   25.73
  -2   6  -1  633.65   26.03
  -2   6   0  889.62   33.11
  -2   6   0  846.49   25.65
  -2   6   0  779.15   31.77
  -2   6   0  923.57   32.67
  -2   6   1  836.95   30.96
  -2   6   1  784.78   30.20
  -2   6   2  160.28   11.02
  -2   6   2  176.12   10.28
  -2   6   2  161.65    9.69
  -2   6   3    1.95    1.24
  -2   6   3    4.02    1.57
  -2   6   3    3.01    1.54
  -2   6   4  357.99   17.92
  -2   6   4  314.74   14.82
  -2   6   4  336.35   14.61
  -2   6   5 1409.36   49.76
  -2   6   5 1348.61   45.22
  -2   6   5 1365.94   44.41
  -2   6   6  179.28   12.39
  -2   6   6  175.00    9.30
  -2   6   6  175.73    8.51
  -2   6   7  475.55   22.58
  -2   6   7  430.35   15.52
  -2   6   8   -0.58    1.62
  -2   6   9   35.25    5.64
  -2   6  10  276.06   17.47
  -2   6  11  433.72   23.57
  -2   6  12  124.02   11.82
  -2   6  13   40.20    7.09
  -2   6  14   14.94    4.25
  -2   7 -10    9.38    3.16
  -2   7 -10    3.21    3.12
  -2   7  -9  187.60   13.08
  -2   7  -9  224.32   16.13
  -2   7  -8  244.70   14.91
  -2   7  -8  250.86   17.14
  -2   7  -7  110.76    9.38
  -2   7  -7  120.07   11.17
  -2   7  -6   33.04    4.51
  -2   7  -6   41.34    5.26
  -2   7  -6   40.75    6.33
  -2   7  -5   39.82    4.49
  -2   7  -5   36.67    4.99
  -2   7  -5   30.60    5.38
  -2   7  -4  239.72   11.13
  -2   7  -4  206.61   14.22
  -2   7  -3  144.12    7.40
  -2   7  -3  122.54   10.28
  -2   7  -2  354.35   12.92
  -2   7  -2  320.69   17.75
  -2   7  -1  105.35    4.46
  -2   7  -1  113.05    9.10
  -2   7   0   20.49    3.82
  -2   7   1  291.51   15.22
  -2   7   2  102.47    9.12
  -2   7   2  118.90    8.69
  -2   7   2  104.24    8.08
  -2   7   3  177.87   12.31
  -2   7   3  162.29   10.49
  -2   7   3  173.61   10.44
  -2   7   4  252.05   13.14
  -2   7   4  233.39   14.85
  -2   7   4  224.88   12.05
  -2   7   5   97.82    9.24
  -2   7   5  114.49    8.05
  -2   7   5   96.05    6.82
  -2   7   6   10.04    2.08
  -2   7   6   13.40    3.75
  -2   7   6   13.65    2.95
  -2   7   7   20.55    2.55
  -2   7   7   26.93    4.89
  -2   7   8  178.24   13.59
  -2   7   9   55.11    7.46
  -2   7  10  127.41   11.68
  -2   7  11   20.28    5.26
  -2   7  12    5.72    2.99
  -2   8  -8   14.86    4.80
  -2   8  -7    2.35    2.98
  -2   8  -6   93.95   10.33
  -2   8  -5  342.33   20.34
  -2   8  -4  209.76   14.92
  -2   8  -3  120.98   10.72
  -2   8  -2    3.88    2.68
  -2   8  -1   70.60    7.68
  -2   8   0  290.28   16.44
  -2   8   1  527.68   25.48
  -2   8   1  517.87   23.84
  -2   8   2  186.15   13.63
  -2   8   2  210.42   12.70
  -2   8   3   73.10    8.35
  -2   8   3   71.63    6.83
  -2   8   4   14.44    3.05
  -2   8   4   31.07    5.63
  -2   8   5  297.43   18.62
  -2   8   5  319.68   15.15
  -2   8   6  203.81   15.17
  -2   8   6  228.89   11.53
  -2   8   7  370.98   21.54
  -2   8   8   81.75    9.45
  -2   8   9    3.54    3.19
  -2   8  10   46.04    7.28
  -2   9  -5   14.25    4.51
  -2   9  -4    6.43    3.98
  -2   9  -3   16.56    4.59
  -2   9  -2   63.85    8.28
  -2   9  -1   68.64    8.09
  -2   9   0   63.46    7.69
  -2   9   1   12.81    3.56
  -2   9   1   13.12    4.18
  -2   9   2    0.32    2.09
  -2   9   2   -1.46    2.05
  -2   9   3   30.38    4.74
  -2   9   3   24.87    5.51
  -2   9   4   61.53    8.22
  -2   9   4   69.66    6.84
  -2   9   5  126.61   12.10
  -2   9   5  141.13    9.69
  -2   9   6   17.97    4.52
  -2   9   7    2.00    2.02
  -2   9   8   13.68    4.74
  -2  10  -3  134.67   12.77
  -2  10  -2  105.49   10.81
  -2  10  -1   33.34    6.34
  -2  10   0    7.04    3.31
  -2  10   0   20.01    4.89
  -2  10   1   82.08    9.13
  -2  10   1   75.31    9.50
  -2  10   2  145.78   13.24
  -2  10   2  157.95   12.25
  -2  10   3  152.69   13.84
  -2  10   3  144.37   11.43
  -2  11   0   44.93    7.38
  -2  11   1   25.42    5.99
  -1 -12  -6   74.05    8.85
  -1 -12  -5    2.70    3.30
  -1 -12  -4    4.00    3.52
  -1 -12  -3    2.64    2.01
  -1 -12  -2   26.35    5.76
  -1 -12  -1   54.91    7.98
  -1 -11  -8  103.76    9.52
  -1 -11  -7   27.95    5.32
  -1 -11  -6   -0.85    2.84
  -1 -11  -5   65.19    7.80
  -1 -11  -4  111.68   10.45
  -1 -11  -3  184.50   14.01
  -1 -11  -2   65.74    8.41
  -1 -11  -1    3.66    3.27
  -1 -11   0   28.18    5.52
  -1 -11   1  159.30   13.33
  -1 -11   2  161.38   13.74
  -1 -11   3   88.82   10.07
  -1 -10  -9   -0.30    1.69
  -1 -10  -8   -1.77    1.86
  -1 -10  -7   62.09    6.88
  -1 -10  -6   12.96    3.49
  -1 -10  -5   93.10    8.65
  -1 -10  -4   13.58    3.45
  -1 -10  -3    5.93    2.91
  -1 -10  -2   -0.60    2.43
  -1 -10  -1   15.84    4.18
  -1 -10   0   34.22    5.80
  -1 -10   1   67.02    8.21
  -1 -10   2   40.99    6.59
  -1 -10   3    7.38    3.06
  -1 -10   4    0.93    2.79
  -1 -10   5   44.96    7.24
  -1 -10   6   78.80    9.36
  -1  -9 -13   64.95    8.56
  -1  -9 -12   25.71    5.76
  -1  -9 -11   20.91    4.84
  -1  -9 -10   26.97    5.56
  -1  -9 -10   17.34    3.29
  -1  -9  -9   39.82    6.76
  -1  -9  -9   52.20    5.65
  -1  -9  -8  164.72   13.14
  -1  -9  -8  146.95   10.09
  -1  -9  -7  103.39   10.23
  -1  -9  -7   97.15    8.06
  -1  -9  -6   52.05    5.88
  -1  -9  -5   13.38    3.12
  -1  -9  -4   14.04    2.91
  -1  -9  -4   16.83    3.59
  -1  -9  -3   97.37    8.46
  -1  -9  -3   87.91    7.18
  -1  -9  -2  145.38   10.74
  -1  -9  -2  136.31    8.81
  -1  -9  -1  435.01   21.45
  -1  -9   0   32.68    5.22
  -1  -9   1   13.53    3.62
  -1  -9   2   90.06    7.74
  -1  -9   2   82.86    8.61
  -1  -9   3  100.62    8.19
  -1  -9   3  105.29    9.90
  -1  -9   3  108.43    6.09
  -1  -9   4  259.71   14.39
  -1  -9   4  312.82   18.18
  -1  -9   5  178.41   13.68
  -1  -9   6    4.99    3.07
  -1  -9   7    8.55    3.49
  -1  -9   8   70.32    8.79
  -1  -9   9  163.91   14.12
  -1  -8 -15   24.46    5.40
  -1  -8 -14   36.69    6.66
  -1  -8 -13   -3.05    3.24
  -1  -8 -12   -1.60    2.88
  -1  -8 -11   71.88    8.46
  -1  -8 -11   61.04    5.68
  -1  -8 -10   65.22    8.01
  -1  -8 -10   99.82    7.31
  -1  -8  -9   27.56    5.32
  -1  -8  -9   32.02    4.18
  -1  -8  -8   95.47    9.16
  -1  -8  -8   93.35    7.33
  -1  -8  -7   11.17    3.39
  -1  -8  -7    5.12    1.94
  -1  -8  -6   -1.94    2.14
  -1  -8  -6   -0.63    1.77
  -1  -8  -5  571.02   25.75
  -1  -8  -5  555.65   23.35
  -1  -8  -5  562.81   23.67
  -1  -8  -4  121.05    8.88
  -1  -8  -4  126.27    8.67
  -1  -8  -3   15.61    2.78
  -1  -8  -3   17.71    3.30
  -1  -8  -2    7.56    2.50
  -1  -8  -2   11.26    2.78
  -1  -8  -1    5.64    2.01
  -1  -8  -1    2.88    2.13
  -1  -8   0  204.76   11.78
  -1  -8   0  197.13   12.57
  -1  -8   1  181.76   10.94
  -1  -8   1  189.53   12.32
  -1  -8   2  101.02    7.57
  -1  -8   2   98.34    8.72
  -1  -8   3   -0.33    1.76
  -1  -8   3    2.12    1.90
  -1  -8   4   35.84    4.33
  -1  -8   4   36.44    5.59
  -1  -8   4   38.91    3.02
  -1  -8   5   10.68    2.58
  -1  -8   5    6.75    1.24
  -1  -8   5   13.09    3.47
  -1  -8   6   18.12    3.17
  -1  -8   6   21.73    2.08
  -1  -8   6   23.60    4.73
  -1  -8   7   67.44    8.14
  -1  -8   8  277.33   17.74
  -1  -8   9   80.17    9.16
  -1  -8  10    1.55    2.09
  -1  -8  11    5.51    3.11
  -1  -7 -15    3.53    3.05
  -1  -7 -14    6.24    3.56
  -1  -7 -13   88.97    9.12
  -1  -7 -12  165.98   12.62
  -1  -7 -12  191.99   10.16
  -1  -7 -11  376.73   20.07
  -1  -7 -11  388.72   16.66
  -1  -7 -10   72.63    7.68
  -1  -7 -10   87.43    6.35
  -1  -7 -10   79.66    6.21
  -1  -7  -9    0.01    1.39
  -1  -7  -9   -1.63    1.82
  -1  -7  -9    1.20    1.20
  -1  -7  -8  105.28    9.04
  -1  -7  -8  110.64    7.57
  -1  -7  -8  113.35    6.38
  -1  -7  -7  355.18   18.04
  -1  -7  -7  350.10   13.01
  -1  -7  -7  330.94   15.49
  -1  -7  -6  210.22   12.71
  -1  -7  -6  185.76    7.41
  -1  -7  -6  192.85   10.66
  -1  -7  -6  186.00   11.32
  -1  -7  -5 1027.10   39.70
  -1  -7  -5 1149.38   38.37
  -1  -7  -5 1056.54   38.25
  -1  -7  -4   55.36    6.04
  -1  -7  -4   51.49    5.12
  -1  -7  -4   55.26    5.24
  -1  -7  -3    4.78    2.03
  -1  -7  -3    3.19    1.63
  -1  -7  -3    4.85    2.08
  -1  -7  -2  268.04   13.70
  -1  -7  -1  998.40   36.15
  -1  -7  -1 1031.14   36.84
  -1  -7   0  530.87   21.26
  -1  -7   0  506.02   22.12
  -1  -7   1  554.79   21.95
  -1  -7   1  553.64   23.67
  -1  -7   2    2.28    1.35
  -1  -7   2   -0.42    1.82
  -1  -7   3  207.30   10.88
  -1  -7   3  210.86   12.88
  -1  -7   4  454.50   19.00
  -1  -7   4  492.07   22.39
  -1  -7   4  485.89   16.52
  -1  -7   5 1129.34   40.02
  -1  -7   5 1176.48   44.39
  -1  -7   5 1248.20   37.43
  -1  -7   6  125.68    7.82
  -1  -7   6  118.43    9.88
  -1  -7   6  127.55    6.02
  -1  -7   7   10.14    2.28
  -1  -7   7    8.18    2.68
  -1  -7   7   13.83    1.88
  -1  -7   8   20.81    3.05
  -1  -7   8   27.86    2.74
  -1  -7   8   26.96    5.00
  -1  -7   9  197.17   14.28
  -1  -7   9  225.90   10.37
  -1  -7  10  238.86   16.18
  -1  -7  11  234.25   16.35
  -1  -7  12   14.92    4.11
  -1  -7  13    3.20    3.23
  -1  -6 -15  104.32    9.77
  -1  -6 -14  161.50   11.96
  -1  -6 -13   21.98    4.24
  -1  -6 -12   11.23    3.12
  -1  -6 -12   12.55    2.29
  -1  -6 -11   66.64    7.02
  -1  -6 -11   76.47    5.77
  -1  -6 -11   74.66    6.49
  -1  -6 -10   98.34    8.37
  -1  -6 -10   96.46    6.53
  -1  -6 -10   91.25    6.86
  -1  -6  -9  141.47    9.99
  -1  -6  -9  144.20    8.15
  -1  -6  -9  120.50    7.69
  -1  -6  -8  224.52   12.90
  -1  -6  -8  209.79   10.08
  -1  -6  -8  208.05   10.55
  -1  -6  -7  155.72   10.36
  -1  -6  -7  147.71    7.57
  -1  -6  -7  164.38    8.91
  -1  -6  -7  173.93   10.63
  -1  -6  -6    1.48    0.80
  -1  -6  -6    1.12    1.94
  -1  -6  -6    0.13    1.37
  -1  -6  -6   -0.38    1.14
  -1  -6  -5   14.37    1.50
  -1  -6  -5    8.66    2.36
  -1  -6  -5   15.48    2.79
  -1  -6  -5   12.66    2.38
  -1  -6  -4  216.92   11.62
  -1  -6  -4  219.37   10.46
  -1  -6  -4  201.71   10.26
  -1  -6  -3  108.14    7.88
  -1  -6  -3  104.27    7.14
  -1  -6  -3  110.86    6.92
  -1  -6  -2  658.67   24.88
  -1  -6  -1  171.29    9.78
  -1  -6   0   47.48    4.49
  -1  -6   0   54.96    5.18
  -1  -6   1  176.04    9.22
  -1  -6   1  180.74    7.37
  -1  -6   1  189.33   10.74
  -1  -6   2  335.89   14.66
  -1  -6   2  363.22   13.51
  -1  -6   2  405.55   17.47
  -1  -6   3  226.08   10.71
  -1  -6   3  224.73   10.07
  -1  -6   3  233.35   12.81
  -1  -6   3  232.49    8.92
  -1  -6   4   95.57    6.14
  -1  -6   4   86.33    5.82
  -1  -6   4   93.61    7.69
  -1  -6   4   94.30    4.63
  -1  -6   5  579.02   21.69
  -1  -6   5  541.51   20.39
  -1  -6   5  523.82   23.62
  -1  -6   5  569.60   18.65
  -1  -6   6   48.71    4.18
  -1  -6   6   55.32    3.56
  -1  -6   6   46.89    5.69
  -1  -6   7   82.74    5.70
  -1  -6   7   83.42    7.84
  -1  -6   7   83.94    4.91
  -1  -6   8  354.60   15.06
  -1  -6   8  356.26   18.82
  -1  -6   8  383.19   14.45
  -1  -6   9   84.22    5.94
  -1  -6   9   79.13    8.08
  -1  -6   9   76.16    5.29
  -1  -6  10  217.63   14.48
  -1  -6  10  209.09   10.39
  -1  -6  11   11.07    3.60
  -1  -6  12   29.85    5.64
  -1  -6  13  118.15   11.09
  -1  -6  14  158.81   13.27
  -1  -6  15   74.98    9.32
  -1  -5 -16  129.17   12.46
  -1  -5 -15   67.09    8.96
  -1  -5 -15   94.75    8.38
  -1  -5 -14   12.85    3.26
  -1  -5 -13    1.60    1.60
  -1  -5 -13    3.15    1.82
  -1  -5 -12  180.28   11.32
  -1  -5 -12  158.90    8.95
  -1  -5 -11  660.65   27.01
  -1  -5 -11  689.10   24.55
  -1  -5 -11  633.61   26.25
  -1  -5 -10  451.11   20.25
  -1  -5 -10  451.32   17.93
  -1  -5 -10  465.11   19.54
  -1  -5  -9  130.36    9.05
  -1  -5  -9  134.63    8.29
  -1  -5  -9  139.76    7.79
  -1  -5  -8    0.46    1.10
  -1  -5  -8    0.60    1.32
  -1  -5  -8    3.33    1.73
  -1  -5  -8    0.67    0.94
  -1  -5  -7  255.19   13.03
  -1  -5  -7  252.32   11.07
  -1  -5  -7  240.07   11.16
  -1  -5  -7  255.45   13.31
  -1  -5  -6 1394.37   46.98
  -1  -5  -6 1366.64   43.65
  -1  -5  -6 1304.85   44.62
  -1  -5  -6 1428.08   42.58
  -1  -5  -6 1490.97   47.39
  -1  -5  -5 1800.49   55.39
  -1  -5  -5 1617.61   51.02
  -1  -5  -5 1673.25   53.08
  -1  -5  -5 1874.28   55.09
  -1  -5  -5 1617.13   51.13
  -1  -5  -4  714.37   26.14
  -1  -5  -4  702.58   22.01
  -1  -5  -4  684.36   24.57
  -1  -5  -4  600.54   24.47
  -1  -5  -4  750.16   23.59
  -1  -5  -3  254.07   12.32
  -1  -5  -3  245.11    8.45
  -1  -5  -3  264.94   11.56
  -1  -5  -3  261.02   11.32
  -1  -5  -3  247.96   10.56
  -1  -5  -2  201.57   10.72
  -1  -5  -2  223.02   10.46
  -1  -5  -2  209.45    9.69
  -1  -5  -1 1596.01   45.89
  -1  -5  -1 1477.19   50.14
  -1  -5  -1 1493.84   49.63
  -1  -5   0 1323.04   40.51
  -1  -5   0 1369.44   44.63
  -1  -5   0 1466.43   44.66
  -1  -5   1 3280.33   95.09
  -1  -5   1 3401.93   97.23
  -1  -5   2  696.23   23.39
  -1  -5   2  741.96   24.33
  -1  -5   2  675.63   26.13
  -1  -5   3    1.20    0.87
  -1  -5   3    1.60    0.95
  -1  -5   3    2.86    0.78
  -1  -5   3    0.99    1.17
  -1  -5   4  705.78   25.06
  -1  -5   4  720.02   24.27
  -1  -5   4  717.46   27.33
  -1  -5   4  709.68   22.54
  -1  -5   5  720.47   26.39
  -1  -5   5  706.00   24.72
  -1  -5   5  737.29   28.29
  -1  -5   5  757.09   23.66
  -1  -5   6 1353.28   45.06
  -1  -5   6 1341.36   42.59
  -1  -5   6 1393.94   41.72
  -1  -5   7  456.06   19.69
  -1  -5   7  474.56   17.38
  -1  -5   7  441.92   20.52
  -1  -5   7  464.33   16.80
  -1  -5   8   40.72    3.61
  -1  -5   8   39.25    4.98
  -1  -5   8   31.41    3.16
  -1  -5   9   69.40    5.20
  -1  -5   9   66.40    6.87
  -1  -5   9   68.94    5.12
  -1  -5  10  116.14    9.56
  -1  -5  10  116.71    7.38
  -1  -5  11  541.50   25.05
  -1  -5  12  130.05   10.70
  -1  -5  13   28.62    5.23
  -1  -5  14    7.13    3.34
  -1  -4 -17   16.58    4.35
  -1  -4 -16   -0.39    3.29
  -1  -4 -15   15.05    3.19
  -1  -4 -15   12.55    4.54
  -1  -4 -14  105.64    8.16
  -1  -4 -14  114.29   10.64
  -1  -4 -13  110.48    8.22
  -1  -4 -13  103.78    7.11
  -1  -4 -12  196.97   11.38
  -1  -4 -12  197.13   10.19
  -1  -4 -11    8.37    2.34
  -1  -4 -11    9.82    2.52
  -1  -4 -11   13.00    2.71
  -1  -4 -10    5.31    1.96
  -1  -4 -10    2.05    1.34
  -1  -4 -10    7.74    2.31
  -1  -4  -9  209.33   11.08
  -1  -4  -9  193.71   10.88
  -1  -4  -9  230.57   12.90
  -1  -4  -8   78.44    5.71
  -1  -4  -8   68.04    5.72
  -1  -4  -8   64.82    6.17
  -1  -4  -7  594.46   21.96
  -1  -4  -7  613.01   23.06
  -1  -4  -7  638.04   24.24
  -1  -4  -7  601.66   18.72
  -1  -4  -6  128.49    7.86
  -1  -4  -6  139.88    7.10
  -1  -4  -6  133.23    7.02
  -1  -4  -6  157.17    8.80
  -1  -4  -6  130.35    5.37
  -1  -4  -5   15.81    1.95
  -1  -4  -5   19.33    2.80
  -1  -4  -5   21.98    2.92
  -1  -4  -5   17.89    1.64
  -1  -4  -5   19.92    2.45
  -1  -4  -4  130.69    7.67
  -1  -4  -4  133.65    6.01
  -1  -4  -4  143.67    7.18
  -1  -4  -4  144.92    7.70
  -1  -4  -4  144.74    6.22
  -1  -4  -3  314.26   13.60
  -1  -4  -3  323.97   12.94
  -1  -4  -3  318.96   12.96
  -1  -4  -3  344.16   12.23
  -1  -4  -2  899.06   30.15
  -1  -4  -2  885.10   28.68
  -1  -4  -2  794.10   28.38
  -1  -4  -1  501.11   18.17
  -1  -4  -1  481.35   17.53
  -1  -4   0   96.26    4.10
  -1  -4   0  113.24    6.32
  -1  -4   0   87.82    5.57
  -1  -4   1   44.02    3.23
  -1  -4   1   42.59    2.74
  -1  -4   1   48.35    4.07
  -1  -4   1   47.41    3.95
  -1  -4   2  495.49   17.53
  -1  -4   2  528.17   17.76
  -1  -4   2  550.93   19.88
  -1  -4   2  512.37   19.58
  -1  -4   3  376.02   14.34
  -1  -4   3  369.90   13.56
  -1  -4   3  389.76   15.98
  -1  -4   3  385.54   12.41
  -1  -4   4  278.58   11.94
  -1  -4   4  268.94   10.54
  -1  -4   4  293.25   13.23
  -1  -4   4  283.36    9.87
  -1  -4   5  174.32    9.31
  -1  -4   5  180.23    7.90
  -1  -4   5  197.46   10.40
  -1  -4   5  188.72    7.57
  -1  -4   6   39.68    4.17
  -1  -4   6   44.18    3.32
  -1  -4   6   36.95    4.38
  -1  -4   6   39.48    3.07
  -1  -4   7    2.39    1.22
  -1  -4   7    5.40    1.27
  -1  -4   7    3.43    1.56
  -1  -4   7    4.72    1.15
  -1  -4   8  114.41    8.37
  -1  -4   8  131.69    8.86
  -1  -4   8  117.56    6.81
  -1  -4   9    8.72    2.37
  -1  -4   9   16.27    3.24
  -1  -4   9   10.35    2.00
  -1  -4  10  236.98   13.61
  -1  -4  11  230.07   13.73
  -1  -4  12   28.13    4.64
  -1  -4  13   13.15    3.41
  -1  -3 -17   37.70    6.57
  -1  -3 -16   92.29   10.36
  -1  -3 -15   70.71    8.49
  -1  -3 -14   72.67    8.26
  -1  -3 -14   73.98    6.15
  -1  -3 -13   78.80    6.30
  -1  -3 -13   75.72    8.18
  -1  -3 -13   80.86    4.25
  -1  -3 -13   68.63    5.93
  -1  -3 -13   77.79    4.12
  -1  -3 -12   13.94    1.64
  -1  -3 -12   13.75    1.61
  -1  -3 -12   18.00    2.94
  -1  -3 -12   13.46    3.53
  -1  -3 -12   17.21    2.84
  -1  -3 -12   16.84    3.33
  -1  -3 -11   50.11    3.12
  -1  -3 -11   50.59    4.76
  -1  -3 -11   52.01    5.45
  -1  -3 -11   50.45    4.55
  -1  -3 -11   55.17    3.20
  -1  -3 -10  406.67   13.85
  -1  -3 -10  402.61   16.80
  -1  -3 -10  429.04   18.66
  -1  -3 -10  424.59   18.32
  -1  -3 -10  405.44   13.80
  -1  -3  -9  353.31   12.14
  -1  -3  -9  357.57   15.05
  -1  -3  -9  354.79   16.07
  -1  -3  -9  359.80   15.95
  -1  -3  -9  372.90   17.34
  -1  -3  -8  154.79    8.35
  -1  -3  -8  160.24    9.00
  -1  -3  -8  154.77    8.90
  -1  -3  -8  153.76    6.06
  -1  -3  -8  171.26   10.09
  -1  -3  -7    1.57    1.08
  -1  -3  -7    1.18    0.51
  -1  -3  -7    2.41    1.17
  -1  -3  -7    2.77    1.40
  -1  -3  -7   -0.54    1.36
  -1  -3  -6  173.11    8.66
  -1  -3  -6  176.11    8.58
  -1  -3  -6  172.31    8.81
  -1  -3  -6  196.17    9.88
  -1  -3  -6  177.32    6.56
  -1  -3  -5   67.25    4.28
  -1  -3  -5   73.92    4.88
  -1  -3  -5   65.17    4.96
  -1  -3  -5   63.90    3.16
  -1  -3  -4  309.13   12.06
  -1  -3  -4  271.25   11.85
  -1  -3  -4  291.43   10.03
  -1  -3  -3  902.92   28.72
  -1  -3  -3  854.46   27.97
  -1  -3  -3  798.35   28.09
  -1  -3  -3  900.59   26.98
  -1  -3  -2   32.39    2.96
  -1  -3  -2   32.42    2.75
  -1  -3  -2   34.61    2.46
  -1  -3  -2   33.65    2.63
  -1  -3  -1  671.42   21.80
  -1  -3  -1  655.76   20.66
  -1  -3  -1  621.50   21.20
  -1  -3   0  750.82   23.27
  -1  -3   0  811.95   25.39
  -1  -3   0  747.16   24.93
  -1  -3   1  704.32   21.81
  -1  -3   1  640.99   21.57
  -1  -3   1  651.34   23.12
  -1  -3   2 1017.97   31.50
  -1  -3   2 1048.67   32.40
  -1  -3   2 1042.44   33.59
  -1  -3   2 1036.48   33.63
  -1  -3   3 1045.80   32.94
  -1  -3   3 1029.76   31.35
  -1  -3   3 1040.83   33.87
  -1  -3   3 1003.32   30.75
  -1  -3   3 1072.07   34.09
  -1  -3   4   19.62    2.46
  -1  -3   4   17.94    1.66
  -1  -3   4   21.43    1.74
  -1  -3   4   16.72    2.51
  -1  -3   5   39.20    3.77
  -1  -3   5   36.59    2.62
  -1  -3   5   42.08    3.93
  -1  -3   5   39.90    2.82
  -1  -3   6 1422.14   44.08
  -1  -3   6 1439.89   47.01
  -1  -3   6 1423.80   46.78
  -1  -3   6 1438.88   44.52
  -1  -3   7  918.08   33.00
  -1  -3   7  942.91   32.69
  -1  -3   7  920.86   30.70
  -1  -3   8  218.28   11.95
  -1  -3   8  194.50   11.01
  -1  -3   8  225.12   10.33
  -1  -3   9   63.83    6.12
  -1  -3   9   51.62    5.31
  -1  -3   9   62.81    5.10
  -1  -3  10   31.93    4.81
  -1  -3  10   41.24    4.74
  -1  -3  11  100.07    8.00
  -1  -3  12  326.73   16.70
  -1  -2 -18  146.15   13.19
  -1  -2 -17  144.38   13.00
  -1  -2 -16   44.33    6.87
  -1  -2 -15    2.84    2.37
  -1  -2 -14   31.77    5.52
  -1  -2 -14   29.85    3.35
  -1  -2 -14   30.26    3.37
  -1  -2 -14   26.64    4.01
  -1  -2 -13  219.10   10.68
  -1  -2 -13  238.90   14.43
  -1  -2 -13  218.40   11.79
  -1  -2 -13  222.94   10.23
  -1  -2 -12  752.10   26.49
  -1  -2 -12  690.52   30.10
  -1  -2 -12  765.65   29.48
  -1  -2 -12  733.54   27.62
  -1  -2 -12  784.56   25.89
  -1  -2 -11   58.13    4.60
  -1  -2 -11   64.99    6.47
  -1  -2 -11   64.40    5.27
  -1  -2 -11   57.88    5.63
  -1  -2 -11   60.13    4.24
  -1  -2 -10  111.70    8.30
  -1  -2 -10  106.27    6.26
  -1  -2 -10   93.84    7.55
  -1  -2 -10  104.22    7.34
  -1  -2 -10  101.20    6.55
  -1  -2 -10   99.91    8.07
  -1  -2  -9    1.18    0.94
  -1  -2  -9    0.55    1.17
  -1  -2  -9   -0.30    1.39
  -1  -2  -9    0.66    1.08
  -1  -2  -9    2.24    1.01
  -1  -2  -9    2.23    1.82
  -1  -2  -8   29.74    2.89
  -1  -2  -8   30.25    3.67
  -1  -2  -8   26.33    3.13
  -1  -2  -8   22.98    3.45
  -1  -2  -7  978.18   31.82
  -1  -2  -7  971.82   33.56
  -1  -2  -7 1000.28   32.95
  -1  -2  -7  988.14   34.37
  -1  -2  -6  890.35   28.83
  -1  -2  -6  917.28   30.20
  -1  -2  -6  876.59   29.48
  -1  -2  -6  876.21   30.75
  -1  -2  -5  327.79   12.34
  -1  -2  -5  330.95   11.31
  -1  -2  -5  336.05   12.99
  -1  -2  -5  334.20   12.74
  -1  -2  -5  342.34   13.77
  -1  -2  -4  221.04    7.96
  -1  -2  -4  227.42    9.01
  -1  -2  -4  226.64    9.08
  -1  -2  -4  234.28    9.85
  -1  -2  -3    1.09    0.69
  -1  -2  -3    1.75    0.53
  -1  -2  -3    2.46    0.90
  -1  -2  -2   38.36    2.66
  -1  -2  -2   35.59    2.17
  -1  -2  -2   34.60    2.51
  -1  -2  -1  694.27   23.37
  -1  -2  -1  771.57   22.91
  -1  -2  -1  746.75   23.08
  -1  -2   0 2018.20   57.79
  -1  -2   0 1853.37   57.46
  -1  -2   1 2334.71   66.82
  -1  -2   1 2146.82   67.38
  -1  -2   1 2293.42   67.57
  -1  -2   2    1.13    0.72
  -1  -2   2    1.58    0.87
  -1  -2   2    1.93    0.95
  -1  -2   3   35.83    1.90
  -1  -2   3   38.51    2.99
  -1  -2   3   34.10    2.87
  -1  -2   3   34.67    2.06
  -1  -2   3   28.50    2.69
  -1  -2   4  400.10   13.31
  -1  -2   4  401.44   15.27
  -1  -2   4  400.73   14.96
  -1  -2   4  426.88   13.90
  -1  -2   4  397.62   15.17
  -1  -2   5  170.84    8.69
  -1  -2   5  174.74    8.30
  -1  -2   5  177.57    7.60
  -1  -2   6 1783.70   56.06
  -1  -2   6 1787.32   54.93
  -1  -2   6 1703.26   54.03
  -1  -2   7   73.40    5.84
  -1  -2   7   67.59    5.10
  -1  -2   7   69.69    4.90
  -1  -2   8   20.02    2.90
  -1  -2   8   19.30    3.35
  -1  -2   9   24.52    3.26
  -1  -2   9   16.56    3.21
  -1  -2  10  201.30   10.87
  -1  -2  10  193.96   12.02
  -1  -2  11  182.77   10.60
  -1  -1 -18   99.20   10.66
  -1  -1 -17   11.10    4.33
  -1  -1 -16   10.04    3.67
  -1  -1 -15   43.08    6.18
  -1  -1 -15   40.56    4.53
  -1  -1 -14  138.29    6.96
  -1  -1 -14  135.28   10.76
  -1  -1 -14  136.13    9.53
  -1  -1 -14  152.74    8.95
  -1  -1 -13  432.11   16.07
  -1  -1 -13  421.42   20.85
  -1  -1 -13  423.82   19.95
  -1  -1 -13  442.86   19.28
  -1  -1 -13  455.27   18.18
  -1  -1 -12  649.62   21.71
  -1  -1 -12  609.54   26.22
  -1  -1 -12  589.97   24.96
  -1  -1 -12  620.53   24.51
  -1  -1 -12  640.63   23.45
  -1  -1 -11   20.39    2.26
  -1  -1 -11   22.97    2.93
  -1  -1 -11   20.49    3.62
  -1  -1 -11   21.88    3.48
  -1  -1 -11   27.22    3.60
  -1  -1 -10  220.71    9.19
  -1  -1 -10  197.01   11.74
  -1  -1 -10  227.89   12.66
  -1  -1 -10  222.85   11.36
  -1  -1 -10  217.15   10.99
  -1  -1 -10  229.66   12.69
  -1  -1  -9 1139.03   35.92
  -1  -1  -9 1177.66   39.93
  -1  -1  -9 1164.28   40.34
  -1  -1  -9 1079.57   38.16
  -1  -1  -9 1183.31   38.32
  -1  -1  -9 1150.52   40.24
  -1  -1  -8 1897.57   57.14
  -1  -1  -8 1901.38   60.75
  -1  -1  -8 1951.55   61.21
  -1  -1  -8 1891.03   59.34
  -1  -1  -8 1806.40   58.99
  -1  -1  -8 1946.22   61.23
  -1  -1  -7 1532.54   50.73
  -1  -1  -7 1577.79   47.79
  -1  -1  -7 1559.87   50.97
  -1  -1  -7 1575.96   49.55
  -1  -1  -7 1643.18   49.78
  -1  -1  -7 1568.39   51.14
  -1  -1  -6  947.45   28.88
  -1  -1  -6  946.42   31.50
  -1  -1  -6  921.09   31.39
  -1  -1  -6  904.84   30.09
  -1  -1  -6  914.52   30.32
  -1  -1  -6  937.18   31.65
  -1  -1  -5  786.00   24.53
  -1  -1  -5  864.43   27.08
  -1  -1  -5  785.49   26.59
  -1  -1  -5  788.64   25.50
  -1  -1  -5  746.93   26.66
  -1  -1  -4 2822.25   88.21
  -1  -1  -4 3005.98   86.39
  -1  -1  -4 2989.64   87.05
  -1  -1  -4 2923.82   88.34
  -1  -1  -3 6496.01  185.21
  -1  -1  -3 6311.27  186.70
  -1  -1  -3 6386.58  185.45
  -1  -1  -3 6366.18  186.66
  -1  -1  -2 2175.73   66.55
  -1  -1  -2 2317.28   66.56
  -1  -1  -1  661.88   20.63
  -1  -1  -1  709.48   20.91
  -1  -1  -1  660.21   20.70
  -1  -1   0  171.39    6.16
  -1  -1   1  355.25   12.19
  -1  -1   1  417.02   12.58
  -1  -1   2 3847.70  112.95
  -1  -1   2 3900.00  112.35
  -1  -1   2 3824.51  112.67
  -1  -1   3 2234.87   66.31
  -1  -1   3 2226.22   65.34
  -1  -1   3 2169.75   66.41
  -1  -1   3 2189.43   65.66
  -1  -1   4 1484.63   45.36
  -1  -1   4 1432.27   44.00
  -1  -1   4 1482.31   45.48
  -1  -1   4 1419.58   44.28
  -1  -1   5    2.17    1.35
  -1  -1   5    2.39    1.35
  -1  -1   5    1.28    0.81
  -1  -1   6  141.28    6.86
  -1  -1   6  158.74    8.28
  -1  -1   6  133.86    7.84
  -1  -1   7  456.26   18.70
  -1  -1   7  459.60   17.05
  -1  -1   7  490.46   19.16
  -1  -1   8  322.58   14.87
  -1  -1   8  311.83   13.07
  -1  -1   8  329.20   15.08
  -1  -1   9  875.70   32.01
  -1  -1   9  843.10   31.98
  -1  -1  10    6.92    3.01
  -1  -1  10    5.98    2.13
  -1   0 -18   71.62    9.17
  -1   0 -17   55.68    7.70
  -1   0 -16  193.46   14.00
  -1   0 -15   34.05    5.55
  -1   0 -15   27.57    4.22
  -1   0 -14    0.95    1.62
  -1   0 -14    1.82    1.40
  -1   0 -13  119.88    5.03
  -1   0 -13  117.53    9.36
  -1   0 -13  124.93    8.96
  -1   0 -13  114.91    8.81
  -1   0 -13  114.00    8.14
  -1   0 -12  160.66    6.59
  -1   0 -12  169.12   10.98
  -1   0 -12  174.33   10.53
  -1   0 -12  166.00   10.34
  -1   0 -12  172.08    9.88
  -1   0 -11  254.61    9.18
  -1   0 -11  246.79   13.43
  -1   0 -11  259.18   13.08
  -1   0 -11  237.50   12.68
  -1   0 -11  237.37   12.11
  -1   0 -10  185.81    7.11
  -1   0 -10  177.61   10.59
  -1   0 -10  177.39   11.18
  -1   0 -10  184.96   10.23
  -1   0 -10  183.44   10.09
  -1   0 -10  173.49    9.56
  -1   0 -10  182.08   10.99
  -1   0  -9   56.51    3.00
  -1   0  -9   57.32    5.28
  -1   0  -9   58.66    5.69
  -1   0  -9   49.69    4.70
  -1   0  -9   48.03    4.52
  -1   0  -9   60.85    5.60
  -1   0  -8   44.23    2.46
  -1   0  -8   41.05    4.24
  -1   0  -8   48.35    4.78
  -1   0  -8   47.24    4.30
  -1   0  -8   41.40    3.91
  -1   0  -8   49.76    4.79
  -1   0  -7  199.21    6.99
  -1   0  -7  189.89   10.13
  -1   0  -7  202.98    9.99
  -1   0  -7  201.41    9.74
  -1   0  -7  206.14    9.32
  -1   0  -7  194.92   10.08
  -1   0  -6  915.17   26.90
  -1   0  -6  895.32   30.83
  -1   0  -6  875.57   30.26
  -1   0  -6  885.03   29.96
  -1   0  -6  897.27   29.35
  -1   0  -6  889.45   30.52
  -1   0  -5  329.72   13.38
  -1   0  -5  332.52   13.16
  -1   0  -5  357.72   13.17
  -1   0  -5  316.26   12.12
  -1   0  -5  350.67   13.44
  -1   0  -4   17.27    2.13
  -1   0  -4   25.86    2.41
  -1   0  -4   26.07    2.02
  -1   0  -4   29.54    2.66
  -1   0  -3   17.99    1.94
  -1   0  -3   20.43    1.49
  -1   0  -3   17.14    1.85
  -1   0  -3   18.24    1.91
  -1   0  -2  228.11    8.67
  -1   0  -2  235.29    8.70
  -1   0  -2  248.75    8.82
  -1   0  -1  587.78   18.41
  -1   0   0 2091.31   59.64
  -1   0   0 2106.79   59.27
  -1   0   1  663.82   21.17
  -1   0   1  658.13   20.62
  -1   0   1  745.74   21.25
  -1   0   2  141.83    5.92
  -1   0   2  158.15    5.98
  -1   0   2  142.72    6.07
  -1   0   2  142.81    5.17
  -1   0   3 1206.09   38.08
  -1   0   3 1293.81   38.39
  -1   0   3 1234.53   38.60
  -1   0   3 1241.23   36.97
  -1   0   4    7.67    1.27
  -1   0   4    9.05    1.07
  -1   0   4   12.38    1.88
  -1   0   4    9.00    1.00
  -1   0   4    4.61    1.28
  -1   0   5  678.14   21.87
  -1   0   5  741.20   24.51
  -1   0   5  713.37   24.18
  -1   0   6 2056.61   63.85
  -1   0   6 2029.85   63.72
  -1   0   7  419.15   17.04
  -1   0   7  402.18   16.92
  -1   0   8  596.93   23.19
  -1   0   8  593.11   23.20
  -1   0   9    1.00    1.56
  -1   0   9    3.15    1.52
  -1   0  10   68.08    6.38
  -1   0  10   72.85    6.67
  -1   0  11    3.25    1.88
  -1   0  12 1082.83   40.74
  -1   0  13  180.07   12.51
  -1   0  14   46.14    6.38
  -1   1 -17   16.09    4.92
  -1   1 -16   28.07    5.39
  -1   1 -16   31.24    4.91
  -1   1 -15   19.59    4.36
  -1   1 -15   20.44    4.06
  -1   1 -14   72.22    7.38
  -1   1 -14   69.61    6.91
  -1   1 -13  220.59   13.26
  -1   1 -13  217.88   12.78
  -1   1 -12  404.11   19.15
  -1   1 -12  393.70   19.01
  -1   1 -12  421.79   19.06
  -1   1 -12  427.08   19.02
  -1   1 -11  102.36    7.96
  -1   1 -11  102.04    7.95
  -1   1 -11  118.64    8.24
  -1   1 -11  109.69    8.47
  -1   1 -11  109.08    7.93
  -1   1 -10   14.26    2.75
  -1   1 -10   12.78    2.80
  -1   1 -10   12.42    2.66
  -1   1 -10   14.98    2.85
  -1   1 -10   11.61    2.62
  -1   1  -9   60.48    5.36
  -1   1  -9   65.91    6.02
  -1   1  -9   62.93    5.57
  -1   1  -9   53.06    4.90
  -1   1  -9   62.30    5.66
  -1   1  -8  299.19   13.74
  -1   1  -8  314.28   14.83
  -1   1  -8  324.73   14.34
  -1   1  -8  296.17   13.29
  -1   1  -8  311.11   14.19
  -1   1  -7  566.06   21.53
  -1   1  -7  504.04   20.12
  -1   1  -7  526.50   19.78
  -1   1  -7  543.46   20.76
  -1   1  -7  576.66   20.93
  -1   1  -6 1479.83   49.24
  -1   1  -6 1525.88   48.58
  -1   1  -6 1572.23   49.17
  -1   1  -6 1555.92   48.03
  -1   1  -6 1513.41   48.74
  -1   1  -5  148.03    7.70
  -1   1  -5  144.07    7.30
  -1   1  -5  135.25    7.44
  -1   1  -5  149.32    6.97
  -1   1  -5  147.61    7.42
  -1   1  -4  197.45    8.98
  -1   1  -4  211.41    8.94
  -1   1  -4  206.36    9.23
  -1   1  -4  209.63    8.94
  -1   1  -3  118.43    4.42
  -1   1  -3  125.07    6.19
  -1   1  -3  129.11    5.95
  -1   1  -2  263.04    9.20
  -1   1  -2  292.97   10.72
  -1   1  -2  306.73   10.64
  -1   1  -1  745.36   25.96
  -1   1  -1  860.32   26.86
  -1   1   0 2550.32   74.49
  -1   1   0 2467.93   74.25
  -1   1   0 2572.84   74.72
  -1   1   1   34.94    2.47
  -1   1   1   33.62    2.42
  -1   1   1   31.36    1.85
  -1   1   2   13.16    1.65
  -1   1   2   14.57    1.82
  -1   1   2   11.70    1.21
  -1   1   3  520.75   18.06
  -1   1   3  530.10   18.28
  -1   1   3  528.86   17.40
  -1   1   4 1826.35   56.74
  -1   1   4 1839.67   57.15
  -1   1   4 1890.78   56.40
  -1   1   5 1085.73   34.81
  -1   1   5 1092.71   35.44
  -1   1   5 1043.16   34.56
  -1   1   6  215.32   10.06
  -1   1   6  236.78   10.97
  -1   1   6  232.32   10.51
  -1   1   7    4.26    1.40
  -1   1   7    0.54    1.04
  -1   1   7    1.72    1.44
  -1   1   8  193.90    9.59
  -1   1   8  183.48   10.31
  -1   1   8  169.99    9.79
  -1   1   9  963.12   33.49
  -1   1   9  980.61   34.99
  -1   1   9  976.08   35.26
  -1   1  10  353.85   16.78
  -1   1  10  339.19   16.68
  -1   1  11   27.23    4.26
  -1   1  12  120.11    9.56
  -1   1  13   40.98    5.77
  -1   1  14   34.62    5.53
  -1   1  15  125.83   11.09
  -1   1  16   97.97   10.25
  -1   1  17   87.64    9.78
  -1   2 -16   87.82    8.78
  -1   2 -16   98.41    9.46
  -1   2 -15  160.28   11.80
  -1   2 -15  170.36   12.38
  -1   2 -14  107.90    9.09
  -1   2 -14  111.99    9.50
  -1   2 -13    6.66    2.33
  -1   2 -13   11.30    2.85
  -1   2 -12   -0.61    1.49
  -1   2 -12    2.72    1.93
  -1   2 -12   -0.42    1.34
  -1   2 -11  336.56   16.54
  -1   2 -11  351.66   16.88
  -1   2 -11  349.40   17.34
  -1   2 -11  384.36   17.89
  -1   2 -10  234.75   12.68
  -1   2 -10  263.50   14.00
  -1   2 -10  252.46   13.15
  -1   2 -10  259.92   13.78
  -1   2 -10  271.22   13.82
  -1   2  -9  336.32   10.84
  -1   2  -9  327.84   10.81
  -1   2  -9  384.70   17.39
  -1   2  -9  378.40   15.91
  -1   2  -9  384.85   16.98
  -1   2  -9  369.69   15.87
  -1   2  -9  371.24   16.60
  -1   2  -9  393.57   16.62
  -1   2  -8  187.24    6.83
  -1   2  -8  208.03    7.00
  -1   2  -8  197.06   10.21
  -1   2  -8  203.74   11.31
  -1   2  -8  188.13   10.14
  -1   2  -8  192.79   10.94
  -1   2  -8  189.52   10.37
  -1   2  -7    0.36    0.44
  -1   2  -7    0.16    1.21
  -1   2  -7   -0.05    1.04
  -1   2  -7    1.52    1.19
  -1   2  -7    0.23    1.20
  -1   2  -7    3.06    1.46
  -1   2  -6  143.25    5.67
  -1   2  -6  141.48    8.26
  -1   2  -6  146.04    7.84
  -1   2  -6  152.61    8.69
  -1   2  -6  141.58    7.77
  -1   2  -5  948.20   30.29
  -1   2  -5 1069.41   34.22
  -1   2  -5 1003.05   33.36
  -1   2  -5 1036.36   33.03
  -1   2  -4  625.98   19.97
  -1   2  -4  659.93   22.81
  -1   2  -4  606.89   21.71
  -1   2  -4  609.34   21.67
  -1   2  -3   74.82    3.90
  -1   2  -3   79.50    5.15
  -1   2  -3   75.28    4.69
  -1   2  -3   72.13    4.39
  -1   2  -2   84.85    4.39
  -1   2  -2   92.69    5.35
  -1   2  -2   86.85    4.98
  -1   2  -1  622.70   21.21
  -1   2  -1  675.46   22.01
  -1   2  -1  655.20   21.78
  -1   2   0  317.58   12.03
  -1   2   0  315.77   11.87
  -1   2   0  335.93   12.34
  -1   2   1  112.49    5.59
  -1   2   1   88.04    4.54
  -1   2   2   34.93    3.05
  -1   2   2   38.62    3.22
  -1   2   2   37.03    2.36
  -1   2   2   31.80    1.92
  -1   2   3   24.36    2.65
  -1   2   3   25.95    2.82
  -1   2   3   23.82    1.70
  -1   2   3   23.66    1.89
  -1   2   4   25.42    2.86
  -1   2   4   26.93    3.02
  -1   2   4   29.41    2.43
  -1   2   5  127.34    7.10
  -1   2   5  114.97    6.98
  -1   2   5  113.16    6.09
  -1   2   6  797.14   28.51
  -1   2   6  845.29   29.18
  -1   2   6  816.03   27.81
  -1   2   7    5.93    1.78
  -1   2   7    2.69    1.51
  -1   2   7    6.85    1.76
  -1   2   8  274.48   13.05
  -1   2   8  273.68   13.75
  -1   2   8  282.84   13.07
  -1   2   9   88.17    6.63
  -1   2   9   80.46    6.91
  -1   2   9   80.54    6.54
  -1   2  10  127.54    8.45
  -1   2  10  123.55    9.11
  -1   2  11   21.95    3.64
  -1   2  11   25.28    4.09
  -1   2  12   74.21    7.54
  -1   2  13  177.26   12.61
  -1   2  14   60.50    7.34
  -1   2  15   48.41    7.05
  -1   2  16    4.98    3.20
  -1   2  17    0.85    3.11
  -1   2  18   95.72   10.89
  -1   3 -17   74.20    9.35
  -1   3 -16  130.70   11.78
  -1   3 -15   26.41    4.79
  -1   3 -15   22.73    5.20
  -1   3 -14    6.57    2.52
  -1   3 -14    7.77    3.79
  -1   3 -13   53.32    5.99
  -1   3 -13   46.09    6.31
  -1   3 -12  305.28   15.68
  -1   3 -12  299.91   16.88
  -1   3 -11  705.37   27.36
  -1   3 -11  660.36   27.56
  -1   3 -11  662.12   28.46
  -1   3 -11  710.98   27.98
  -1   3 -10  281.70    9.37
  -1   3 -10  275.03    9.26
  -1   3 -10  260.03   13.67
  -1   3 -10  259.50   14.08
  -1   3 -10  269.38   15.00
  -1   3  -9    6.37    1.05
  -1   3  -9    6.88    2.34
  -1   3  -9    4.23    1.84
  -1   3  -9    5.03    2.11
  -1   3  -8   39.55    2.74
  -1   3  -8   50.21    5.18
  -1   3  -8   41.06    4.44
  -1   3  -8   49.22    5.43
  -1   3  -8   45.37    4.75
  -1   3  -8   42.49    5.03
  -1   3  -7 1163.49   37.37
  -1   3  -7 1251.48   41.80
  -1   3  -7 1332.95   41.12
  -1   3  -7 1248.82   42.56
  -1   3  -7 1123.89   41.71
  -1   3  -6 1724.63   53.13
  -1   3  -6 1751.52   57.44
  -1   3  -6 1799.42   55.85
  -1   3  -6 1738.18   56.27
  -1   3  -5 1660.97   53.22
  -1   3  -5 1852.08   57.22
  -1   3  -5 1752.22   55.37
  -1   3  -5 1832.22   55.75
  -1   3  -4   48.87    3.53
  -1   3  -4   52.33    4.09
  -1   3  -4   54.93    4.36
  -1   3  -4   50.33    4.67
  -1   3  -3   11.72    1.73
  -1   3  -3   14.35    2.19
  -1   3  -3   12.12    1.80
  -1   3  -3   12.46    2.30
  -1   3  -2 1710.77   53.50
  -1   3  -2 1854.62   52.71
  -1   3  -1 3296.87   99.33
  -1   3  -1 3244.95   99.75
  -1   3  -1 3181.10   99.48
  -1   3  -1 3435.04   97.33
  -1   3   0 1453.07   43.13
  -1   3   0 1255.96   42.30
  -1   3   1  877.72   29.34
  -1   3   1  858.48   28.33
  -1   3   2    6.44    1.56
  -1   3   2    5.47    0.68
  -1   3   2    7.41    1.67
  -1   3   2    6.45    1.28
  -1   3   3  417.10   16.34
  -1   3   3  381.48   13.16
  -1   3   3  426.64   16.39
  -1   3   3  425.98   14.33
  -1   3   3  402.28   13.83
  -1   3   4  359.90   14.76
  -1   3   4  343.07   12.14
  -1   3   4  363.26   14.84
  -1   3   4  351.10   12.18
  -1   3   4  320.40   11.37
  -1   3   5 1073.34   34.59
  -1   3   5 1026.84   31.76
  -1   3   5 1031.95   34.49
  -1   3   5  962.79   29.24
  -1   3   6 1417.59   46.30
  -1   3   6 1389.56   46.32
  -1   3   6 1368.54   43.93
  -1   3   7  159.75    9.46
  -1   3   7  157.68    9.61
  -1   3   7  159.41    8.35
  -1   3   8    3.07    1.88
  -1   3   8    0.48    1.45
  -1   3   8    1.36    1.19
  -1   3   9   19.37    3.45
  -1   3   9   17.84    3.31
  -1   3  10  337.41   16.58
  -1   3  10  355.34   17.63
  -1   3  11  304.70   15.47
  -1   3  11  282.26   15.97
  -1   3  12  338.36   16.98
  -1   3  12  320.12   17.83
  -1   3  13   32.18    5.23
  -1   3  14    5.30    2.71
  -1   3  15   64.81    8.15
  -1   3  16  107.98   10.97
  -1   3  17   70.62    9.08
  -1   4 -16   -0.60    2.85
  -1   4 -15  109.75   11.04
  -1   4 -14  125.55    9.95
  -1   4 -14  136.84   12.00
  -1   4 -13   33.39    4.80
  -1   4 -13   32.95    5.78
  -1   4 -12    2.68    1.89
  -1   4 -12    5.72    2.67
  -1   4 -11    7.91    2.29
  -1   4 -11    7.71    2.77
  -1   4 -11    9.42    1.24
  -1   4 -10   69.28    3.96
  -1   4 -10   70.23    6.36
  -1   4 -10   64.53    6.66
  -1   4 -10   64.51    6.97
  -1   4  -9   43.67    5.58
  -1   4  -9   41.87    3.18
  -1   4  -9   40.23    4.58
  -1   4  -9   50.83    5.63
  -1   4  -8   99.51    7.30
  -1   4  -8  103.53    7.93
  -1   4  -8   98.90    5.54
  -1   4  -8  103.02    8.48
  -1   4  -7  132.31    6.90
  -1   4  -7  151.31    8.79
  -1   4  -7  120.70    8.42
  -1   4  -7  133.12    9.52
  -1   4  -7  142.46    9.76
  -1   4  -6   39.02    4.04
  -1   4  -6   36.33    4.09
  -1   4  -6   34.82    3.19
  -1   4  -6   37.26    4.66
  -1   4  -6   37.35    4.60
  -1   4  -5   88.17    5.50
  -1   4  -5   92.86    6.26
  -1   4  -5   81.27    5.83
  -1   4  -5   76.53    6.67
  -1   4  -5   84.05    6.92
  -1   4  -4   14.91    2.22
  -1   4  -4   15.46    2.50
  -1   4  -4   13.56    2.69
  -1   4  -4   12.05    2.04
  -1   4  -4   12.49    2.71
  -1   4  -3  147.89    7.94
  -1   4  -3  159.68    9.37
  -1   4  -3  148.65    8.25
  -1   4  -3  147.93    7.28
  -1   4  -2  322.42   13.67
  -1   4  -2  367.81   15.07
  -1   4  -2  325.34   13.92
  -1   4  -2  312.44   11.96
  -1   4  -1  504.24   19.95
  -1   4  -1  572.55   17.51
  -1   4  -1  471.82   19.96
  -1   4   0    0.88    0.37
  -1   4   0   -0.33    1.09
  -1   4   0   -0.27    0.95
  -1   4   1   29.13    3.45
  -1   4   1   34.39    3.36
  -1   4   1   27.94    3.04
  -1   4   2  165.72    9.40
  -1   4   2  163.02    8.30
  -1   4   2  196.53    8.57
  -1   4   3  229.40   12.01
  -1   4   3  249.72   12.24
  -1   4   3  237.87   10.44
  -1   4   3  272.20   10.41
  -1   4   4  282.54   13.63
  -1   4   4  259.35    9.80
  -1   4   4  291.58   13.64
  -1   4   4  294.48   11.42
  -1   4   4  299.13   10.82
  -1   4   5  552.29   21.74
  -1   4   5  525.63   21.56
  -1   4   5  521.42   17.21
  -1   4   6   28.71    3.96
  -1   4   6   23.62    3.58
  -1   4   6   21.54    1.34
  -1   4   7   78.79    6.74
  -1   4   7   72.22    6.49
  -1   4   8  189.67   11.48
  -1   4   8  191.93   11.69
  -1   4   9  176.96   11.17
  -1   4   9  174.92   11.37
  -1   4  10  490.21   22.70
  -1   4  11   22.53    4.27
  -1   4  12   14.21    3.65
  -1   4  13   81.28    8.66
  -1   4  14   96.01    9.82
  -1   4  15  148.50   12.92
  -1   4  16   86.98    9.87
  -1   4  17    4.63    3.20
  -1   5 -14   38.78    6.50
  -1   5 -13    4.69    2.37
  -1   5 -13    1.55    3.71
  -1   5 -12   32.87    4.65
  -1   5 -12   31.95    5.88
  -1   5 -11  165.20   10.74
  -1   5 -11  157.78   12.56
  -1   5 -10  191.25   11.58
  -1   5 -10  216.82   14.31
  -1   5  -9   32.85    4.34
  -1   5  -9   38.48    5.78
  -1   5  -9   31.42    3.22
  -1   5  -8  146.51    9.21
  -1   5  -8  136.43    9.59
  -1   5  -8  133.53    7.61
  -1   5  -8  140.07   10.60
  -1   5  -7   44.37    4.68
  -1   5  -7   34.01    4.20
  -1   5  -7   29.31    4.94
  -1   5  -7   36.07    3.66
  -1   5  -6    3.48    1.70
  -1   5  -6   -0.44    1.27
  -1   5  -6   -0.19    1.19
  -1   5  -6    1.93    1.93
  -1   5  -5  650.79   24.08
  -1   5  -5  635.65   24.66
  -1   5  -5  640.54   24.09
  -1   5  -5  689.82   27.13
  -1   5  -5  662.13   26.91
  -1   5  -4  247.51   12.00
  -1   5  -4  257.65   12.49
  -1   5  -4  237.11   11.15
  -1   5  -4  278.53   14.09
  -1   5  -4  259.90   13.80
  -1   5  -3  158.43    8.89
  -1   5  -3  152.26    9.00
  -1   5  -3  134.04    7.21
  -1   5  -3  160.25    9.87
  -1   5  -3  174.72   10.27
  -1   5  -2   32.08    2.65
  -1   5  -2   29.68    3.66
  -1   5  -2   27.29    3.78
  -1   5  -2   30.13    3.96
  -1   5  -1    0.63    0.54
  -1   5  -1    0.42    1.49
  -1   5  -1   -0.55    1.24
  -1   5  -1    0.21    1.36
  -1   5   0  319.81   14.32
  -1   5   0  279.39    9.31
  -1   5   0  339.03   14.40
  -1   5   0  300.54   13.60
  -1   5   1  752.18   28.08
  -1   5   1  781.12   27.38
  -1   5   1  708.28   26.51
  -1   5   2  691.38   26.07
  -1   5   2  661.62   24.27
  -1   5   2  645.31   23.77
  -1   5   3  134.33    8.88
  -1   5   3  124.65    8.57
  -1   5   3  141.79    7.73
  -1   5   3  116.95    6.85
  -1   5   4    4.44    1.39
  -1   5   4    4.98    1.87
  -1   5   4    4.80    1.85
  -1   5   4    4.16    1.35
  -1   5   5  333.24   16.06
  -1   5   5  293.78   12.89
  -1   5   5  304.97   15.58
  -1   5   5  336.40   12.27
  -1   5   6  675.75   25.56
  -1   5   6  626.72   25.09
  -1   5   6  559.03   19.08
  -1   5   7  668.03   26.99
  -1   5   7  625.83   26.72
  -1   5   8  114.73    9.10
  -1   5   9   52.16    6.17
  -1   5  10  117.48    9.77
  -1   5  11  286.25   16.89
  -1   5  12  161.90   12.62
  -1   5  13  105.49   10.22
  -1   5  14   41.47    6.81
  -1   5  15   -5.47    3.16
  -1   5  16   24.99    5.63
  -1   6 -13  112.76   11.61
  -1   6 -12   85.99    9.90
  -1   6 -11   56.94    6.22
  -1   6 -11   57.38    8.06
  -1   6 -10    8.73    2.70
  -1   6 -10   15.98    4.46
  -1   6  -9    6.73    2.06
  -1   6  -9    4.15    2.85
  -1   6  -8  136.56    9.46
  -1   6  -8  147.82    8.84
  -1   6  -8  175.70   12.54
  -1   6  -7  329.78   15.73
  -1   6  -7  305.71   15.49
  -1   6  -7  316.62   14.65
  -1   6  -7  321.23   17.91
  -1   6  -6   20.58    3.37
  -1   6  -6   20.43    3.20
  -1   6  -6   17.50    3.00
  -1   6  -6   21.62    4.22
  -1   6  -5  242.47   12.81
  -1   6  -5  225.57   11.50
  -1   6  -5  250.84   12.69
  -1   6  -5  246.98   14.47
  -1   6  -4   -0.13    0.99
  -1   6  -4    1.31    1.44
  -1   6  -4    0.91    1.71
  -1   6  -3   56.41    4.17
  -1   6  -3   55.95    5.53
  -1   6  -3   65.59    6.40
  -1   6  -2  116.17    8.21
  -1   6  -2  103.08    5.47
  -1   6  -2  133.46    9.18
  -1   6  -2  112.07    8.42
  -1   6  -1  402.20   17.41
  -1   6  -1  336.18   12.01
  -1   6  -1  412.52   17.85
  -1   6  -1  344.84   16.55
  -1   6   0   12.12    2.62
  -1   6   0   15.15    3.03
  -1   6   0   12.39    2.77
  -1   6   1   44.56    5.08
  -1   6   1   37.38    4.25
  -1   6   1   36.69    4.45
  -1   6   2    4.64    1.89
  -1   6   2    5.38    1.82
  -1   6   2    3.82    1.60
  -1   6   3   37.97    4.86
  -1   6   3   38.67    4.99
  -1   6   3   38.64    4.22
  -1   6   3   34.57    3.77
  -1   6   4   21.54    2.84
  -1   6   4   20.51    3.61
  -1   6   4   17.76    2.87
  -1   6   5  146.19    8.48
  -1   6   5  152.11   10.52
  -1   6   5  139.50    7.44
  -1   6   6  191.74   12.56
  -1   6   6  207.98    8.92
  -1   6   7    3.96    0.94
  -1   6   7    3.62    1.61
  -1   6   8   71.98    7.48
  -1   6   9    2.25    2.14
  -1   6  10  138.48   11.19
  -1   6  11  196.83   14.10
  -1   6  12   88.25    9.47
  -1   6  13   11.47    4.22
  -1   6  14    6.23    3.63
  -1   6  15   28.06    5.88
  -1   7 -11   44.23    7.11
  -1   7 -10   38.58    5.06
  -1   7 -10   54.97    7.79
  -1   7  -9  145.50   10.36
  -1   7  -9  153.77   13.09
  -1   7  -8  271.58   14.65
  -1   7  -8  233.02   16.52
  -1   7  -7   81.74    7.28
  -1   7  -7   70.95    6.62
  -1   7  -7   73.16    8.41
  -1   7  -7   63.72    6.25
  -1   7  -6    1.07    1.95
  -1   7  -6    0.46    1.63
  -1   7  -6   -1.64    2.32
  -1   7  -5   71.41    5.70
  -1   7  -5   61.49    6.18
  -1   7  -5   55.10    6.86
  -1   7  -4  270.25   12.09
  -1   7  -4  273.14   14.50
  -1   7  -4  261.24   15.65
  -1   7  -3  197.56    8.92
  -1   7  -3  180.68   11.51
  -1   7  -3  178.66   12.21
  -1   7  -2  335.76   12.30
  -1   7  -2  335.82   16.95
  -1   7  -2  319.53   17.13
  -1   7  -1  182.29   11.64
  -1   7   0    3.41    1.97
  -1   7   1  185.30   11.69
  -1   7   1  218.91   12.10
  -1   7   2  486.54   20.64
  -1   7   2  432.87   19.50
  -1   7   3  356.52   18.78
  -1   7   3  357.51   17.18
  -1   7   3  400.44   17.02
  -1   7   4  293.83   16.70
  -1   7   4  324.00   15.28
  -1   7   4  301.54   14.03
  -1   7   5  120.34    9.96
  -1   7   5  116.59    8.20
  -1   7   5  125.13    7.50
  -1   7   6    4.54    1.50
  -1   7   6   -1.25    2.64
  -1   7   7  431.94   22.41
  -1   7   7  461.42   16.63
  -1   7   8  358.26   19.73
  -1   7   8  343.84   11.86
  -1   7   9  301.29   18.14
  -1   7  10   86.12    9.21
  -1   7  11   -1.24    2.91
  -1   7  12   86.34    9.79
  -1   7  13  170.05   14.19
  -1   8  -9   18.75    4.58
  -1   8  -8   -1.91    2.85
  -1   8  -7   46.15    7.15
  -1   8  -6   91.67    9.70
  -1   8  -5  316.35   18.84
  -1   8  -4  143.86   11.70
  -1   8  -3   31.22    5.26
  -1   8  -2   16.09    3.64
  -1   8  -1  479.14   22.68
  -1   8   0  262.88   15.09
  -1   8   1  470.16   21.64
  -1   8   2   23.43    3.89
  -1   8   3    5.91    2.17
  -1   8   3    0.86    2.01
  -1   8   4  322.77   18.34
  -1   8   4  309.42   16.18
  -1   8   4  313.15   15.22
  -1   8   5  227.84   15.92
  -1   8   5  226.45   12.99
  -1   8   5  230.32   11.87
  -1   8   6  203.56   14.25
  -1   8   6  186.57    9.99
  -1   8   7  104.48   10.24
  -1   8   7  103.87    6.42
  -1   8   8   20.71    4.89
  -1   8   9    6.38    2.88
  -1   8  10   33.59    6.28
  -1   8  11  146.55   12.96
  -1   8  12  148.79   13.44
  -1   9  -7  193.46   15.53
  -1   9  -6   81.95    9.78
  -1   9  -5   11.30    4.27
  -1   9  -4   48.82    7.28
  -1   9  -3   94.42    9.77
  -1   9  -2  216.95   15.00
  -1   9  -1  299.03   17.65
  -1   9   0   50.45    6.49
  -1   9   1    0.37    1.75
  -1   9   2   82.74    7.83
  -1   9   3  246.40   16.48
  -1   9   3  254.44   14.46
  -1   9   4  339.76   20.81
  -1   9   4  412.68   18.73
  -1   9   5  173.68   13.80
  -1   9   5  178.56   10.82
  -1   9   6    4.85    1.89
  -1   9   6    4.98    3.41
  -1   9   7   22.33    5.64
  -1   9   8  265.39   18.22
  -1   9   9  183.50   14.93
  -1   9  10  123.76   12.28
  -1  10  -4   52.29    7.66
  -1  10  -3   43.51    7.10
  -1  10  -2   -1.37    4.06
  -1  10  -1   15.19    4.82
  -1  10   0   49.14    6.97
  -1  10   1   63.87    7.71
  -1  10   2   17.69    4.32
  -1  10   2   12.47    3.63
  -1  10   3   43.79    5.99
  -1  10   3   34.59    6.16
  -1  10   4    1.93    2.10
  -1  10   4   -1.20    2.18
  -1  10   5   -6.95    3.03
  -1  10   6   25.22    5.57
  -1  11  -2   36.53    6.89
  -1  11  -1  103.45   10.84
  -1  11   0  118.72   11.49
  -1  11   1   98.41   10.25
  -1  11   2   13.50    4.11
  -1  11   3   16.59    4.84
   0 -12  -5   -1.24    3.19
   0 -12  -4   58.42    8.16
   0 -12  -3   95.95   10.41
   0 -12  -2   63.89    8.76
   0 -11  -6   16.86    4.44
   0 -11  -5   33.39    5.59
   0 -11  -4   53.46    7.34
   0 -11  -3   12.89    4.26
   0 -11  -2    3.32    2.85
   0 -11  -1    6.76    3.52
   0 -11   0   14.99    4.42
   0 -11   1   60.87    8.32
   0 -11   2   41.87    7.09
   0 -10  -8   35.51    6.61
   0 -10  -8   34.05    4.91
   0 -10  -7  128.75   12.25
   0 -10  -7  124.43    9.99
   0 -10  -6  166.40   13.88
   0 -10  -6  157.32   11.56
   0 -10  -5  163.23   11.92
   0 -10  -4   35.25    5.51
   0 -10  -3    6.52    2.72
   0 -10  -2   96.72    9.51
   0 -10  -1  185.18   13.63
   0 -10   0  266.21   16.99
   0 -10   1   91.57    9.72
   0 -10   2    3.93    3.22
   0 -10   3   66.28    8.73
   0 -10   4  168.76   13.99
   0 -10   5  167.05   14.22
   0  -9 -12    2.82    3.23
   0  -9 -11   -0.38    2.26
   0  -9 -10   42.59    7.06
   0  -9  -9  167.29   13.88
   0  -9  -9  181.15   11.03
   0  -9  -8  140.28   12.42
   0  -9  -8  129.90    9.39
   0  -9  -7   57.24    7.88
   0  -9  -7   51.63    5.78
   0  -9  -6    3.59    2.68
   0  -9  -6    5.75    2.28
   0  -9  -5   23.55    4.97
   0  -9  -5   26.31    4.35
   0  -9  -4  150.04   12.09
   0  -9  -4  134.22   10.20
   0  -9  -3   74.79    7.49
   0  -9  -2   14.32    3.77
   0  -9  -1   18.53    4.20
   0  -9   0    9.42    3.03
   0  -9   1   51.44    6.80
   0  -9   2   -0.92    2.12
   0  -9   3   28.23    5.35
   0  -9   4   77.34    8.86
   0  -9   5   58.75    7.93
   0  -9   6    5.63    3.36
   0  -9   7   13.09    4.11
   0  -9   8   34.95    6.40
   0  -8 -14    4.01    3.40
   0  -8 -13    7.99    3.85
   0  -8 -12  161.02   13.49
   0  -8 -11  162.22   13.40
   0  -8 -10  128.53   11.64
   0  -8 -10  134.19    8.42
   0  -8  -9    8.31    3.52
   0  -8  -9   10.30    2.66
   0  -8  -8    2.37    2.29
   0  -8  -8    1.40    1.34
   0  -8  -7  123.29   10.76
   0  -8  -7  114.80    8.20
   0  -8  -6  108.29    9.77
   0  -8  -6  109.45    8.06
   0  -8  -5  457.12   22.19
   0  -8  -5  406.48   19.04
   0  -8  -4  297.87   17.29
   0  -8  -4  321.75   16.04
   0  -8  -3    5.81    2.33
   0  -8  -3    7.08    2.40
   0  -8  -2   42.11    5.75
   0  -8  -2   59.77    6.20
   0  -8  -1   23.99    4.06
   0  -8   0  459.61   21.77
   0  -8   1  326.95   16.72
   0  -8   1  331.24   17.66
   0  -8   2  241.74   13.74
   0  -8   2  253.08   15.12
   0  -8   3    0.17    1.64
   0  -8   3    2.41    2.15
   0  -8   4    2.54    1.82
   0  -8   4    0.35    0.91
   0  -8   4   -0.14    1.71
   0  -8   5  182.57   11.57
   0  -8   5  192.60   13.79
   0  -8   5  207.73    9.85
   0  -8   6  202.98   12.25
   0  -8   6  221.29   15.20
   0  -8   6  221.45   10.29
   0  -8   7  162.48   13.07
   0  -8   8   84.02    9.46
   0  -8   9   -0.75    2.57
   0  -8  10   17.74    4.56
   0  -7 -16    8.87    4.78
   0  -7 -15    9.24    4.01
   0  -7 -14   33.69    6.31
   0  -7 -13   63.19    8.11
   0  -7 -12   23.98    5.31
   0  -7 -11   46.25    6.62
   0  -7 -11   37.80    3.73
   0  -7 -10    1.02    2.38
   0  -7 -10    1.25    1.26
   0  -7  -9   21.97    2.73
   0  -7  -9   23.08    4.72
   0  -7  -9   18.29    2.80
   0  -7  -8   45.21    6.03
   0  -7  -8   37.79    4.05
   0  -7  -7  312.28   17.15
   0  -7  -7  297.52   13.95
   0  -7  -6   -0.77    1.78
   0  -7  -6    1.25    1.29
   0  -7  -5  109.12    9.26
   0  -7  -5  132.52    8.39
   0  -7  -4   -0.10    1.79
   0  -7  -4   -2.60    1.52
   0  -7  -3   55.38    6.15
   0  -7  -3   52.82    5.35
   0  -7  -2  198.44   12.19
   0  -7  -2  189.81   11.25
   0  -7  -2  190.35   11.61
   0  -7  -1  255.91   14.24
   0  -7  -1  282.40   14.22
   0  -7  -1  241.95   13.53
   0  -7   0   93.28    7.50
   0  -7   0   98.55    7.99
   0  -7   1    6.23    1.87
   0  -7   1    8.10    2.43
   0  -7   2    0.59    1.41
   0  -7   2    0.75    1.62
   0  -7   3  191.29   11.14
   0  -7   3  202.83   12.73
   0  -7   4   89.27    7.11
   0  -7   4   96.36    8.58
   0  -7   4   85.04    5.62
   0  -7   5  468.06   19.93
   0  -7   5  413.36   21.77
   0  -7   5  493.86   18.00
   0  -7   6   39.64    4.67
   0  -7   6   45.83    6.14
   0  -7   6   49.37    4.11
   0  -7   7   10.01    2.56
   0  -7   7    7.24    2.92
   0  -7   7   11.75    2.09
   0  -7   8   21.09    3.40
   0  -7   8   26.62    5.23
   0  -7   8   20.40    2.83
   0  -7   9   64.66    8.04
   0  -7   9   70.90    5.50
   0  -7  10   79.25    9.12
   0  -7  11  134.26   12.36
   0  -7  12   21.00    4.89
   0  -6 -16   83.99    9.46
   0  -6 -15  111.57   10.61
   0  -6 -14  122.90   11.01
   0  -6 -13   41.86    6.22
   0  -6 -12   -1.70    2.41
   0  -6 -11  135.89   10.67
   0  -6 -11  140.06    7.40
   0  -6 -11  124.01    8.67
   0  -6 -10  306.60   16.89
   0  -6 -10  314.47   12.93
   0  -6 -10  282.14   13.80
   0  -6  -9  118.73    9.63
   0  -6  -9  130.80    7.41
   0  -6  -9  138.27    7.91
   0  -6  -8  212.16   13.11
   0  -6  -8  230.11   10.64
   0  -6  -8  211.64    9.94
   0  -6  -7  154.75   10.54
   0  -6  -7  140.29    6.94
   0  -6  -7  148.93    8.16
   0  -6  -6  232.59   13.52
   0  -6  -6  230.49   11.15
   0  -6  -6  248.38   13.24
   0  -6  -5  310.87   15.88
   0  -6  -5  304.55   13.55
   0  -6  -4  646.79   25.38
   0  -6  -4  570.31   22.45
   0  -6  -3  146.72    9.54
   0  -6  -3  128.58    8.12
   0  -6  -2  193.84   11.46
   0  -6  -2  213.75   11.05
   0  -6  -1    2.22    2.03
   0  -6  -1    3.08    1.74
   0  -6  -1    1.89    1.49
   0  -6   0  300.56   14.89
   0  -6   0  323.43   14.69
   0  -6   0  311.08   14.96
   0  -6   1  203.06   10.84
   0  -6   1  210.58   11.78
   0  -6   2 1282.66   43.73
   0  -6   2 1334.28   45.65
   0  -6   3   35.50    4.08
   0  -6   3   46.35    5.30
   0  -6   4   37.96    4.14
   0  -6   4   37.80    3.42
   0  -6   4   41.26    5.13
   0  -6   5    3.95    1.79
   0  -6   5    4.81    1.33
   0  -6   5    6.65    2.37
   0  -6   6  169.20    9.69
   0  -6   6  178.67   11.89
   0  -6   6  170.95    8.49
   0  -6   7  659.84   25.76
   0  -6   7  660.71   29.06
   0  -6   7  717.82   24.57
   0  -6   8  375.97   17.01
   0  -6   8  384.09   20.32
   0  -6   8  409.23   16.24
   0  -6   9   44.32    4.79
   0  -6   9   49.70    4.58
   0  -6   9   55.99    6.76
   0  -6  10    5.50    3.27
   0  -6  10   -0.15    1.00
   0  -6  11   42.54    6.54
   0  -6  11   43.95    4.65
   0  -6  12  212.96   15.51
   0  -6  13  173.57   14.19
   0  -6  14   71.28    8.90
   0  -5 -16   49.38    6.78
   0  -5 -15    2.52    2.45
   0  -5 -14   24.05    4.57
   0  -5 -13  182.95   12.36
   0  -5 -12  151.67   10.88
   0  -5 -12  149.24    7.41
   0  -5 -11  717.03   29.39
   0  -5 -11  769.92   28.39
   0  -5 -11  693.47   24.36
   0  -5 -10   11.10    2.60
   0  -5 -10    7.87    2.53
   0  -5 -10    8.52    1.73
   0  -5  -9    1.43    1.46
   0  -5  -9    0.29    1.76
   0  -5  -9    0.85    0.88
   0  -5  -8  250.85   13.44
   0  -5  -8  235.98   10.96
   0  -5  -8  228.46   10.20
   0  -5  -7  371.33   17.55
   0  -5  -7  348.25   14.45
   0  -5  -7  420.57   15.15
   0  -5  -7  392.81   17.97
   0  -5  -6  829.96   30.44
   0  -5  -6  805.01   26.13
   0  -5  -6  768.96   27.08
   0  -5  -6  803.35   29.99
   0  -5  -5  295.65   14.32
   0  -5  -5  269.58   10.27
   0  -5  -5  320.60   12.57
   0  -5  -4   14.01    2.73
   0  -5  -4   12.19    2.10
   0  -5  -3  120.30    8.01
   0  -5  -3  117.42    6.92
   0  -5  -2  116.74    7.62
   0  -5  -2   99.49    6.50
   0  -5  -1  974.28   35.49
   0  -5  -1 1012.94   35.24
   0  -5  -1 1108.21   35.50
   0  -5   0    2.20    1.13
   0  -5   0    2.37    1.46
   0  -5   0    2.97    1.44
   0  -5   1  298.82   12.99
   0  -5   1  288.33   13.70
   0  -5   2  175.86    9.08
   0  -5   2  172.37   10.02
   0  -5   3    5.68    1.66
   0  -5   3    5.74    1.89
   0  -5   4   26.81    3.13
   0  -5   4   24.99    2.56
   0  -5   4   18.09    3.14
   0  -5   5  207.79    9.97
   0  -5   5  159.76   10.77
   0  -5   5  203.40    8.95
   0  -5   6  298.32   13.48
   0  -5   6  326.25   16.14
   0  -5   6  312.08   12.71
   0  -5   7  313.52   13.81
   0  -5   7  290.44   15.83
   0  -5   7  306.72   12.95
   0  -5   8   97.00    6.80
   0  -5   8   99.66    8.63
   0  -5   8  106.04    6.66
   0  -5   9    5.56    1.78
   0  -5   9    7.97    1.96
   0  -5   9    9.93    3.12
   0  -5  10   34.41    4.23
   0  -5  10   35.59    5.34
   0  -5  10   33.25    3.95
   0  -5  11  473.94   22.90
   0  -5  11  416.52   18.69
   0  -5  12  189.30   13.62
   0  -5  12  167.96   10.60
   0  -5  13   37.89    6.12
   0  -5  13   41.09    5.02
   0  -4 -17    2.62    2.55
   0  -4 -16   18.18    4.91
   0  -4 -15   66.13    6.97
   0  -4 -14   89.81    7.95
   0  -4 -13   98.37    8.20
   0  -4 -13   92.90    5.61
   0  -4 -12   71.30    6.75
   0  -4 -12   66.19    4.57
   0  -4 -12   68.48    4.69
   0  -4 -11   18.71    3.51
   0  -4 -11   21.64    3.54
   0  -4 -11   23.68    2.62
   0  -4 -11   18.28    2.32
   0  -4 -10  106.57    7.90
   0  -4 -10   92.54    5.41
   0  -4 -10   93.15    7.18
   0  -4  -9   52.44    5.35
   0  -4  -9   48.07    4.68
   0  -4  -9   53.24    5.62
   0  -4  -9   46.36    3.55
   0  -4  -8  362.28   16.94
   0  -4  -8  377.17   15.84
   0  -4  -8  399.26   14.42
   0  -4  -8  390.19   18.08
   0  -4  -7  839.36   31.71
   0  -4  -7  890.19   29.94
   0  -4  -7  856.70   28.74
   0  -4  -6  416.86   17.06
   0  -4  -6  378.20   14.45
   0  -4  -6  366.26   14.11
   0  -4  -6  410.25   17.19
   0  -4  -5   65.89    5.45
   0  -4  -5   65.21    3.87
   0  -4  -5   58.61    4.02
   0  -4  -5   73.86    5.67
   0  -4  -4  522.58   20.82
   0  -4  -4  530.34   19.05
   0  -4  -4  559.40   17.62
   0  -4  -3  997.88   34.80
   0  -4  -3 1072.81   33.52
   0  -4  -3 1023.34   30.55
   0  -4  -2 2590.23   79.20
   0  -4  -2 2552.48   77.82
   0  -4  -1 2495.17   73.41
   0  -4  -1 2269.33   72.27
   0  -4   0   68.79    5.10
   0  -4   0   74.84    5.23
   0  -4   0   74.85    5.11
   0  -4   1  109.97    6.57
   0  -4   1  112.00    6.28
   0  -4   1  119.08    7.02
   0  -4   2 2330.55   71.58
   0  -4   2 2374.09   73.17
   0  -4   3  879.48   28.60
   0  -4   3  805.73   29.87
   0  -4   4  795.47   27.84
   0  -4   4  847.82   30.20
   0  -4   4  851.29   27.11
   0  -4   5  183.24    8.93
   0  -4   5  181.57   10.45
   0  -4   5  192.44    8.42
   0  -4   6    5.83    1.55
   0  -4   6    0.60    1.51
   0  -4   6    2.23    1.03
   0  -4   7  488.11   19.06
   0  -4   7  529.28   22.00
   0  -4   7  508.08   18.94
   0  -4   8  487.29   18.70
   0  -4   8  456.07   20.88
   0  -4   8  465.61   18.42
   0  -4   9  240.09   11.87
   0  -4   9  250.13   14.03
   0  -4   9  249.06   12.00
   0  -4  10   99.61    8.66
   0  -4  10  104.26    7.37
   0  -4  11   51.36    6.27
   0  -4  11   49.23    5.19
   0  -4  12   36.07    5.37
   0  -4  12   35.28    4.62
   0  -4  13   99.47    8.29
   0  -3 -17   34.01    6.37
   0  -3 -16  112.60   11.20
   0  -3 -15   35.70    6.27
   0  -3 -15   37.28    4.93
   0  -3 -14   -0.31    2.59
   0  -3 -14   -0.21    1.74
   0  -3 -13   12.58    2.83
   0  -3 -13   19.61    2.64
   0  -3 -12   64.91    6.01
   0  -3 -12   72.19    5.00
   0  -3 -11  278.77   13.58
   0  -3 -11  254.92   11.06
   0  -3 -11  266.53   14.30
   0  -3 -10   15.47    2.80
   0  -3 -10   20.76    3.35
   0  -3 -10   13.82    2.90
   0  -3 -10   15.61    2.13
   0  -3  -9   93.26    6.67
   0  -3  -9   81.26    6.36
   0  -3  -9   79.55    6.73
   0  -3  -9   78.69    7.05
   0  -3  -8   21.90    3.10
   0  -3  -8   18.26    2.79
   0  -3  -8   21.98    3.28
   0  -3  -8   24.75    3.69
   0  -3  -7    2.22    1.33
   0  -3  -7    0.96    0.83
   0  -3  -7   -1.17    1.18
   0  -3  -7    2.65    1.54
   0  -3  -6  447.45   17.66
   0  -3  -6  432.54   16.55
   0  -3  -6  420.67   17.72
   0  -3  -6  463.88   15.56
   0  -3  -6  464.11   18.41
   0  -3  -5    5.71    1.22
   0  -3  -5    5.47    1.60
   0  -3  -5   13.02    2.30
   0  -3  -5    8.95    1.37
   0  -3  -4  120.61    6.89
   0  -3  -4  124.69    5.69
   0  -3  -4  120.58    5.46
   0  -3  -3   25.94    2.85
   0  -3  -3   22.43    2.09
   0  -3  -3   21.62    1.59
   0  -3  -2  198.28    9.28
   0  -3  -2  216.24    8.64
   0  -3  -1  118.59    6.29
   0  -3  -1  114.02    5.76
   0  -3   0  311.21   12.29
   0  -3   0  334.32   12.37
   0  -3   0  300.42   11.88
   0  -3   1  528.59   17.76
   0  -3   1  471.33   17.08
   0  -3   1  502.39   18.07
   0  -3   2  476.32   16.98
   0  -3   2  511.21   18.31
   0  -3   3  363.36   13.65
   0  -3   3  397.02   15.32
   0  -3   3  374.55   13.11
   0  -3   4   31.78    2.76
   0  -3   4   32.89    3.52
   0  -3   4   29.77    2.49
   0  -3   5    4.76    1.35
   0  -3   5    4.14    1.07
   0  -3   5    3.91    1.42
   0  -3   6 1138.59   36.73
   0  -3   6 1135.96   38.89
   0  -3   6 1128.79   36.59
   0  -3   7  750.91   26.31
   0  -3   7  758.62   28.46
   0  -3   7  776.00   26.54
   0  -3   8  220.10   10.57
   0  -3   8  216.09   12.00
   0  -3   8  231.41   10.92
   0  -3   9   13.69    3.58
   0  -3   9   15.25    2.58
   0  -3  10    9.59    2.62
   0  -3  10    3.93    1.63
   0  -3  11  301.74   16.22
   0  -3  11  323.64   15.52
   0  -3  12  148.96   10.06
   0  -2 -18  140.72   12.86
   0  -2 -17   58.99    8.37
   0  -2 -16   47.96    7.27
   0  -2 -15   -2.98    2.94
   0  -2 -15    2.21    1.27
   0  -2 -14   37.83    5.61
   0  -2 -14   44.10    4.75
   0  -2 -13  258.60   15.12
   0  -2 -13  267.65   12.88
   0  -2 -13  244.26   11.67
   0  -2 -13  242.65    9.62
   0  -2 -12  557.93   21.80
   0  -2 -12  555.67   24.52
   0  -2 -12  543.36   20.46
   0  -2 -12  550.63   18.36
   0  -2 -11  201.88   10.57
   0  -2 -11  206.55   12.13
   0  -2 -11  202.07    9.60
   0  -2 -11  201.92    7.93
   0  -2 -10    4.18    1.64
   0  -2 -10    5.68    0.93
   0  -2 -10    8.13    2.17
   0  -2 -10    7.50    2.11
   0  -2 -10    9.11    2.60
   0  -2 -10    5.25    1.28
   0  -2  -9    8.79    1.04
   0  -2  -9    6.99    1.65
   0  -2  -9   14.54    2.81
   0  -2  -9   10.46    1.71
   0  -2  -9   10.16    2.43
   0  -2  -9   12.32    2.74
   0  -2  -8  115.10    6.88
   0  -2  -8  118.62    7.57
   0  -2  -8  122.37    7.80
   0  -2  -8  119.70    5.98
   0  -2  -8  127.39    8.28
   0  -2  -8  117.10    4.58
   0  -2  -7  470.53   17.24
   0  -2  -7  431.46   13.78
   0  -2  -7  472.86   17.84
   0  -2  -7  441.99   17.85
   0  -2  -7  471.88   18.69
   0  -2  -7  454.53   13.77
   0  -2  -6 2037.56   63.11
   0  -2  -6 2048.11   63.31
   0  -2  -6 2022.05   63.82
   0  -2  -6 2106.30   64.62
   0  -2  -5  275.72   11.19
   0  -2  -5  258.23   10.77
   0  -2  -5  274.62   11.55
   0  -2  -5  280.01   11.95
   0  -2  -4   13.13    1.88
   0  -2  -4   11.49    1.48
   0  -2  -4    9.85    1.75
   0  -2  -4   13.16    1.89
   0  -2  -3    1.90    0.90
   0  -2  -3    1.15    0.60
   0  -2  -3    1.58    0.97
   0  -2  -3    2.25    0.74
   0  -2  -2  754.29   24.05
   0  -2  -2  717.32   22.87
   0  -2  -2  738.10   22.15
   0  -2  -1  571.49   18.36
   0  -2  -1  527.63   17.62
   0  -2   0 2595.33   75.78
   0  -2   0 2511.98   75.58
   0  -2   1    6.48    0.88
   0  -2   1    4.68    0.94
   0  -2   1    4.95    1.17
   0  -2   2   31.66    2.29
   0  -2   2   28.68    2.20
   0  -2   2   33.13    2.82
   0  -2   2   29.70    1.99
   0  -2   3  293.79   11.09
   0  -2   3  270.57   10.37
   0  -2   3  302.96   11.70
   0  -2   3  293.33   10.28
   0  -2   4  361.68   14.06
   0  -2   4  375.20   13.27
   0  -2   4  354.72   14.29
   0  -2   4  382.69   13.23
   0  -2   5  155.88    8.03
   0  -2   5  148.43    7.01
   0  -2   5  152.09    8.05
   0  -2   5  159.20    7.27
   0  -2   6 1034.03   34.34
   0  -2   6 1152.15   36.21
   0  -2   6 1044.49   34.64
   0  -2   7   55.35    4.24
   0  -2   7   52.56    4.68
   0  -2   7   53.81    4.39
   0  -2   8   37.31    4.15
   0  -2   8   36.81    3.81
   0  -2   9  184.37   10.44
   0  -2   9  182.61   10.06
   0  -2  10  463.60   20.21
   0  -2  10  490.99   20.24
   0  -2  11  395.16   18.18
   0  -2  12   71.77    6.79
   0  -1 -18   18.01    5.34
   0  -1 -17    5.30    3.83
   0  -1 -16   50.88    7.03
   0  -1 -15  139.61   11.26
   0  -1 -14  118.77    9.81
   0  -1 -14  121.32    7.57
   0  -1 -14  122.78    7.23
   0  -1 -13  148.08    8.53
   0  -1 -13  156.05   10.97
   0  -1 -13  155.44    9.12
   0  -1 -13  158.12    8.25
   0  -1 -12    1.86    1.09
   0  -1 -12   -0.64    1.15
   0  -1 -12   -1.32    1.97
   0  -1 -12   -1.91    1.85
   0  -1 -12   -1.76    1.69
   0  -1 -11   11.62    1.89
   0  -1 -11   12.32    2.18
   0  -1 -11   10.89    2.62
   0  -1 -11   10.26    2.57
   0  -1 -11    8.18    1.91
   0  -1 -10  727.57   25.47
   0  -1 -10  748.61   28.22
   0  -1 -10  742.31   28.63
   0  -1 -10  729.81   27.79
   0  -1 -10  731.82   25.52
   0  -1 -10  725.40   28.60
   0  -1 -10  715.97   24.53
   0  -1  -9 1123.76   36.61
   0  -1  -9 1145.26   39.51
   0  -1  -9 1095.65   38.55
   0  -1  -9 1127.14   36.49
   0  -1  -9 1178.07   39.97
   0  -1  -9 1110.93   35.59
   0  -1  -8  181.02    8.46
   0  -1  -8  180.22    9.96
   0  -1  -8  179.15    9.57
   0  -1  -8  183.46    8.34
   0  -1  -8  177.87   10.10
   0  -1  -8  184.14    7.67
   0  -1  -7  150.20    7.12
   0  -1  -7  143.95    8.19
   0  -1  -7  153.00    6.87
   0  -1  -7  152.25    8.07
   0  -1  -7  152.34    8.56
   0  -1  -7  136.93    6.11
   0  -1  -6   48.03    3.40
   0  -1  -6   47.87    4.02
   0  -1  -6   43.77    3.73
   0  -1  -6   43.46    3.02
   0  -1  -6   49.05    4.19
   0  -1  -6   46.77    2.69
   0  -1  -5  524.43   17.55
   0  -1  -5  511.95   18.39
   0  -1  -5  497.98   18.16
   0  -1  -5  523.73   18.78
   0  -1  -4 1113.98   34.67
   0  -1  -4 1129.68   35.24
   0  -1  -4 1124.87   35.30
   0  -1  -4 1124.13   35.70
   0  -1  -3 1725.77   51.23
   0  -1  -3 1689.13   51.27
   0  -1  -3 1709.02   51.59
   0  -1  -3 1718.95   51.86
   0  -1  -2    5.89    1.00
   0  -1  -2    5.97    0.98
   0  -1  -2    6.21    0.87
   0  -1  -1 1288.62   37.75
   0  -1  -1 1248.27   37.16
   0  -1   0  869.33   29.29
   0  -1   0 1119.48   29.52
   0  -1   1  471.16   15.30
   0  -1   1  529.37   15.43
   0  -1   1  493.98   15.86
   0  -1   2  219.19    8.15
   0  -1   2  228.87    7.76
   0  -1   2  238.74    8.43
   0  -1   2  211.34    7.63
   0  -1   3 1626.09   50.56
   0  -1   3 1651.45   49.77
   0  -1   3 1696.19   50.55
   0  -1   3 1695.89   49.96
   0  -1   4  890.57   28.51
   0  -1   4  879.10   29.44
   0  -1   4  933.76   29.25
   0  -1   4  929.73   28.89
   0  -1   5   13.68    2.26
   0  -1   5   11.08    1.76
   0  -1   5   12.92    1.86
   0  -1   6    0.62    0.98
   0  -1   6    1.21    1.01
   0  -1   6    1.74    0.93
   0  -1   7  302.87   12.94
   0  -1   7  307.63   13.13
   0  -1   8  298.09   13.47
   0  -1   8  332.81   14.17
   0  -1   9  663.81   25.26
   0  -1  10  171.47   10.29
   0  -1  11    0.26    1.51
   0   0 -17   87.79    9.31
   0   0 -16   83.13    8.73
   0   0 -15   51.85    6.42
   0   0 -15   57.84    5.52
   0   0 -14   20.71    4.31
   0   0 -14   12.99    2.18
   0   0 -14   15.93    2.90
   0   0 -14   12.61    2.87
   0   0 -13   99.80    6.09
   0   0 -13  105.16    8.54
   0   0 -13   94.91    7.40
   0   0 -13  106.95    7.27
   0   0 -12  451.00   16.58
   0   0 -12  437.57   19.73
   0   0 -12  405.70   18.07
   0   0 -12  429.17   19.88
   0   0 -12  426.12   17.79
   0   0 -11  106.81    6.05
   0   0 -11   96.66    7.56
   0   0 -11  101.48    6.98
   0   0 -11  109.54    8.08
   0   0 -11  114.62    8.64
   0   0 -11  103.91    6.74
   0   0 -10 1032.21   33.45
   0   0 -10 1053.04   37.93
   0   0 -10 1025.31   36.39
   0   0 -10 1038.68   35.11
   0   0 -10 1006.12   36.53
   0   0 -10 1048.29   37.36
   0   0 -10 1032.42   34.67
   0   0  -9  289.68   11.32
   0   0  -9  275.07   13.13
   0   0  -9  264.85   13.88
   0   0  -9  270.64   12.20
   0   0  -9  289.64   13.51
   0   0  -9  288.32   13.95
   0   0  -9  290.52   12.13
   0   0  -8  126.86    5.97
   0   0  -8  112.18    7.07
   0   0  -8  112.27    7.77
   0   0  -8  114.02    6.50
   0   0  -8  118.06    7.30
   0   0  -8  112.41    7.42
   0   0  -8  107.84    6.17
   0   0  -7  274.92   12.18
   0   0  -7  302.70   10.89
   0   0  -7  281.21   12.99
   0   0  -7  272.69   11.47
   0   0  -7  285.80   12.48
   0   0  -7  284.06   12.77
   0   0  -7  292.06   11.42
   0   0  -6 3525.51  104.58
   0   0  -6 3494.36  102.81
   0   0  -6 3579.01  105.57
   0   0  -6 3516.90  103.75
   0   0  -6 3418.48  104.65
   0   0  -6 3451.55  105.06
   0   0  -6 3500.01  103.44
   0   0  -5 5892.50  174.67
   0   0  -5 6164.96  176.20
   0   0  -5 6014.67  176.86
   0   0  -5 6107.65  175.53
   0   0  -5 5959.83  176.25
   0   0  -5 6079.79  176.66
   0   0  -5 5989.87  175.19
   0   0  -4 6057.48  176.03
   0   0  -4 6150.14  177.80
   0   0  -4 6052.74  176.63
   0   0  -4 6051.48  177.29
   0   0  -4 6120.70  177.57
   0   0  -3 1772.42   52.31
   0   0  -3 1815.85   53.61
   0   0  -3 1774.11   52.74
   0   0  -3 1730.73   53.17
   0   0  -3 1821.36   53.42
   0   0  -2 1886.26   56.53
   0   0  -2 1905.08   56.01
   0   0  -2 1926.35   56.35
   0   0  -2 1935.70   56.46
   0   0   2 1950.61   57.20
   0   0   2 1930.99   56.98
   0   0   2 1960.55   56.67
   0   0   2 1893.86   57.04
   0   0   3 1772.27   52.44
   0   0   3 1803.19   53.68
   0   0   3 1730.17   53.28
   0   0   3 1816.57   52.89
   0   0   3 1797.49   53.51
   0   0   4 6103.28  177.74
   0   0   4 6054.74  177.28
   0   0   4 6079.30  177.50
   0   0   5 6035.31  176.52
   0   0   5 5966.55  175.98
   0   0   5 6019.29  176.21
   0   0   6 3499.92  106.38
   0   0   6 3623.40  105.96
   0   0   6 3472.41  105.99
   0   0   7  276.37   12.20
   0   0   7  275.56   12.44
   0   0   8  119.14    7.45
   0   0   8  117.40    7.55
   0   0   9  272.24   13.43
   0   0   9  295.16   13.99
   0   0  10 1009.63   36.24
   0   0  11   96.11    7.70
   0   0  12  428.10   20.06
   0   1 -16   15.99    4.14
   0   1 -15   85.35    8.04
   0   1 -15   78.96    7.17
   0   1 -14  118.51    9.42
   0   1 -14  133.08    9.20
   0   1 -13  445.59   15.81
   0   1 -13  461.13   20.39
   0   1 -13  410.65   19.35
   0   1 -13  405.18   19.00
   0   1 -12  114.39    5.99
   0   1 -12  111.52    8.29
   0   1 -12  110.05    8.14
   0   1 -12   98.08    8.23
   0   1 -12  127.54    8.48
   0   1 -11    1.05    0.76
   0   1 -11    1.62    1.58
   0   1 -11    1.82    1.36
   0   1 -11   -0.06    1.43
   0   1 -11    4.23    1.63
   0   1 -11    0.51    1.49
   0   1 -10  174.75    7.73
   0   1 -10  172.93    9.87
   0   1 -10  173.01    9.87
   0   1 -10  185.41   10.69
   0   1 -10  169.01   10.41
   0   1 -10  188.59   10.01
   0   1  -9  660.63   22.62
   0   1  -9  698.40   27.22
   0   1  -9  716.45   25.58
   0   1  -9  691.55   25.44
   0   1  -9  695.36   26.15
   0   1  -9  710.32   26.31
   0   1  -9  701.25   25.33
   0   1  -8  309.07   11.37
   0   1  -8  305.90   14.55
   0   1  -8  304.38   13.28
   0   1  -8  315.78   13.54
   0   1  -8  313.11   13.94
   0   1  -8  302.30   13.73
   0   1  -8  308.21   13.29
   0   1  -7  340.64   11.79
   0   1  -7  324.82   13.36
   0   1  -7  326.79   14.62
   0   1  -7  314.66   13.44
   0   1  -7  334.68   14.06
   0   1  -7  314.76   13.68
   0   1  -7  329.00   13.56
   0   1  -6    1.73    1.16
   0   1  -6    1.36    0.74
   0   1  -6    0.30    0.81
   0   1  -6   -0.20    0.99
   0   1  -6    1.53    1.05
   0   1  -6    1.43    1.02
   0   1  -6    0.23    0.72
   0   1  -5   14.00    1.96
   0   1  -5   14.87    2.23
   0   1  -5   12.53    1.70
   0   1  -5   13.28    1.90
   0   1  -5   13.74    1.90
   0   1  -5    9.02    1.48
   0   1  -4  925.33   29.04
   0   1  -4  908.41   30.00
   0   1  -4  917.21   29.59
   0   1  -4  908.95   29.65
   0   1  -4  926.06   29.29
   0   1  -4  958.34   29.75
   0   1  -3 1682.32   49.16
   0   1  -3 1632.13   49.93
   0   1  -3 1616.70   49.74
   0   1  -3 1634.34   49.26
   0   1  -2  214.96    7.51
   0   1  -2  226.36    8.08
   0   1  -2  217.02    8.13
   0   1  -2  212.91    7.52
   0   1  -1  448.11   14.34
   0   1  -1  483.35   14.46
   0   1  -1  462.02   14.87
   0   1   0  885.98   25.48
   0   1   0  867.13   25.40
   0   1   0  787.00   25.22
   0   1   1 1223.43   37.36
   0   1   1 1269.81   36.86
   0   1   2    5.87    0.97
   0   1   2    5.95    0.98
   0   1   2    5.49    0.78
   0   1   3 1726.57   51.47
   0   1   3 1716.65   51.80
   0   1   3 1713.10   51.52
   0   1   4 1096.57   34.26
   0   1   4 1142.40   34.95
   0   1   4 1088.28   34.73
   0   1   5  532.56   17.95
   0   1   5  525.13   18.73
   0   1   5  524.86   18.73
   0   1   6   41.91    3.22
   0   1   6   43.99    3.80
   0   1   7  142.84    7.03
   0   1   7  144.75    8.00
   0   1   8  191.09    8.73
   0   1   8  175.72    9.72
   0   1   9 1079.65   36.12
   0   1   9 1150.75   38.60
   0   1  10  694.42   26.90
   0   1  11   11.07    2.71
   0   1  12   -0.96    1.44
   0   1  13  164.00   11.40
   0   1  14  116.06    9.79
   0   1  15  167.63   12.53
   0   1  16   59.00    7.61
   0   2 -16  134.79   10.56
   0   2 -16  125.37   10.40
   0   2 -15  113.75    9.23
   0   2 -15   98.52    8.81
   0   2 -14   98.76    8.27
   0   2 -14   96.78    8.47
   0   2 -13   -0.40    1.79
   0   2 -13    1.45    1.70
   0   2 -13    0.47    1.00
   0   2 -12   68.91    4.09
   0   2 -12   77.09    6.61
   0   2 -12   78.11    7.10
   0   2 -12   75.16    6.93
   0   2 -11  431.88   14.75
   0   2 -11  377.11   17.53
   0   2 -11  411.75   18.80
   0   2 -11  397.47   18.97
   0   2 -11  397.03   18.61
   0   2 -11  415.18   18.74
   0   2 -10  456.80   16.30
   0   2 -10  464.47   19.17
   0   2 -10  499.11   20.57
   0   2 -10  483.33   20.68
   0   2 -10  459.24   20.00
   0   2 -10  492.47   20.27
   0   2  -9  190.40    8.13
   0   2  -9  209.18   11.83
   0   2  -9  193.02   10.06
   0   2  -9  195.81   10.90
   0   2  -9  192.05   10.95
   0   2  -9  199.46   10.68
   0   2  -9  206.34   11.01
   0   2  -8   34.09    2.70
   0   2  -8   44.00    4.65
   0   2  -8   34.01    3.55
   0   2  -8   35.79    4.09
   0   2  -8   40.84    4.28
   0   2  -8   40.59    4.03
   0   2  -8   40.91    4.30
   0   2  -7   53.71    5.03
   0   2  -7   60.60    4.43
   0   2  -7   57.64    4.92
   0   2  -7   53.26    4.74
   0   2  -7   55.28    4.46
   0   2  -7   52.14    4.71
   0   2  -6 1000.29   34.50
   0   2  -6 1044.37   32.98
   0   2  -6  987.38   34.15
   0   2  -6 1000.93   34.10
   0   2  -6 1025.71   33.24
   0   2  -6 1003.38   34.19
   0   2  -5  147.79    7.95
   0   2  -5  156.93    7.12
   0   2  -5  154.31    8.05
   0   2  -5  160.81    8.21
   0   2  -5  152.59    7.21
   0   2  -4  354.09   14.32
   0   2  -4  395.36   13.70
   0   2  -4  379.05   14.77
   0   2  -4  405.11   15.07
   0   2  -4  383.45   13.64
   0   2  -3  280.36   10.36
   0   2  -3  290.70   10.95
   0   2  -3  279.04   11.37
   0   2  -3  284.23   11.49
   0   2  -2   28.02    2.15
   0   2  -2   26.60    2.09
   0   2  -2   29.94    2.21
   0   2  -2   32.21    2.73
   0   2  -2   28.64    2.67
   0   2  -1    7.36    1.13
   0   2  -1    6.04    0.82
   0   2  -1    5.85    1.08
   0   2  -1    6.23    1.31
   0   2  -1    5.05    1.13
   0   2   0 2703.82   74.87
   0   2   0 2592.80   74.55
   0   2   1  590.36   18.75
   0   2   1  568.16   18.05
   0   2   1  532.59   17.67
   0   2   2  710.34   23.22
   0   2   2  708.49   23.21
   0   2   2  781.92   21.70
   0   2   3    1.45    0.77
   0   2   3    2.05    1.07
   0   2   4    9.48    1.64
   0   2   4   14.50    2.03
   0   2   5  262.64   11.04
   0   2   5  277.05   11.53
   0   2   6 2001.77   61.60
   0   2   6 1986.12   62.25
   0   2   7  428.22   16.75
   0   2   7  453.13   17.75
   0   2   8  111.64    6.84
   0   2   8  122.68    7.78
   0   2   9    8.11    1.83
   0   2   9    4.22    1.71
   0   2  10    4.72    1.63
   0   2  10    5.77    1.94
   0   2  11  206.65   10.87
   0   2  11  212.32   12.42
   0   2  12  528.24   23.44
   0   2  13  250.55   14.81
   0   2  14   41.95    5.90
   0   2  15    2.75    1.84
   0   2  16   53.91    7.35
   0   2  17   67.71    8.53
   0   2  18  138.20   12.74
   0   3 -16   23.71    5.34
   0   3 -15    6.68    2.19
   0   3 -15    5.87    2.95
   0   3 -14   28.12    4.20
   0   3 -14   27.28    4.93
   0   3 -13  179.20   10.84
   0   3 -13  152.75   11.40
   0   3 -12  158.38    9.73
   0   3 -12  141.42    6.47
   0   3 -12  152.19    6.64
   0   3 -12  145.60   10.24
   0   3 -12  140.78   10.50
   0   3 -11  293.35   14.75
   0   3 -11  339.58   12.47
   0   3 -11  332.41   16.18
   0   3 -11  344.96   17.20
   0   3 -10    9.80    1.58
   0   3 -10    7.87    2.14
   0   3 -10    7.06    1.98
   0   3 -10    9.26    2.48
   0   3 -10    8.96    2.44
   0   3 -10    7.18    2.15
   0   3  -9   20.54    3.48
   0   3  -9   20.42    3.66
   0   3  -9   18.96    2.83
   0   3  -9   17.26    3.22
   0   3  -9   21.02    3.14
   0   3  -9   19.64    3.38
   0   3  -8  244.94   12.80
   0   3  -8  237.09   11.05
   0   3  -8  246.00   12.69
   0   3  -8  240.02   12.54
   0   3  -8  229.23   11.25
   0   3  -8  217.11   12.20
   0   3  -7  731.40   27.69
   0   3  -7  727.27   25.84
   0   3  -7  762.02   27.88
   0   3  -7  778.70   28.18
   0   3  -7  719.31   27.79
   0   3  -7  765.62   26.24
   0   3  -6 1087.99   38.25
   0   3  -6 1106.53   36.75
   0   3  -6 1233.04   39.38
   0   3  -6 1136.58   38.97
   0   3  -6 1153.53   36.87
   0   3  -5    4.66    1.59
   0   3  -5    3.56    1.23
   0   3  -5    3.57    1.02
   0   3  -5    2.91    1.55
   0   3  -5    3.20    1.54
   0   3  -4   36.49    2.88
   0   3  -4   27.25    2.64
   0   3  -4   32.93    3.13
   0   3  -4   34.96    3.60
   0   3  -4   37.80    3.75
   0   3  -3  336.85   13.07
   0   3  -3  351.90   13.01
   0   3  -3  356.69   13.21
   0   3  -3  355.30   14.42
   0   3  -3  377.92   14.69
   0   3  -2  464.16   16.56
   0   3  -2  473.57   16.28
   0   3  -2  465.66   15.76
   0   3  -2  502.78   17.64
   0   3  -2  428.21   17.09
   0   3  -1  480.12   17.39
   0   3  -1  462.57   15.72
   0   3  -1  565.99   18.32
   0   3  -1  530.61   18.03
   0   3   0  288.44   11.64
   0   3   0  306.88   11.72
   0   3   0  284.52   11.35
   0   3   1  106.83    5.92
   0   3   1  108.95    5.55
   0   3   1  105.81    5.30
   0   3   2  191.97    8.81
   0   3   2  204.50    8.12
   0   3   2  174.52    7.37
   0   3   3   26.72    2.88
   0   3   3   24.62    2.22
   0   3   3   29.92    3.05
   0   3   3   27.82    1.95
   0   3   4  128.55    7.01
   0   3   4  114.98    6.85
   0   3   4  121.24    4.64
   0   3   5    6.18    1.66
   0   3   5    7.60    1.83
   0   3   6  435.22   17.51
   0   3   6  450.82   17.88
   0   3   7    0.26    0.95
   0   3   7   -0.73    1.02
   0   3   8   23.57    3.30
   0   3   8   23.94    3.45
   0   3   9   76.68    6.12
   0   3   9   78.78    6.60
   0   3  10   17.03    3.05
   0   3  10   17.85    3.30
   0   3  11  251.93   13.25
   0   3  11  269.57   14.59
   0   3  12   55.04    5.63
   0   3  12   61.87    6.61
   0   3  13   18.73    3.45
   0   3  13   15.73    3.55
   0   3  14   -0.63    1.92
   0   3  15   36.84    5.83
   0   3  16  129.96   11.62
   0   3  17   50.53    7.43
   0   3  18   20.86    5.41
   0   4 -16   11.59    4.54
   0   4 -15   58.50    7.69
   0   4 -14  167.81   10.96
   0   4 -14  158.19   12.59
   0   4 -13  106.71    8.17
   0   4 -13  103.96    9.69
   0   4 -12   40.06    4.70
   0   4 -12   35.48    5.51
   0   4 -11   54.82    5.28
   0   4 -11   51.61    3.78
   0   4 -11   47.85    6.10
   0   4 -11   54.49    3.97
   0   4 -10  100.87    7.23
   0   4 -10  105.22    5.89
   0   4 -10  100.98    8.69
   0   4  -9  227.49   10.32
   0   4  -9  260.03   12.18
   0   4  -9  266.28   14.21
   0   4  -9  244.91   14.00
   0   4  -8  438.15   16.98
   0   4  -8  481.57   18.54
   0   4  -8  478.18   20.47
   0   4  -8  462.07   20.44
   0   4  -8  459.09   20.60
   0   4  -8  474.95   20.95
   0   4  -7  443.79   17.40
   0   4  -7  482.57   18.47
   0   4  -7  516.38   20.44
   0   4  -7  498.26   20.94
   0   4  -7  472.18   20.75
   0   4  -6    1.52    1.21
   0   4  -6    1.90    1.17
   0   4  -6    2.17    1.13
   0   4  -6    1.20    1.46
   0   4  -6    3.70    2.01
   0   4  -5  207.67    9.52
   0   4  -5  204.81    9.46
   0   4  -5  213.18   10.20
   0   4  -5  183.06   10.69
   0   4  -5  203.82   11.11
   0   4  -4  786.56   28.58
   0   4  -4  817.62   28.42
   0   4  -4  944.41   29.31
   0   4  -4  850.17   30.63
   0   4  -4  906.63   31.05
   0   4  -3  851.12   28.83
   0   4  -3  838.15   28.37
   0   4  -3  769.67   27.68
   0   4  -3  946.35   30.75
   0   4  -3  958.75   30.82
   0   4  -2 2185.47   68.76
   0   4  -2 2124.46   66.82
   0   4  -2 2324.73   69.90
   0   4  -1  128.40    7.12
   0   4  -1  118.51    5.06
   0   4  -1  118.60    7.12
   0   4  -1  127.67    7.19
   0   4   0   79.19    5.41
   0   4   0   71.05    5.12
   0   4   0   78.76    5.24
   0   4   1 2571.69   77.53
   0   4   1 2625.20   76.89
   0   4   1 2384.63   76.05
   0   4   2 2087.26   66.33
   0   4   2 2099.06   65.72
   0   4   3 1051.99   35.00
   0   4   3  998.18   33.15
   0   4   3 1026.42   32.29
   0   4   4  552.13   21.56
   0   4   4  553.80   21.51
   0   4   4  575.89   18.59
   0   4   5   57.24    5.16
   0   4   5   62.66    5.34
   0   4   5   59.18    3.08
   0   4   6  390.22   16.81
   0   4   6  378.71   16.77
   0   4   7  880.89   32.03
   0   4   7  889.40   32.36
   0   4   8  372.17   16.81
   0   4   8  362.99   16.93
   0   4   9   54.19    5.53
   0   4   9   52.22    5.53
   0   4  10   89.57    7.38
   0   4  10   88.22    7.66
   0   4  11   19.37    3.90
   0   4  11   18.66    3.59
   0   4  12   61.69    6.38
   0   4  12   71.78    7.35
   0   4  13  111.71    9.80
   0   4  14   81.86    8.66
   0   4  15   59.22    7.69
   0   4  16   18.49    4.81
   0   4  17    0.64    2.36
   0   4  18   32.08    6.60
   0   5 -15   14.45    4.25
   0   5 -14    0.86    2.77
   0   5 -13   31.77    5.98
   0   5 -12  189.21   11.09
   0   5 -12  167.30   13.11
   0   5 -11  442.04   19.00
   0   5 -11  426.81   22.21
   0   5 -10   35.34    4.20
   0   5 -10   38.47    3.65
   0   5 -10   38.21    5.68
   0   5  -9    5.53    1.88
   0   5  -9    5.53    1.52
   0   5  -9    9.73    3.12
   0   5  -8  108.39    7.03
   0   5  -8   92.94    7.73
   0   5  -8   98.48    6.44
   0   5  -8  101.69    8.71
   0   5  -7  316.39   13.64
   0   5  -7  287.39   14.52
   0   5  -7  305.12   13.27
   0   5  -7  287.51   15.76
   0   5  -6  285.21   13.09
   0   5  -6  306.47   13.28
   0   5  -6  306.29   14.27
   0   5  -6  337.99   16.12
   0   5  -6  280.02   15.28
   0   5  -5  184.36    9.85
   0   5  -5  212.91   10.10
   0   5  -5  191.78   10.05
   0   5  -5  216.30   12.07
   0   5  -5  211.03   11.99
   0   5  -4   19.47    2.73
   0   5  -4   22.63    2.76
   0   5  -4   22.38    3.01
   0   5  -4   21.83    3.45
   0   5  -4   25.60    3.70
   0   5  -3    1.68    0.91
   0   5  -3    2.91    1.51
   0   5  -3    4.93    1.88
   0   5  -3    4.25    1.81
   0   5  -2  165.13    9.26
   0   5  -2  192.75    7.71
   0   5  -2  151.91    9.52
   0   5  -2  164.71    9.70
   0   5  -1  287.83   13.49
   0   5  -1  296.72   10.44
   0   5  -1  317.64   14.16
   0   5  -1  290.72   13.59
   0   5   0    0.30    1.12
   0   5   0    1.01    1.14
   0   5   0    1.53    1.30
   0   5   1 1040.72   36.00
   0   5   1 1082.63   35.48
   0   5   1  991.98   34.60
   0   5   2  108.30    7.43
   0   5   2  102.89    6.64
   0   5   2  104.75    6.31
   0   5   3  133.08    8.58
   0   5   3  134.14    7.58
   0   5   3  133.65    6.96
   0   5   4   11.45    1.75
   0   5   4   13.88    2.78
   0   5   4   11.60    2.46
   0   5   4    9.68    1.95
   0   5   5  306.34   14.59
   0   5   5  298.62   14.44
   0   5   5  277.22   10.80
   0   5   6  933.03   32.78
   0   5   6  824.11   31.92
   0   5   6  857.86   26.91
   0   5   7  388.01   17.91
   0   5   7  379.73   17.94
   0   5   8  276.50   14.16
   0   5   8  230.11   13.50
   0   5   9    0.27    1.78
   0   5   9   -0.25    1.43
   0   5  10    7.97    2.41
   0   5  11  720.08   30.38
   0   5  12  138.89   10.98
   0   5  13  178.31   13.10
   0   5  14   20.46    5.26
   0   5  15   10.87    3.96
   0   5  16   48.70    7.44
   0   5  17   96.91   10.63
   0   6 -14   87.61   10.20
   0   6 -13  190.17   14.93
   0   6 -12  201.53   15.09
   0   6 -11   43.36    4.89
   0   6 -11   48.06    7.12
   0   6 -10    0.47    1.30
   0   6 -10    3.72    2.98
   0   6  -9   54.31    5.16
   0   6  -9   43.79    4.62
   0   6  -9   55.02    6.99
   0   6  -8  401.50   17.09
   0   6  -8  370.97   16.61
   0   6  -8  407.46   20.64
   0   6  -7  664.34   24.42
   0   6  -7  621.49   25.18
   0   6  -7  573.81   23.83
   0   6  -7  707.22   28.62
   0   6  -6  165.53    9.47
   0   6  -6  184.49   10.20
   0   6  -6  152.50    9.48
   0   6  -6  172.04   11.70
   0   6  -5    5.04    1.79
   0   6  -5    4.61    2.28
   0   6  -5    6.85    2.12
   0   6  -4   35.23    4.84
   0   6  -4   34.27    4.70
   0   6  -4   38.30    3.67
   0   6  -3   38.87    4.91
   0   6  -3   44.43    4.87
   0   6  -3   36.28    3.26
   0   6  -3   46.75    5.23
   0   6  -2 1274.06   42.49
   0   6  -2 1209.13   38.21
   0   6  -2 1269.71   43.36
   0   6  -2 1155.83   42.50
   0   6  -1  223.35   12.11
   0   6  -1  237.01   12.56
   0   6  -1  218.39   11.98
   0   6   0  312.12   14.82
   0   6   0  255.53   13.69
   0   6   0  311.14   14.27
   0   6   1    4.25    1.68
   0   6   1    1.05    1.13
   0   6   1    1.34    1.39
   0   6   2  210.98   11.78
   0   6   2  180.13   10.39
   0   6   2  196.62   10.11
   0   6   3  160.76   10.41
   0   6   3  177.04    9.83
   0   6   3  182.16    9.16
   0   6   4  626.30   25.13
   0   6   4  582.14   24.56
   0   6   4  607.40   23.02
   0   6   4  589.63   21.55
   0   6   5  329.66   16.11
   0   6   5  286.39   15.26
   0   6   5  300.26   12.22
   0   6   6  231.76   13.37
   0   6   6  233.47    9.60
   0   6   7  136.45   10.12
   0   6   7  144.92    6.09
   0   6   8  239.37   14.16
   0   6   9  130.64   10.14
   0   6  10  313.60   17.42
   0   6  11  125.18   10.53
   0   6  12   -2.14    2.21
   0   6  13   37.87    6.35
   0   6  14  142.88   12.44
   0   6  15  113.64   11.37
   0   6  16   90.48   10.21
   0   7 -12   16.73    4.78
   0   7 -11  141.26   12.56
   0   7 -10   97.78    7.56
   0   7 -10   82.87    9.65
   0   7  -9   81.82    6.76
   0   7  -9   72.49    8.71
   0   7  -8   22.34    5.20
   0   7  -8   27.81    4.27
   0   7  -7   12.83    2.69
   0   7  -7    8.32    3.50
   0   7  -7    9.51    2.23
   0   7  -6   48.72    5.03
   0   7  -6   46.86    5.12
   0   7  -6   58.49    7.06
   0   7  -5  468.54   18.63
   0   7  -5  452.50   19.98
   0   7  -5  410.42   21.37
   0   7  -4   73.30    5.44
   0   7  -4   81.99    6.95
   0   7  -4   80.99    7.74
   0   7  -3  202.45    9.11
   0   7  -3  189.07   11.49
   0   7  -3  176.82   11.92
   0   7  -2    0.89    1.78
   0   7  -2    1.06    1.50
   0   7  -1    8.80    2.45
   0   7  -1    6.61    2.28
   0   7   0   95.01    7.95
   0   7   0   96.84    7.86
   0   7   0  100.92    7.77
   0   7   1  278.33   14.42
   0   7   1  266.01   13.76
   0   7   2  192.62   11.36
   0   7   2  194.77   10.81
   0   7   3   50.83    5.32
   0   7   3   51.11    4.83
   0   7   4    2.19    1.37
   0   7   4   -0.64    1.70
   0   7   4    0.54    1.26
   0   7   5  115.13    9.53
   0   7   5  137.57    7.63
   0   7   6    0.41    0.78
   0   7   6    0.91    1.51
   0   7   7  297.33   17.27
   0   7   7  336.95   12.73
   0   7   8   35.23    2.44
   0   7   8   42.43    5.92
   0   7   9   20.97    4.44
   0   7  10   -1.98    1.78
   0   7  11   47.03    6.78
   0   7  12   25.60    5.16
   0   7  13   59.19    8.12
   0   7  14   40.21    6.66
   0   7  15   17.04    5.16
   0   8 -10   24.12    5.31
   0   8  -9    2.77    3.35
   0   8  -8   99.09   10.23
   0   8  -7  146.07   12.53
   0   8  -6  207.82   11.69
   0   8  -6  217.40   14.99
   0   8  -5  199.75   10.63
   0   8  -5  191.14   13.75
   0   8  -4    1.13    2.43
   0   8  -3   -1.91    2.97
   0   8  -2  273.48   15.72
   0   8  -1  365.29   18.51
   0   8   0  438.16   20.53
   0   8   1   25.68    4.09
   0   8   2   52.61    5.52
   0   8   3    8.85    2.36
   0   8   4  326.32   17.82
   0   8   4  321.62   16.24
   0   8   4  302.20   14.64
   0   8   5  422.50   21.75
   0   8   5  426.82   19.74
   0   8   5  457.32   18.41
   0   8   6  106.96    9.77
   0   8   6  126.62    7.53
   0   8   7  124.98   10.65
   0   8   7  118.87    6.94
   0   8   8    1.77    0.90
   0   8   8    8.87    3.48
   0   8   9   10.29    3.89
   0   8  10  157.19   12.82
   0   8  11  148.31   12.77
   0   8  12  172.77   14.18
   0   8  13   20.92    5.09
   0   9  -8   25.47    5.69
   0   9  -7    2.29    3.01
   0   9  -6   10.63    3.77
   0   9  -5   56.14    7.60
   0   9  -4   72.93    8.50
   0   9  -3   25.57    4.94
   0   9  -2    0.96    2.11
   0   9  -1   66.12    7.46
   0   9   0    6.68    2.67
   0   9   1   13.23    3.18
   0   9   2   17.27    3.56
   0   9   3   79.65    7.21
   0   9   4  155.44   12.28
   0   9   4  136.12    9.42
   0   9   5   29.47    3.98
   0   9   5   26.33    5.29
   0   9   6    3.93    1.56
   0   9   6    2.74    2.27
   0   9   7   62.70    7.93
   0   9   8  135.81   12.30
   0   9   9  163.88   13.60
   0   9  10   30.66    6.04
   0   9  11    3.03    2.88
   0  10  -6  125.89   12.43
   0  10  -5  150.89   13.27
   0  10  -4  175.33   14.25
   0  10  -3   60.33    8.20
   0  10  -2    1.62    2.86
   0  10  -1   80.36    8.73
   0  10   0  312.04   18.22
   0  10   1  202.66   13.72
   0  10   2  111.89    9.61
   0  10   3   11.54    3.12
   0  10   3   13.52    4.32
   0  10   4   39.93    5.26
   0  10   4   42.77    7.16
   0  10   5  187.59   14.59
   0  10   5  179.42   11.36
   0  10   6  156.90   13.58
   0  10   7  130.37   12.35
   0  10   8   27.28    5.92
   0  11  -3   17.31    4.84
   0  11  -2   38.92    6.60
   0  11  -1   58.58    8.00
   0  11   0   20.90    4.97
   0  11   1    9.86    4.26
   0  11   2    7.89    3.40
   0  11   3   14.30    3.89
   0  11   3    9.61    3.61
   0  11   4   55.71    6.82
   0  12   0   20.41    5.34
   0  12   1   53.20    7.83
   0  12   2   68.57    8.45
   1 -11  -5  134.96   11.84
   1 -11  -4   77.62    8.86
   1 -11  -3   11.31    4.37
   1 -11  -2   15.05    4.78
   1 -11  -1  110.85   11.06
   1 -11   0  102.15   10.85
   1 -11   1  119.76   12.10
   1 -10  -6   25.80    5.62
   1 -10  -6   36.43    5.44
   1 -10  -5    0.50    2.17
   1 -10  -5    0.30    2.48
   1 -10  -4   -1.01    2.65
   1 -10  -4    1.17    2.88
   1 -10  -3   31.85    5.54
   1 -10  -2   17.42    4.45
   1 -10  -1   45.44    6.66
   1 -10   0   40.42    6.46
   1 -10   1    4.57    2.78
   1 -10   2   -2.65    2.31
   1 -10   3   34.38    6.37
   1 -10   4   53.78    7.97
   1  -9 -10  117.22   12.11
   1  -9  -9  169.03   14.36
   1  -9  -8  286.30   19.07
   1  -9  -7   29.00    5.91
   1  -9  -7   23.80    4.04
   1  -9  -6    6.17    3.55
   1  -9  -6    6.19    2.56
   1  -9  -5  189.37   14.43
   1  -9  -5  177.53   11.81
   1  -9  -4  368.09   20.86
   1  -9  -4  333.02   17.91
   1  -9  -3  233.01   15.73
   1  -9  -3  201.40   13.34
   1  -9  -2   68.59    8.22
   1  -9  -2   64.11    7.27
   1  -9  -1    2.23    1.88
   1  -9   0   59.47    7.24
   1  -9   1  291.40   17.65
   1  -9   2  246.25   16.28
   1  -9   3   78.32    8.85
   1  -9   4   34.17    6.25
   1  -9   5   30.64    6.07
   1  -9   6   76.36    9.27
   1  -9   7  175.56   14.72
   1  -8 -12  132.09   12.43
   1  -8 -11  196.83   15.31
   1  -8 -10   29.51    6.21
   1  -8  -9   12.04    4.61
   1  -8  -8   22.75    5.25
   1  -8  -8   22.23    3.40
   1  -8  -7  103.43   10.35
   1  -8  -7  101.54    7.58
   1  -8  -6  205.06   14.51
   1  -8  -6  210.65   11.98
   1  -8  -5  220.49   14.95
   1  -8  -5  221.25   12.61
   1  -8  -4  327.52   18.47
   1  -8  -4  300.06   15.77
   1  -8  -3    9.03    2.98
   1  -8  -3    5.75    2.35
   1  -8  -2   27.72    4.87
   1  -8  -2   24.54    5.24
   1  -8  -1  446.19   21.55
   1  -8  -1  387.93   19.89
   1  -8   0  294.53   16.48
   1  -8   1  411.60   20.78
   1  -8   2   18.34    4.11
   1  -8   3   24.19    4.68
   1  -8   4  128.86   11.10
   1  -8   4  131.38    8.54
   1  -8   5  324.85   19.05
   1  -8   5  306.37   14.63
   1  -8   6   87.22    9.37
   1  -8   6   86.53    6.64
   1  -8   7   44.52    6.91
   1  -8   8    5.61    2.87
   1  -8   9   16.23    4.59
   1  -7 -15   47.46    7.59
   1  -7 -14  167.62   14.07
   1  -7 -13  137.52   12.64
   1  -7 -12   75.88    9.05
   1  -7 -11    2.22    2.91
   1  -7 -10   96.33    9.77
   1  -7  -9  314.43   18.14
   1  -7  -9  279.18   12.70
   1  -7  -8  370.35   20.01
   1  -7  -8  359.01   15.39
   1  -7  -7  424.92   21.81
   1  -7  -7  432.38   17.94
   1  -7  -6    0.69    1.82
   1  -7  -6    2.46    1.36
   1  -7  -5  100.38    9.16
   1  -7  -5  117.33    7.93
   1  -7  -4  301.50   16.65
   1  -7  -4  275.49   14.02
   1  -7  -3  363.21   18.86
   1  -7  -3  383.40   17.48
   1  -7  -2  480.20   21.87
   1  -7  -2  436.63   19.94
   1  -7  -1  179.33   11.91
   1  -7  -1  198.57   11.81
   1  -7   0    0.17    1.76
   1  -7   0    2.72    1.67
   1  -7   1  157.69   10.97
   1  -7   1  187.77   11.68
   1  -7   1  197.58   12.18
   1  -7   2  361.96   17.45
   1  -7   2  314.60   17.24
   1  -7   3  181.60   11.75
   1  -7   3  219.49   13.45
   1  -7   4  286.57   15.10
   1  -7   4  272.08   16.14
   1  -7   5   65.50    6.46
   1  -7   5   66.53    7.53
   1  -7   5   66.62    5.61
   1  -7   6    0.62    1.57
   1  -7   6    0.60    0.97
   1  -7   6    2.04    1.89
   1  -7   7   78.03    8.64
   1  -7   7   79.34    6.21
   1  -7   8  248.95   16.47
   1  -7   8  232.74   12.12
   1  -7   9  152.17   12.77
   1  -7   9  141.22    9.07
   1  -7  10   38.68    6.71
   1  -7  11   60.67    8.28
   1  -6 -16   97.33   10.52
   1  -6 -15   36.83    6.66
   1  -6 -14    2.78    3.01
   1  -6 -13   10.36    3.90
   1  -6 -12   84.25    8.89
   1  -6 -11  202.80   14.07
   1  -6 -10  156.71   11.72
   1  -6 -10  129.59    6.62
   1  -6  -9    3.19    1.99
   1  -6  -9    3.91    1.27
   1  -6  -8   66.96    7.20
   1  -6  -8   63.04    4.68
   1  -6  -7    2.98    2.60
   1  -6  -7    1.33    1.08
   1  -6  -6  193.43   12.51
   1  -6  -6  199.61    9.98
   1  -6  -5  136.46   10.09
   1  -6  -5  146.60    8.33
   1  -6  -4   18.82    3.52
   1  -6  -4   14.32    2.55
   1  -6  -3   39.10    5.01
   1  -6  -3   41.88    5.08
   1  -6  -3   40.47    4.32
   1  -6  -2    5.21    2.00
   1  -6  -2    7.37    2.60
   1  -6  -2    7.95    2.13
   1  -6  -1   31.29    4.46
   1  -6  -1   41.57    4.84
   1  -6  -1   40.42    4.51
   1  -6   0   10.90    2.59
   1  -6   0   10.16    2.58
   1  -6   0   10.79    2.64
   1  -6   1  371.89   17.32
   1  -6   1  376.52   17.35
   1  -6   1  376.78   17.62
   1  -6   2  113.91    8.28
   1  -6   2  119.05    8.73
   1  -6   3   57.58    5.74
   1  -6   3   63.86    6.50
   1  -6   4    1.63    1.55
   1  -6   4    0.19    1.85
   1  -6   5  254.46   13.30
   1  -6   5  245.89   14.72
   1  -6   5  253.54   12.11
   1  -6   6   21.69    3.53
   1  -6   6   17.14    2.67
   1  -6   6   21.29    4.04
   1  -6   7  297.09   15.57
   1  -6   7  318.34   18.03
   1  -6   7  349.03   14.91
   1  -6   8  147.49    9.97
   1  -6   8  160.42   11.95
   1  -6   8  144.52    8.90
   1  -6   9    5.26    2.40
   1  -6   9   10.21    3.82
   1  -6   9    5.37    2.04
   1  -6  10   11.99    3.81
   1  -6  10   16.08    2.97
   1  -6  11   46.03    7.04
   1  -6  11   50.76    5.45
   1  -6  12  105.95   10.79
   1  -6  13  102.65   10.93
   1  -5 -16   14.37    5.31
   1  -5 -15    0.54    3.12
   1  -5 -14   37.06    5.90
   1  -5 -13  121.19   10.36
   1  -5 -12  155.40   11.59
   1  -5 -11  276.78   16.02
   1  -5 -11  276.30    9.83
   1  -5 -11  273.72    9.79
   1  -5 -11  299.80   14.68
   1  -5 -10  129.16   10.04
   1  -5 -10  120.71    5.65
   1  -5 -10  122.80    8.16
   1  -5  -9   46.65    5.83
   1  -5  -9   58.22    3.72
   1  -5  -9   54.38    4.88
   1  -5  -8  103.12    8.64
   1  -5  -8  113.12    5.87
   1  -5  -8  116.75    6.89
   1  -5  -7  626.04   25.97
   1  -5  -7  617.56   21.43
   1  -5  -6  616.34   25.59
   1  -5  -6  624.93   21.82
   1  -5  -5  296.25   15.28
   1  -5  -5  314.27   12.84
   1  -5  -4    3.32    1.80
   1  -5  -4    3.02    1.23
   1  -5  -3  119.23    8.33
   1  -5  -3  124.47    7.29
   1  -5  -2  665.78   26.34
   1  -5  -2  650.45   24.88
   1  -5  -1  716.54   27.26
   1  -5  -1  695.14   26.27
   1  -5  -1  764.27   27.44
   1  -5   0  303.18   14.23
   1  -5   0  297.16   14.03
   1  -5   0  294.42   13.83
   1  -5   1    1.68    1.40
   1  -5   1   -0.37    1.52
   1  -5   1    0.87    1.07
   1  -5   2   38.19    4.14
   1  -5   2   27.78    3.54
   1  -5   2   31.95    4.07
   1  -5   3  158.89    9.31
   1  -5   3  151.57    9.79
   1  -5   4  259.32   12.85
   1  -5   4  275.43   14.28
   1  -5   4  258.92   11.81
   1  -5   5  651.53   25.56
   1  -5   5  714.27   28.15
   1  -5   5  687.76   24.69
   1  -5   6    2.49    1.73
   1  -5   6   -0.47    0.98
   1  -5   6   -1.26    1.48
   1  -5   7   35.86    4.32
   1  -5   7   36.70    3.88
   1  -5   7   34.29    5.11
   1  -5   8  135.60    8.95
   1  -5   8  137.17   10.54
   1  -5   8  134.26    8.38
   1  -5   9   30.75    4.20
   1  -5   9   33.26    5.32
   1  -5   9   30.15    3.89
   1  -5  10  189.07   11.64
   1  -5  10  204.39   14.08
   1  -5  10  204.03   11.54
   1  -5  11  148.68   12.22
   1  -5  11  172.02   10.68
   1  -5  12   33.50    5.92
   1  -5  12   22.05    3.76
   1  -5  13    6.05    2.50
   1  -4 -16   93.22    9.18
   1  -4 -15  147.28   11.51
   1  -4 -14   83.85    8.30
   1  -4 -13   85.45    8.15
   1  -4 -12   10.25    3.04
   1  -4 -11   20.48    3.92
   1  -4 -11   25.54    1.80
   1  -4 -11   26.29    1.82
   1  -4 -11   25.74    3.87
   1  -4 -10  507.45   22.34
   1  -4 -10  507.50   16.36
   1  -4 -10  488.93   16.34
   1  -4 -10  522.81   21.16
   1  -4  -9  165.04   10.76
   1  -4  -9  158.91    9.44
   1  -4  -9  182.20    7.07
   1  -4  -8  194.10   11.48
   1  -4  -8  192.70    9.77
   1  -4  -8  188.89    7.64
   1  -4  -8  193.38   11.88
   1  -4  -7   94.36    7.25
   1  -4  -7   78.37    4.23
   1  -4  -7   69.86    5.02
   1  -4  -6   24.99    3.69
   1  -4  -6   23.45    2.24
   1  -4  -6   29.22    2.75
   1  -4  -5  534.31   21.72
   1  -4  -5  535.53   18.49
   1  -4  -4  320.86   14.52
   1  -4  -4  299.48   11.97
   1  -4  -3  248.55   12.04
   1  -4  -3  228.15   10.07
   1  -4  -2  167.54    9.43
   1  -4  -2  169.04    8.43
   1  -4  -2  192.23    9.81
   1  -4  -1   33.00    3.65
   1  -4  -1   31.38    3.58
   1  -4  -1   31.37    3.28
   1  -4   0    1.50    1.18
   1  -4   0    0.46    1.28
   1  -4   0    0.68    1.09
   1  -4   1  539.63   20.59
   1  -4   1  603.47   21.45
   1  -4   1  518.12   20.52
   1  -4   2  315.33   13.63
   1  -4   2  317.28   13.96
   1  -4   2  352.43   14.89
   1  -4   3  159.47    8.73
   1  -4   3  165.01    9.55
   1  -4   4   13.34    2.30
   1  -4   4   12.72    2.66
   1  -4   4   12.72    2.00
   1  -4   5   85.21    6.13
   1  -4   5   90.05    7.18
   1  -4   5   89.43    5.79
   1  -4   6   43.85    4.40
   1  -4   6   33.17    3.53
   1  -4   6   38.46    4.86
   1  -4   7  142.49    8.70
   1  -4   7  145.02    9.93
   1  -4   7  138.14    8.11
   1  -4   8  104.44    7.38
   1  -4   8   93.97    8.19
   1  -4   8   95.62    6.79
   1  -4   9   44.05    4.89
   1  -4   9   55.55    6.32
   1  -4   9   52.89    5.13
   1  -4  10   72.54    6.50
   1  -4  10   80.25    7.96
   1  -4  10   75.76    6.58
   1  -4  11    4.93    2.43
   1  -4  11    9.60    2.91
   1  -4  11   13.20    2.93
   1  -4  12    6.40    2.34
   1  -4  13   30.11    4.74
   1  -4  14  131.80   10.44
   1  -4  15   96.83    9.28
   1  -3 -17   63.26    8.69
   1  -3 -16  126.14   11.72
   1  -3 -16  115.90    9.64
   1  -3 -15   47.64    5.90
   1  -3 -14    5.47    2.36
   1  -3 -13   32.83    4.68
   1  -3 -12  338.62   16.92
   1  -3 -12  342.63   11.78
   1  -3 -12  339.95   11.77
   1  -3 -11  300.23   15.20
   1  -3 -11  295.24   10.40
   1  -3 -11  292.61   10.37
   1  -3 -11  301.47   15.37
   1  -3 -10  333.45   16.33
   1  -3 -10  336.02   16.13
   1  -3 -10  361.24   11.94
   1  -3 -10  342.97   11.87
   1  -3  -9   18.96    3.22
   1  -3  -9   16.44    2.93
   1  -3  -9   15.64    3.15
   1  -3  -9   18.10    1.56
   1  -3  -9   16.41    1.55
   1  -3  -9   20.80    3.71
   1  -3  -8    0.35    1.31
   1  -3  -8    1.47    1.23
   1  -3  -8   -0.23    1.64
   1  -3  -8    0.67    0.97
   1  -3  -8    1.26    0.53
   1  -3  -7  170.13    9.70
   1  -3  -7  149.44    8.28
   1  -3  -7  181.19   10.32
   1  -3  -7  173.32    6.48
   1  -3  -7  155.74    9.82
   1  -3  -6 1435.03   46.57
   1  -3  -6 1366.67   42.16
   1  -3  -6 1445.76   46.98
   1  -3  -6 1432.26   44.45
   1  -3  -5 1031.88   34.14
   1  -3  -5 1032.42   34.37
   1  -3  -5  960.05   30.29
   1  -3  -5  967.78   31.42
   1  -3  -4  350.11   14.81
   1  -3  -4  350.21   12.33
   1  -3  -3  401.69   16.25
   1  -3  -3  410.61   14.32
   1  -3  -2    4.99    1.46
   1  -3  -2    7.36    1.39
   1  -3  -1  873.74   28.34
   1  -3  -1  795.82   27.03
   1  -3  -1  816.31   27.98
   1  -3   0 1424.89   45.72
   1  -3   0 1525.90   45.76
   1  -3   0 1390.56   45.71
   1  -3   1 3106.74   89.51
   1  -3   1 2840.15   89.73
   1  -3   1 2962.21   89.69
   1  -3   2 1864.49   54.67
   1  -3   2 1673.16   54.94
   1  -3   2 1755.33   55.75
   1  -3   3   14.78    2.23
   1  -3   3   12.40    2.25
   1  -3   4   58.07    4.45
   1  -3   4   52.48    4.85
   1  -3   4   55.94    4.15
   1  -3   5 1719.04   54.40
   1  -3   5 1759.78   56.19
   1  -3   5 1690.70   53.77
   1  -3   6 1729.49   56.28
   1  -3   6 1856.84   58.44
   1  -3   6 1760.80   55.86
   1  -3   7 1155.02   38.85
   1  -3   7 1133.99   40.46
   1  -3   7 1155.84   38.50
   1  -3   8   43.44    4.49
   1  -3   8   43.20    5.01
   1  -3   8   38.29    4.12
   1  -3   9    4.66    1.72
   1  -3   9    2.39    1.89
   1  -3   9    5.72    1.69
   1  -3  10  275.36   13.86
   1  -3  10  274.88   15.21
   1  -3  10  265.37   13.72
   1  -3  11  664.24   26.83
   1  -3  12  272.97   14.97
   1  -3  13   48.57    5.98
   1  -3  14    3.94    1.98
   1  -3  15   16.18    4.11
   1  -2 -18  110.31   11.54
   1  -2 -17    0.87    3.17
   1  -2 -16    6.59    4.23
   1  -2 -15   59.64    6.25
   1  -2 -15   50.50    7.01
   1  -2 -14   61.50    6.19
   1  -2 -14   62.79    7.31
   1  -2 -13  172.35   10.88
   1  -2 -13  182.55    8.09
   1  -2 -12   93.84    7.32
   1  -2 -12   90.94    5.03
   1  -2 -11   20.86    3.33
   1  -2 -11   24.64    2.26
   1  -2 -10  119.79    8.10
   1  -2 -10  140.87    9.15
   1  -2 -10  133.50    9.39
   1  -2 -10  120.60    5.64
   1  -2  -9   87.72    6.51
   1  -2  -9   79.41    6.42
   1  -2  -9   88.06    7.15
   1  -2  -9   81.00    4.07
   1  -2  -9   84.77    7.12
   1  -2  -8  285.83   13.23
   1  -2  -8  279.89   13.19
   1  -2  -8  283.05    9.99
   1  -2  -8  304.36   14.35
   1  -2  -8  299.47   14.44
   1  -2  -7    3.55    1.58
   1  -2  -7    4.89    1.46
   1  -2  -7    4.02    0.74
   1  -2  -7    3.33    1.49
   1  -2  -7    2.25    1.50
   1  -2  -6  847.50   28.95
   1  -2  -6  815.47   25.05
   1  -2  -6  830.76   29.50
   1  -2  -6  872.08   28.32
   1  -2  -5  121.38    6.93
   1  -2  -5  123.68    7.17
   1  -2  -5  114.38    4.36
   1  -2  -5  112.60    5.99
   1  -2  -4   27.71    3.00
   1  -2  -4   30.44    1.79
   1  -2  -4   30.83    3.18
   1  -2  -4   30.42    2.48
   1  -2  -3   26.51    2.81
   1  -2  -3   23.72    1.69
   1  -2  -3   21.79    2.56
   1  -2  -2   38.93    3.28
   1  -2  -2   38.82    2.48
   1  -2  -1  115.67    5.89
   1  -2  -1  102.28    5.03
   1  -2  -1  123.09    6.08
   1  -2   0  316.86   12.08
   1  -2   0  357.66   12.20
   1  -2   0  300.27   12.06
   1  -2   1  604.21   21.05
   1  -2   1  692.45   21.97
   1  -2   1  649.34   21.69
   1  -2   2   81.80    4.27
   1  -2   2   80.20    4.72
   1  -2   2   82.16    5.04
   1  -2   3   75.72    4.66
   1  -2   3   83.21    5.36
   1  -2   3   76.18    4.52
   1  -2   4  608.72   21.40
   1  -2   4  598.53   22.21
   1  -2   4  630.97   21.24
   1  -2   5 1006.59   33.92
   1  -2   5 1078.40   35.27
   1  -2   5 1027.50   33.77
   1  -2   6  130.69    7.54
   1  -2   6  152.03    8.65
   1  -2   6  151.43    7.85
   1  -2   7    0.57    1.09
   1  -2   7    0.67    1.37
   1  -2   7    1.20    1.13
   1  -2   8  183.47    9.97
   1  -2   8  193.52   10.94
   1  -2   8  202.09   10.48
   1  -2   9  364.30   16.66
   1  -2   9  401.61   17.98
   1  -2   9  398.36   17.19
   1  -2  10  235.73   12.68
   1  -2  11  355.27   17.17
   1  -2  12    5.01    2.27
   1  -2  13   10.66    3.04
   1  -2  14  112.27    9.66
   1  -1 -17   81.08    9.05
   1  -1 -16   95.10    9.47
   1  -1 -15  137.92   10.96
   1  -1 -15  123.69    8.76
   1  -1 -14   27.82    4.68
   1  -1 -14   32.38    4.33
   1  -1 -13   41.36    4.59
   1  -1 -13   41.33    5.37
   1  -1 -13   40.33    3.76
   1  -1 -13   40.48    3.31
   1  -1 -12  133.71    9.66
   1  -1 -12  134.34    8.56
   1  -1 -12  135.03    7.19
   1  -1 -12  137.71    6.73
   1  -1 -11   27.02    3.50
   1  -1 -11   25.47    2.67
   1  -1 -11   30.14    4.47
   1  -1 -11   30.79    2.68
   1  -1 -10  358.14   15.63
   1  -1 -10  361.19   17.31
   1  -1 -10  381.52   17.57
   1  -1 -10  356.47   13.66
   1  -1 -10  377.71   17.72
   1  -1 -10  376.99   13.26
   1  -1  -9  990.48   34.60
   1  -1  -9 1070.10   36.62
   1  -1  -9 1006.69   36.32
   1  -1  -9 1008.89   32.13
   1  -1  -9 1052.12   36.84
   1  -1  -9 1014.11   31.63
   1  -1  -8  170.66    9.03
   1  -1  -8  177.83    9.95
   1  -1  -8  183.26   10.19
   1  -1  -8  178.18    7.33
   1  -1  -8  202.00   10.69
   1  -1  -8  184.36    7.07
   1  -1  -7    2.01    1.06
   1  -1  -7    3.19    0.70
   1  -1  -7    1.01    1.00
   1  -1  -7    0.74    1.11
   1  -1  -7    0.73    0.45
   1  -1  -7    2.91    1.48
   1  -1  -6  229.71   10.16
   1  -1  -6  218.94   10.31
   1  -1  -6  230.26   10.80
   1  -1  -6  224.20    7.88
   1  -1  -6  235.11   10.99
   1  -1  -6  229.00    7.73
   1  -1  -5 1090.25   34.15
   1  -1  -5 1008.40   33.90
   1  -1  -5 1076.70   34.77
   1  -1  -5 1040.03   31.14
   1  -1  -5 1057.57   31.04
   1  -1  -4 1845.30   55.19
   1  -1  -4 1805.49   55.55
   1  -1  -4 1749.29   54.61
   1  -1  -3  520.02   18.24
   1  -1  -3  522.61   18.48
   1  -1  -3  556.87   17.74
   1  -1  -2    8.55    1.48
   1  -1  -2   10.17    1.52
   1  -1  -1   34.48    2.49
   1  -1  -1   35.27    1.95
   1  -1  -1   33.62    2.40
   1  -1  -1   30.90    2.41
   1  -1   0 2571.33   73.84
   1  -1   0 2697.59   74.19
   1  -1   1 1072.79   32.87
   1  -1   1  999.23   33.46
   1  -1   2  278.74    9.37
   1  -1   2  279.44   10.46
   1  -1   2  303.03   10.95
   1  -1   3  121.61    5.81
   1  -1   3  114.20    5.99
   1  -1   3  116.58    5.66
   1  -1   4  216.83    9.14
   1  -1   4  210.91    9.48
   1  -1   4  212.36    9.05
   1  -1   5  151.68    7.43
   1  -1   5  136.82    7.52
   1  -1   5  153.63    7.48
   1  -1   6 1484.41   47.56
   1  -1   6 1514.50   48.17
   1  -1   6 1493.18   47.71
   1  -1   7  572.14   21.00
   1  -1   7  545.39   21.09
   1  -1   8  273.34   12.96
   1  -1   9   63.99    5.69
   1  -1  10   16.47    3.11
   1  -1  11  104.28    8.18
   1  -1  12  416.57   19.94
   1  -1  13  208.56   13.30
   1  -1  14   60.50    7.05
   1   0 -17  115.83   10.65
   1   0 -16   12.47    3.25
   1   0 -15    0.11    1.49
   1   0 -14   47.21    5.86
   1   0 -14   45.16    4.63
   1   0 -14   55.00    4.87
   1   0 -13  202.94   10.51
   1   0 -13  205.28   12.22
   1   0 -13  183.57    9.99
   1   0 -13  187.80    9.84
   1   0 -12 1159.49   38.04
   1   0 -12 1065.64   39.63
   1   0 -12 1073.81   37.08
   1   0 -12 1135.39   37.11
   1   0 -11    2.88    1.57
   1   0 -11    2.42    1.18
   1   0 -11    2.43    1.49
   1   0 -11    6.30    2.16
   1   0 -11    3.41    1.27
   1   0 -11    5.11    2.26
   1   0 -10   65.75    5.13
   1   0 -10   77.36    6.15
   1   0 -10   80.91    7.04
   1   0 -10   75.60    5.04
   1   0 -10   72.25    6.58
   1   0 -10   70.93    4.90
   1   0 -10   68.48    6.36
   1   0  -9    2.82    1.16
   1   0  -9    2.94    1.00
   1   0  -9    3.54    1.72
   1   0  -9    1.30    1.44
   1   0  -9    3.28    1.10
   1   0  -9    5.14    1.94
   1   0  -8  613.33   21.72
   1   0  -8  610.90   23.70
   1   0  -8  595.35   20.67
   1   0  -8  626.82   23.61
   1   0  -8  601.87   20.74
   1   0  -8  616.32   23.34
   1   0  -7  425.96   15.85
   1   0  -7  428.61   17.32
   1   0  -7  416.87   14.76
   1   0  -7  416.43   17.10
   1   0  -7  410.44   14.80
   1   0  -7  429.53   17.04
   1   0  -6 2039.12   61.67
   1   0  -6 2020.47   63.04
   1   0  -6 1996.87   60.26
   1   0  -6 2017.34   63.02
   1   0  -6 2003.18   62.67
   1   0  -6 2033.12   60.48
   1   0  -5  736.54   23.96
   1   0  -5  728.96   24.80
   1   0  -5  716.37   22.50
   1   0  -5  727.73   24.89
   1   0  -5  725.58   24.59
   1   0  -5  711.46   22.75
   1   0  -4    9.81    1.10
   1   0  -4    8.94    1.45
   1   0  -4   10.27    1.67
   1   0  -4    7.87    1.51
   1   0  -4    9.34    0.95
   1   0  -4    9.10    1.47
   1   0  -3 1223.86   37.83
   1   0  -3 1218.77   37.99
   1   0  -3 1237.62   38.28
   1   0  -3 1243.93   36.71
   1   0  -2  150.25    6.04
   1   0  -2  151.06    5.96
   1   0  -2  140.08    6.02
   1   0  -2  146.33    5.19
   1   0  -1  675.22   20.54
   1   0  -1  685.08   21.13
   1   0  -1  679.34   21.02
   1   0  -1  683.25   20.78
   1   0   0 2156.84   63.49
   1   0   0 2031.64   63.04
   1   0   1  549.04   17.33
   1   0   2  246.34    8.76
   1   0   2  225.86    8.64
   1   0   3   17.49    1.86
   1   0   3   21.77    2.08
   1   0   4   22.25    2.29
   1   0   4   23.56    1.98
   1   0   4   23.93    2.46
   1   0   5  324.95   13.27
   1   0   5  345.15   12.59
   1   0   5  365.03   13.78
   1   0   6  876.77   29.33
   1   0   6  934.51   30.76
   1   0   7  197.71    9.18
   1   0   7  188.67    9.86
   1   0   8   40.32    3.82
   1   0   8   42.55    4.37
   1   0   9   41.72    4.55
   1   0  10  175.26   10.69
   1   0  11  235.52   13.40
   1   0  12  174.76   11.64
   1   0  13  107.71    9.33
   1   1 -16   77.95    7.83
   1   1 -15   75.40    7.43
   1   1 -15   79.43    6.77
   1   1 -14   80.02    7.33
   1   1 -14   80.73    5.85
   1   1 -14   75.01    6.46
   1   1 -13  132.77    7.82
   1   1 -13  130.49    9.19
   1   1 -13  126.21    8.54
   1   1 -13  132.03    8.63
   1   1 -12  144.21    8.10
   1   1 -12  143.51    9.36
   1   1 -12  139.47    8.71
   1   1 -12  160.65    9.21
   1   1 -11  105.72    6.58
   1   1 -11  108.84    7.55
   1   1 -11   97.48    6.90
   1   1 -11  116.26    8.77
   1   1 -11  100.79    6.98
   1   1 -11  113.62    8.37
   1   1 -10    7.99    1.74
   1   1 -10    8.26    1.97
   1   1 -10    8.82    2.01
   1   1 -10    5.71    1.80
   1   1 -10    6.28    1.70
   1   1 -10    7.31    1.96
   1   1  -9  883.09   29.51
   1   1  -9  944.55   33.17
   1   1  -9  870.58   30.33
   1   1  -9  858.54   29.90
   1   1  -9  861.27   32.12
   1   1  -9  883.43   31.56
   1   1  -9  850.16   30.02
   1   1  -8  279.16   12.15
   1   1  -8  319.49   14.76
   1   1  -8  324.00   13.09
   1   1  -8  299.08   12.58
   1   1  -8  311.29   14.34
   1   1  -8  309.82   13.79
   1   1  -8  313.13   12.91
   1   1  -7  456.08   16.82
   1   1  -7  472.20   17.16
   1   1  -7  482.34   19.06
   1   1  -7  476.89   17.08
   1   1  -7  469.46   18.70
   1   1  -7  443.35   17.81
   1   1  -7  463.76   17.27
   1   1  -6  148.08    6.94
   1   1  -6  143.39    6.84
   1   1  -6  126.79    7.69
   1   1  -6  149.29    6.95
   1   1  -6  148.43    8.09
   1   1  -6  153.78    7.57
   1   1  -6  147.71    7.15
   1   1  -5    2.31    0.82
   1   1  -5    2.06    0.98
   1   1  -5    2.62    1.10
   1   1  -5    4.44    1.06
   1   1  -5    3.53    1.28
   1   1  -5    2.34    0.92
   1   1  -5    0.83    0.68
   1   1  -4 1458.01   45.67
   1   1  -4 1466.39   45.72
   1   1  -4 1465.29   44.38
   1   1  -4 1463.27   44.68
   1   1  -4 1460.14   44.76
   1   1  -3 2213.71   65.04
   1   1  -3 2139.06   65.09
   1   1  -3 2130.00   63.97
   1   1  -3 2190.41   64.06
   1   1  -3 2145.66   64.38
   1   1  -2 3940.84  113.02
   1   1  -2 3733.33  112.31
   1   1  -2 3897.73  113.20
   1   1  -2 3919.53  112.70
   1   1  -1  430.98   13.90
   1   1  -1  448.85   14.17
   1   1   0  152.53    5.59
   1   1   1  672.33   20.93
   1   1   1  698.97   21.01
   1   1   2 2367.09   69.27
   1   1   2 2372.21   69.10
   1   1   2 2377.41   70.14
   1   1   3 6527.71  187.43
   1   1   3 6585.44  187.68
   1   1   3 6234.34  188.84
   1   1   4 2974.61   87.44
   1   1   4 3119.49   88.25
   1   1   4 2846.57   89.35
   1   1   5  776.64   24.42
   1   1   5  804.61   25.54
   1   1   5  787.52   26.77
   1   1   6  876.24   28.23
   1   1   6  926.93   29.78
   1   1   6  974.69   31.37
   1   1   7 1528.44   47.58
   1   1   7 1684.40   49.80
   1   1   7 1531.93   50.82
   1   1   8 1878.91   56.89
   1   1   8 1883.05   59.19
   1   1   8 1886.32   60.75
   1   1   9 1134.99   38.11
   1   1   9 1110.61   39.49
   1   1  10  202.21   10.96
   1   1  10  211.98   12.17
   1   1  11   20.72    3.31
   1   1  11   19.91    3.64
   1   1  12  638.98   25.84
   1   1  12  624.35   27.14
   1   1  13  423.43   19.90
   1   1  14  129.77    9.93
   1   2 -15   31.71    4.64
   1   2 -15   36.82    4.93
   1   2 -14    2.85    1.86
   1   2 -14    2.13    1.77
   1   2 -13   18.60    3.20
   1   2 -13   19.23    2.75
   1   2 -13   21.40    3.62
   1   2 -13   21.91    3.69
   1   2 -12  377.64   15.48
   1   2 -12  394.86   17.36
   1   2 -12  378.68   17.65
   1   2 -12  408.18   18.16
   1   2 -11  216.11   10.01
   1   2 -11  225.33   11.26
   1   2 -11  206.03   11.37
   1   2 -11  191.72   11.56
   1   2 -11  199.43   11.45
   1   2 -10  212.43    9.59
   1   2 -10  194.11   10.06
   1   2 -10  201.48   10.74
   1   2 -10  179.14   11.40
   1   2 -10  185.28   10.74
   1   2 -10  198.43   10.88
   1   2  -9   21.78    2.67
   1   2  -9   20.01    3.11
   1   2  -9   21.41    3.55
   1   2  -9   18.67    2.59
   1   2  -9   24.36    3.72
   1   2  -9   22.66    3.21
   1   2  -9   26.13    3.34
   1   2  -8   26.52    3.26
   1   2  -8   20.55    2.46
   1   2  -8   27.02    3.75
   1   2  -8   22.00    2.58
   1   2  -8   21.63    3.40
   1   2  -8   21.33    2.89
   1   2  -8   21.84    2.97
   1   2  -7   73.20    5.92
   1   2  -7   77.21    4.69
   1   2  -7   73.13    5.86
   1   2  -7   75.48    5.32
   1   2  -7   69.77    4.98
   1   2  -7   76.45    5.52
   1   2  -6 1845.05   56.56
   1   2  -6 1741.70   53.62
   1   2  -6 1808.51   56.42
   1   2  -6 1697.72   54.99
   1   2  -6 1715.55   54.37
   1   2  -6 1842.50   55.77
   1   2  -5  179.53    8.94
   1   2  -5  178.51    7.21
   1   2  -5  187.20    9.18
   1   2  -5  181.38    8.42
   1   2  -5  169.85    7.62
   1   2  -5  192.23    8.87
   1   2  -4  386.48   15.02
   1   2  -4  408.79   13.19
   1   2  -4  404.56   15.45
   1   2  -4  403.41   14.75
   1   2  -4  383.39   13.55
   1   2  -4  419.14   15.19
   1   2  -3   32.82    2.76
   1   2  -3   32.33    1.80
   1   2  -3   38.04    2.92
   1   2  -3   31.42    1.97
   1   2  -3   33.73    2.93
   1   2  -2    2.05    0.81
   1   2  -2    3.19    1.15
   1   2  -2    1.34    0.77
   1   2  -1 2167.22   63.91
   1   2  -1 2112.25   63.96
   1   2   0 1694.41   53.09
   1   2   0 1848.25   53.05
   1   2   1  813.63   24.90
   1   2   1  811.58   24.11
   1   2   1  735.43   24.22
   1   2   2   40.13    2.78
   1   2   2   41.36    2.75
   1   2   2   38.43    2.27
   1   2   3    3.97    1.01
   1   2   3    2.06    0.70
   1   2   3    1.67    0.83
   1   2   3    1.82    1.00
   1   2   4  225.00    9.19
   1   2   4  233.10    9.40
   1   2   4  261.24   10.41
   1   2   5  320.15   12.37
   1   2   5  339.97   12.85
   1   2   5  361.58   14.00
   1   2   6  891.52   29.19
   1   2   6  885.93   29.87
   1   2   6  950.70   31.44
   1   2   7  964.58   31.60
   1   2   7 1001.55   32.81
   1   2   7  963.06   33.96
   1   2   8   27.09    2.79
   1   2   8   26.50    3.29
   1   2   8   25.01    3.58
   1   2   9    0.18    0.87
   1   2   9    0.40    1.17
   1   2   9    0.21    1.20
   1   2  10  100.85    6.17
   1   2  10  102.47    7.36
   1   2  11   60.25    4.75
   1   2  11   60.03    5.76
   1   2  12  729.39   28.85
   1   2  13  208.04   12.73
   1   2  14   32.63    4.92
   1   2  15   -4.68    2.41
   1   2  16   51.03    6.78
   1   2  17  135.77   11.59
   1   3 -16    8.46    3.74
   1   3 -15   22.41    4.44
   1   3 -14   56.61    5.69
   1   3 -14   55.25    6.55
   1   3 -13  147.40    9.40
   1   3 -13  158.73    8.25
   1   3 -13  161.26   11.15
   1   3 -12  331.39   15.08
   1   3 -12  331.58   13.76
   1   3 -12  312.38   16.68
   1   3 -12  339.37   16.66
   1   3 -11  111.67    6.60
   1   3 -11  107.25    7.06
   1   3 -11  103.97    8.05
   1   3 -11   93.93    7.52
   1   3 -11   99.94    8.14
   1   3 -10   36.80    3.52
   1   3 -10   34.39    4.44
   1   3 -10   30.91    3.52
   1   3 -10   37.72    4.84
   1   3 -10   35.52    4.19
   1   3 -10   37.28    4.50
   1   3  -9   61.08    6.08
   1   3  -9   62.31    4.62
   1   3  -9   60.75    6.07
   1   3  -9   58.14    5.53
   1   3  -9   57.13    4.96
   1   3  -9   53.10    5.49
   1   3  -8  249.00   12.87
   1   3  -8  233.59   10.16
   1   3  -8  233.73   12.57
   1   3  -8  236.49   11.99
   1   3  -8  219.90   10.68
   1   3  -8  236.19   12.22
   1   3  -7  977.27   33.94
   1   3  -7  963.08   30.71
   1   3  -7  920.40   33.77
   1   3  -7  961.07   33.19
   1   3  -7  913.11   31.26
   1   3  -7  952.50   33.55
   1   3  -6 1458.34   47.68
   1   3  -6 1414.13   44.69
   1   3  -6 1461.29   48.10
   1   3  -6 1466.22   47.41
   1   3  -6 1432.40   45.23
   1   3  -6 1562.48   48.19
   1   3  -5   39.28    3.78
   1   3  -5   43.78    2.92
   1   3  -5   39.26    3.79
   1   3  -5   42.67    2.98
   1   3  -5   45.25    4.26
   1   3  -4   19.77    2.45
   1   3  -4   18.77    1.70
   1   3  -4   21.54    2.86
   1   3  -4   20.09    1.73
   1   3  -4   16.54    2.41
   1   3  -3 1073.15   32.21
   1   3  -3 1086.84   33.88
   1   3  -3 1106.80   34.86
   1   3  -2 1099.37   33.98
   1   3  -2 1051.76   35.05
   1   3  -2 1109.62   35.33
   1   3  -1  704.99   24.30
   1   3  -1  754.91   24.51
   1   3   0  698.53   23.68
   1   3   0  671.31   23.54
   1   3   0  767.59   23.71
   1   3   1  620.94   21.25
   1   3   1  643.44   21.13
   1   3   1  610.72   20.50
   1   3   2   32.68    3.00
   1   3   2   34.99    2.50
   1   3   3  867.22   29.19
   1   3   3  902.24   27.61
   1   3   4  283.27   12.03
   1   3   4  309.07   10.41
   1   3   4  301.96   12.13
   1   3   5   70.07    4.79
   1   3   5   72.00    4.90
   1   3   6  182.01    8.82
   1   3   6  175.75    8.87
   1   3   7    1.16    0.84
   1   3   7    0.56    0.85
   1   3   8  155.98    8.38
   1   3   8  156.13    8.92
   1   3   9  345.67   14.73
   1   3   9  340.41   15.51
   1   3  10  399.60   16.80
   1   3  10  410.95   18.12
   1   3  11   53.10    4.87
   1   3  11   51.11    5.46
   1   3  12   16.51    2.97
   1   3  12   14.27    3.21
   1   3  13   76.95    6.29
   1   3  13   79.06    7.47
   1   3  14   71.32    7.34
   1   3  15   76.84    8.03
   1   3  16   85.81    8.98
   1   3  17   38.63    6.27
   1   4 -16   77.22    9.18
   1   4 -15   91.01    9.45
   1   4 -14   48.38    6.63
   1   4 -13   11.12    2.63
   1   4 -13   16.01    3.81
   1   4 -12   29.86    3.75
   1   4 -12   29.85    4.80
   1   4 -12   27.36    3.24
   1   4 -12   34.29    4.59
   1   4 -11  293.31   13.07
   1   4 -11  271.09   12.29
   1   4 -11  265.80   13.69
   1   4 -11  261.42   15.25
   1   4 -10  260.04   11.80
   1   4 -10  249.34   12.43
   1   4 -10  236.13   13.96
   1   4  -9   15.34    3.20
   1   4  -9   13.48    2.15
   1   4  -9   11.20    2.61
   1   4  -9   12.10    2.44
   1   4  -9   12.99    2.83
   1   4  -8  117.22    6.50
   1   4  -8  124.24    8.63
   1   4  -8  122.12    8.85
   1   4  -8  108.78    8.13
   1   4  -8  109.26    6.64
   1   4  -8  111.86    8.45
   1   4  -7    1.39    1.46
   1   4  -7    3.62    1.68
   1   4  -7    5.33    1.38
   1   4  -7    5.39    1.97
   1   4  -7    3.58    1.17
   1   4  -7    3.52    1.42
   1   4  -6   44.52    3.31
   1   4  -6   46.96    4.53
   1   4  -6   36.85    4.41
   1   4  -6   36.36    4.30
   1   4  -5  192.19    8.11
   1   4  -5  186.53    9.63
   1   4  -5  186.57   10.31
   1   4  -5  210.86   10.94
   1   4  -4  258.10   10.19
   1   4  -4  283.31   11.80
   1   4  -4  284.05   12.90
   1   4  -4  263.13   12.71
   1   4  -3  385.64   14.67
   1   4  -3  402.73   16.32
   1   4  -3  390.70   16.21
   1   4  -2  520.59   18.96
   1   4  -2  481.31   17.45
   1   4  -2  549.22   19.81
   1   4  -2  535.29   19.66
   1   4  -1   38.42    4.10
   1   4  -1   44.00    3.75
   1   4  -1   40.07    3.73
   1   4   0   98.59    5.94
   1   4   0   79.80    5.46
   1   4   0   94.90    5.64
   1   4   1  539.35   19.42
   1   4   1  495.23   18.75
   1   4   1  520.37   18.43
   1   4   2  941.38   31.96
   1   4   2  919.16   31.28
   1   4   2  978.95   30.60
   1   4   3  315.51   13.13
   1   4   3  290.24   11.17
   1   4   4  144.11    8.05
   1   4   4  129.46    7.66
   1   4   4  151.14    6.35
   1   4   5   22.31    3.01
   1   4   5   16.45    1.65
   1   4   5   16.52    2.63
   1   4   6  133.45    8.06
   1   4   6  146.49    8.36
   1   4   7  570.28   22.18
   1   4   7  585.39   22.50
   1   4   8   73.88    5.91
   1   4   8   70.70    5.94
   1   4   9  219.82   11.48
   1   4   9  210.54   11.70
   1   4  10    5.79    2.16
   1   4  10    4.83    2.04
   1   4  11   13.55    2.83
   1   4  11   18.08    3.55
   1   4  12  199.30   11.59
   1   4  12  196.37   12.45
   1   4  13   98.71    7.97
   1   4  13   98.27    8.65
   1   4  14  118.16    9.99
   1   4  15   11.07    3.39
   1   4  16   -2.86    3.17
   1   4  17   14.33    4.33
   1   5 -16   58.80    8.31
   1   5 -15    2.09    2.41
   1   5 -14    5.14    3.35
   1   5 -13   31.31    5.59
   1   5 -12  139.96    8.52
   1   5 -12  133.14   11.14
   1   5 -11  579.10   21.45
   1   5 -11  510.62   20.69
   1   5 -11  575.10   25.91
   1   5 -10  119.79    7.24
   1   5 -10  106.82    7.15
   1   5 -10  125.99   10.02
   1   5  -9   59.26    4.72
   1   5  -9   57.70    4.98
   1   5  -9   71.30    7.16
   1   5  -8   46.06    3.93
   1   5  -8   45.44    5.22
   1   5  -8   38.89    4.09
   1   5  -8   38.66    5.22
   1   5  -7  461.08   18.88
   1   5  -7  499.94   17.92
   1   5  -7  476.18   20.43
   1   5  -7  489.15   21.48
   1   5  -7  479.79   21.57
   1   5  -6 1291.64   44.06
   1   5  -6 1337.04   42.59
   1   5  -6 1314.56   46.53
   1   5  -6 1311.10   46.74
   1   5  -5  692.82   26.14
   1   5  -5  690.18   24.53
   1   5  -5  764.10   26.64
   1   5  -5  826.65   29.02
   1   5  -5  746.99   28.43
   1   5  -4  709.27   25.66
   1   5  -4  716.11   25.02
   1   5  -4  788.05   27.76
   1   5  -3    3.03    1.26
   1   5  -3    2.52    1.43
   1   5  -3    4.01    1.80
   1   5  -3    5.05    1.88
   1   5  -2  696.52   25.90
   1   5  -2  793.13   27.27
   1   5  -2  685.63   26.37
   1   5  -1 3210.97   98.17
   1   5  -1 3173.28   98.30
   1   5  -1 3251.49   98.23
   1   5   0 1461.29   46.60
   1   5   0 1413.57   46.26
   1   5   0 1367.55   45.65
   1   5   1 1382.93   46.99
   1   5   1 1468.06   46.86
   1   5   1 1450.24   46.11
   1   5   2  216.49   11.05
   1   5   2  205.79   10.32
   1   5   2  223.70    9.93
   1   5   3  265.67   12.90
   1   5   3  280.89   12.18
   1   5   3  263.11   11.08
   1   5   4  723.79   26.40
   1   5   4  681.91   23.30
   1   5   5 1934.98   58.24
   1   5   5 1844.64   57.70
   1   5   6 1467.35   43.98
   1   5   6 1424.14   48.34
   1   5   6 1385.66   48.09
   1   5   7  243.10   12.65
   1   5   7  229.11   12.37
   1   5   8    0.85    1.34
   1   5   8    1.04    1.52
   1   5   9  157.79    9.93
   1   5   9  131.99    9.48
   1   5  10  473.44   20.80
   1   5  10  460.64   21.05
   1   5  11  642.11   26.54
   1   5  11  646.59   27.26
   1   5  12  158.64   11.33
   1   5  13    1.80    2.34
   1   5  14    7.63    2.65
   1   5  15   85.81    9.08
   1   5  16  118.27   11.30
   1   5  17   30.83    6.15
   1   6 -14  170.49   14.09
   1   6 -13  117.90   11.38
   1   6 -12   26.61    5.62
   1   6 -11    8.59    2.13
   1   6 -11    7.99    3.55
   1   6 -10  224.56   10.91
   1   6 -10  211.19   11.41
   1   6 -10  224.81   14.84
   1   6  -9   85.78    5.89
   1   6  -9   81.40    6.55
   1   6  -9   84.19    8.41
   1   6  -8  360.69   14.42
   1   6  -8  314.65   15.12
   1   6  -8  328.29   18.03
   1   6  -7   77.70    5.42
   1   6  -7   71.93    6.38
   1   6  -7   72.68    6.11
   1   6  -7   75.68    7.50
   1   6  -6   47.34    4.84
   1   6  -6   49.11    4.96
   1   6  -6   59.06    6.37
   1   6  -5  575.58   22.27
   1   6  -5  561.33   22.79
   1   6  -5  622.29   25.22
   1   6  -4   88.44    6.80
   1   6  -4   90.59    6.03
   1   6  -4   82.91    7.24
   1   6  -4   93.21    7.73
   1   6  -3  218.31   11.80
   1   6  -3  220.76   12.56
   1   6  -3  246.96   12.95
   1   6  -2  395.88   17.04
   1   6  -2  336.79   16.74
   1   6  -2  404.37   17.51
   1   6  -1  179.78   10.50
   1   6  -1  202.93   11.10
   1   6  -1  190.79   10.64
   1   6   0   60.94    5.53
   1   6   0   50.51    5.11
   1   6   0   48.97    4.85
   1   6   1  233.09   12.58
   1   6   1  260.62   12.68
   1   6   1  239.93   11.81
   1   6   2  819.82   31.75
   1   6   2  844.30   30.94
   1   6   2  920.76   30.45
   1   6   3  110.49    8.08
   1   6   3  109.96    7.45
   1   6   3  118.26    6.87
   1   6   4  225.57   12.47
   1   6   4  228.33   10.29
   1   6   5   13.84    2.11
   1   6   5   22.33    3.57
   1   6   5    9.40    2.36
   1   6   6    0.90    0.77
   1   6   6    2.71    1.70
   1   6   6   -1.48    1.55
   1   6   7  153.80    6.77
   1   6   7  158.16   10.45
   1   6   7  153.33   10.25
   1   6   8  218.74   12.93
   1   6   8  218.85   12.93
   1   6   9  149.46   10.51
   1   6  10   86.06    7.89
   1   6  11   75.26    7.66
   1   6  12   12.62    3.64
   1   6  13   23.48    4.68
   1   6  14  151.23   12.28
   1   6  15  111.35   10.89
   1   6  16   70.44    8.83
   1   6  17    4.05    2.96
   1   7 -13   -3.47    2.71
   1   7 -12   19.13    4.83
   1   7 -11  238.82   16.69
   1   7 -10  250.65   16.75
   1   7  -9  190.32   11.28
   1   7  -9  193.15   14.03
   1   7  -8   25.26    3.95
   1   7  -8   27.57    5.35
   1   7  -7   15.13    3.20
   1   7  -7   10.69    2.62
   1   7  -7    9.71    3.39
   1   7  -6  123.63    8.50
   1   7  -6  133.38    9.10
   1   7  -6  134.59   10.52
   1   7  -5 1256.22   42.28
   1   7  -5 1233.04   43.77
   1   7  -5 1264.88   46.17
   1   7  -4  472.06   21.32
   1   7  -4  553.91   23.58
   1   7  -3  214.36   12.35
   1   7  -3  219.04   12.94
   1   7  -2    4.41    1.66
   1   7  -2    0.84    1.63
   1   7  -1  656.86   25.35
   1   7  -1  584.89   24.76
   1   7  -1  556.46   24.08
   1   7   0  561.54   23.30
   1   7   0  498.08   22.36
   1   7   0  556.75   22.52
   1   7   1 1163.99   40.18
   1   7   1 1114.02   38.43
   1   7   2  266.90   14.43
   1   7   2  267.68   13.85
   1   7   2  262.39   12.93
   1   7   3    4.24    1.67
   1   7   3    4.83    1.96
   1   7   3    6.69    2.40
   1   7   4   57.65    5.61
   1   7   4   56.96    4.84
   1   7   5 1074.89   39.18
   1   7   5 1036.72   35.11
   1   7   6  208.34   12.72
   1   7   6  201.24    9.49
   1   7   7  342.12   17.93
   1   7   7  357.32   13.64
   1   7   8   99.68    5.06
   1   7   8   97.40    8.82
   1   7   9    3.37    2.07
   1   7  10   73.90    7.72
   1   7  11  385.04   20.47
   1   7  12  174.05   13.11
   1   7  13   86.65    9.36
   1   7  14   11.35    3.63
   1   7  15    7.06    3.21
   1   7  16   38.94    6.86
   1   8 -11    0.14    2.40
   1   8 -10    5.05    3.20
   1   8  -9   61.54    8.08
   1   8  -8  282.27   17.94
   1   8  -7   56.93    6.17
   1   8  -7   68.48    8.10
   1   8  -6   22.08    4.77
   1   8  -5    8.54    3.16
   1   8  -4   38.27    5.59
   1   8  -3    2.26    2.06
   1   8  -2  104.67    8.82
   1   8  -1  211.89   12.87
   1   8   0  169.61   11.00
   1   8   1    8.06    2.45
   1   8   2   10.21    2.69
   1   8   3   19.67    3.23
   1   8   3   17.12    3.75
   1   8   4  132.78    9.41
   1   8   4  114.07    7.87
   1   8   5  538.46   25.13
   1   8   5  572.08   21.91
   1   8   6    1.06    1.07
   1   8   6    2.81    2.33
   1   8   7    9.96    1.98
   1   8   7    7.35    2.77
   1   8   8  106.73    6.92
   1   8   8   99.09    9.31
   1   8   9   25.90    5.07
   1   8  10   86.42    9.00
   1   8  11   69.99    8.38
   1   8  12    3.40    2.40
   1   8  13    3.35    3.27
   1   8  14   40.34    6.77
   1   9  -9  143.98   13.24
   1   9  -8   54.93    7.89
   1   9  -7    4.97    2.90
   1   9  -6    6.66    3.44
   1   9  -5  191.69   14.15
   1   9  -4  314.03   18.53
   1   9  -3  104.10    9.63
   1   9  -2   83.44    8.34
   1   9  -1   14.00    3.70
   1   9   0   31.31    4.86
   1   9   1  473.16   21.88
   1   9   2  145.13   10.16
   1   9   3   94.46    7.73
   1   9   4   14.45    3.06
   1   9   5   15.55    2.94
   1   9   5    9.22    2.85
   1   9   6   58.11    7.26
   1   9   6   51.94    5.08
   1   9   7   99.13    9.73
   1   9   7  103.03    6.90
   1   9   8  146.99   12.27
   1   9   9   54.26    7.85
   1   9  10   17.48    4.73
   1   9  11   28.88    6.00
   1   9  12   19.95    4.77
   1   9  13   80.19    9.69
   1  10  -6   78.83    9.48
   1  10  -5   34.15    6.41
   1  10  -4    4.47    3.20
   1  10  -3    3.60    2.78
   1  10  -2   50.39    7.03
   1  10  -1   55.94    7.20
   1  10   0   44.07    6.30
   1  10   1   12.00    3.35
   1  10   2    2.34    2.21
   1  10   3   -0.35    1.90
   1  10   4   15.82    3.41
   1  10   5  104.23   10.39
   1  10   5  109.24    9.22
   1  10   6   15.02    3.09
   1  10   6    9.03    3.23
   1  10   7   71.92    9.00
   1  10   8    3.76    3.13
   1  10   9   11.55    3.77
   1  10  10   20.55    5.07
   1  11  -4   20.16    4.78
   1  11  -3   88.87   10.00
   1  11  -2  152.03   13.12
   1  11  -1  129.30   11.76
   1  11   0   29.41    5.93
   1  11   1    4.98    3.13
   1  11   2   63.11    7.56
   1  11   3  181.36   12.79
   1  11   4  121.10   11.85
   1  11   4  130.14   10.28
   1  11   5   67.34    8.78
   1  11   5   74.86    7.39
   1  11   6    1.69    2.81
   1  11   7   33.82    6.99
   1  12  -1    1.93    1.94
   1  12   0   27.37    5.81
   1  12   1   65.43    8.44
   1  12   2   42.05    6.78
   1  12   3   15.60    4.29
   2 -11  -3   20.18    5.16
   2 -11  -2    8.02    3.71
   2 -11  -1   30.92    6.45
   2 -10  -5    1.18    2.66
   2 -10  -4   45.63    6.80
   2 -10  -3  167.03   14.38
   2 -10  -3  157.00   12.54
   2 -10  -2  167.31   14.10
   2 -10  -2  160.41   13.09
   2 -10  -1   74.16    8.72
   2 -10   0   23.29    5.15
   2 -10   1   30.37    5.79
   2 -10   2  105.70   11.06
   2  -9  -8   14.99    4.67
   2  -9  -7    9.12    3.41
   2  -9  -6   33.50    6.25
   2  -9  -6   22.50    3.96
   2  -9  -5  146.45   12.79
   2  -9  -5  121.74    9.76
   2  -9  -4   68.96    8.70
   2  -9  -4   65.14    6.89
   2  -9  -3   26.80    5.54
   2  -9  -3   23.47    4.59
   2  -9  -2    1.15    2.91
   2  -9  -2    4.08    2.68
   2  -9  -1    6.15    3.12
   2  -9  -1   12.36    3.62
   2  -9   0   53.58    7.04
   2  -9   1   75.14    8.87
   2  -9   2   58.71    7.81
   2  -9   3   20.10    5.05
   2  -9   4    8.64    3.56
   2  -9   5   15.02    3.92
   2  -8 -11  197.18   16.05
   2  -8 -10   55.37    8.18
   2  -8  -9    7.35    3.07
   2  -8  -8   77.01    9.40
   2  -8  -7  406.73   22.44
   2  -8  -7  362.35   16.95
   2  -8  -6  191.00   14.89
   2  -8  -6  223.12   12.34
   2  -8  -5  296.88   18.35
   2  -8  -5  288.50   15.11
   2  -8  -4   24.25    5.04
   2  -8  -4   14.11    3.32
   2  -8  -3   63.69    7.68
   2  -8  -3   54.63    6.20
   2  -8  -2  198.77   13.98
   2  -8  -2  196.71   12.73
   2  -8  -1  511.64   25.01
   2  -8  -1  534.21   24.33
   2  -8   0  278.30   16.55
   2  -8   0  257.92   15.77
   2  -8   1   62.01    7.28
   2  -8   1   70.80    7.84
   2  -8   2   10.83    3.35
   2  -8   3  134.20   11.53
   2  -8   4  178.50   13.73
   2  -8   5  338.09   20.09
   2  -8   5  318.92   16.40
   2  -8   6   81.70    9.45
   2  -8   6  108.63    8.21
   2  -8   7   -1.76    2.29
   2  -8   8   15.68    4.55
   2  -7 -13   49.42    7.64
   2  -7 -12    5.65    3.14
   2  -7 -11   15.86    4.47
   2  -7 -10  131.08   12.07
   2  -7  -9   64.39    8.28
   2  -7  -8  181.11   13.59
   2  -7  -8  172.02    9.15
   2  -7  -7   28.54    5.44
   2  -7  -7   19.81    3.02
   2  -7  -6   10.63    3.74
   2  -7  -6   11.03    2.58
   2  -7  -5   94.28    9.24
   2  -7  -5   94.58    7.20
   2  -7  -4  223.86   14.54
   2  -7  -4  229.18   12.44
   2  -7  -3  187.12   12.89
   2  -7  -3  172.04   10.80
   2  -7  -2   96.33    8.85
   2  -7  -2  109.72    8.41
   2  -7  -1  281.50   16.05
   2  -7  -1  287.08   15.37
   2  -7   0   23.15    4.42
   2  -7   0   20.88    3.94
   2  -7   1   90.35    8.17
   2  -7   1   96.53    8.52
   2  -7   2  361.09   18.06
   2  -7   2  344.47   18.53
   2  -7   3  131.51   10.69
   2  -7   4  243.58   15.51
   2  -7   5   45.59    6.47
   2  -7   5   45.54    5.07
   2  -7   6   41.72    6.53
   2  -7   6   41.76    4.94
   2  -7   7  143.46   12.20
   2  -7   7  120.70    8.82
   2  -7   8  301.25   18.80
   2  -7   8  256.60   14.08
   2  -7   9  196.82   15.30
   2  -7  10    0.48    1.84
   2  -6 -15   45.35    7.13
   2  -6 -14    8.94    3.76
   2  -6 -13   29.51    5.92
   2  -6 -12  128.96   11.82
   2  -6 -11  456.89   24.00
   2  -6 -10  264.61   16.81
   2  -6  -9   28.95    5.37
   2  -6  -9   34.62    2.90
   2  -6  -8    2.35    1.88
   2  -6  -8    1.95    1.11
   2  -6  -7  442.73   22.47
   2  -6  -7  472.30   17.84
   2  -6  -6  174.06   12.31
   2  -6  -6  166.57    8.92
   2  -6  -5 1343.48   49.63
   2  -6  -5 1399.25   45.62
   2  -6  -4  362.53   18.17
   2  -6  -4  328.74   15.06
   2  -6  -3    0.93    1.46
   2  -6  -3    4.28    2.00
   2  -6  -2  156.80   10.90
   2  -6  -2  178.76   10.37
   2  -6  -1  754.57   30.88
   2  -6  -1  827.97   30.38
   2  -6   0  849.55   32.47
   2  -6   0  830.20   31.94
   2  -6   1  613.16   25.64
   2  -6   1  634.07   26.16
   2  -6   1  648.04   26.57
   2  -6   2   97.91    7.86
   2  -6   2  109.82    8.76
   2  -6   2  110.37    8.68
   2  -6   3   86.71    7.26
   2  -6   3  104.69    8.36
   2  -6   3  105.06    8.76
   2  -6   4  175.85   11.39
   2  -6   4  176.44   12.11
   2  -6   5  732.32   31.11
   2  -6   5  734.36   28.03
   2  -6   6  251.33   15.77
   2  -6   6  267.17   13.55
   2  -6   7   36.08    5.78
   2  -6   7   31.94    4.18
   2  -6   8   32.45    5.66
   2  -6   8   37.32    4.63
   2  -6   9   28.90    5.26
   2  -6   9   18.86    3.52
   2  -6  10  101.71   10.34
   2  -6  10   91.41    7.77
   2  -6  11  126.72   12.02
   2  -6  11  111.02    9.00
   2  -5 -16    4.16    3.15
   2  -5 -15   38.74    6.81
   2  -5 -14   97.37   10.07
   2  -5 -13   66.37    8.21
   2  -5 -12   23.40    4.95
   2  -5 -11    6.32    3.00
   2  -5 -10   25.41    4.79
   2  -5  -9   28.87    4.87
   2  -5  -9   35.40    2.24
   2  -5  -8  138.85   10.53
   2  -5  -8  141.56    6.39
   2  -5  -7  175.08   11.66
   2  -5  -7  164.30    7.64
   2  -5  -6   11.23    3.06
   2  -5  -6   10.40    1.82
   2  -5  -5   11.79    2.99
   2  -5  -5   14.28    2.17
   2  -5  -4  169.74   11.10
   2  -5  -4  175.52    9.07
   2  -5  -4  199.94   11.87
   2  -5  -3   34.61    4.69
   2  -5  -3   31.99    3.61
   2  -5  -3   41.09    4.85
   2  -5  -2   77.17    6.86
   2  -5  -2   65.09    5.47
   2  -5  -2   84.05    6.99
   2  -5  -1  110.44    8.06
   2  -5  -1  106.52    8.06
   2  -5  -1  117.49    7.70
   2  -5   0   28.92    3.98
   2  -5   0   20.92    3.41
   2  -5   0   28.22    3.73
   2  -5   1    9.28    2.48
   2  -5   1   11.40    2.45
   2  -5   1    7.83    2.06
   2  -5   2   73.01    6.09
   2  -5   2   95.10    7.33
   2  -5   2   74.93    6.71
   2  -5   3   14.12    2.77
   2  -5   3    6.64    2.02
   2  -5   3   11.00    2.86
   2  -5   4    1.78    1.64
   2  -5   4    2.08    1.62
   2  -5   5  421.97   18.79
   2  -5   5  411.62   19.87
   2  -5   5  398.89   17.53
   2  -5   6    3.12    1.53
   2  -5   6    2.55    1.90
   2  -5   6    0.56    1.26
   2  -5   7    0.88    1.28
   2  -5   7   -0.27    1.91
   2  -5   7   -0.57    1.21
   2  -5   8   47.38    5.74
   2  -5   8   52.13    6.48
   2  -5   8   44.53    4.94
   2  -5   9   60.83    7.33
   2  -5   9   56.59    5.68
   2  -5  10  114.35   10.42
   2  -5  10   97.45    7.96
   2  -5  11  140.21   12.07
   2  -5  11  124.10    9.55
   2  -5  12    0.69    1.95
   2  -5  13   15.22    3.75
   2  -4 -16  119.18   11.15
   2  -4 -15  157.07   12.56
   2  -4 -14  120.42   10.70
   2  -4 -13    8.53    3.52
   2  -4 -12    2.47    1.95
   2  -4 -11  341.03   18.30
   2  -4 -11  353.33   17.05
   2  -4 -10  315.67   16.99
   2  -4  -9  207.86   12.88
   2  -4  -8  100.91    8.24
   2  -4  -8   92.50    3.78
   2  -4  -7   22.42    3.89
   2  -4  -7   17.61    1.71
   2  -4  -6  152.02    9.97
   2  -4  -6  142.98    6.47
   2  -4  -5  439.22   19.56
   2  -4  -5  446.19   15.93
   2  -4  -4  627.93   24.38
   2  -4  -4  588.60   20.88
   2  -4  -3  241.29   12.67
   2  -4  -3  237.68   10.73
   2  -4  -3  283.62   13.46
   2  -4  -2  274.05   13.78
   2  -4  -2  295.49   12.61
   2  -4  -2  317.27   14.49
   2  -4  -1   87.87    6.67
   2  -4  -1   96.09    6.28
   2  -4  -1  102.04    7.16
   2  -4   0   64.94    5.54
   2  -4   0   80.51    5.82
   2  -4   0   63.79    5.57
   2  -4   1 1076.31   37.78
   2  -4   1 1137.40   38.51
   2  -4   1 1159.39   38.94
   2  -4   2  908.02   30.56
   2  -4   2  933.50   31.82
   2  -4   3  172.01    9.08
   2  -4   3  186.67   10.72
   2  -4   3  173.55   10.06
   2  -4   4   81.75    5.60
   2  -4   4   77.61    6.32
   2  -4   4   69.88    6.39
   2  -4   5    2.06    1.49
   2  -4   5    0.99    1.73
   2  -4   5   -0.49    1.01
   2  -4   6  642.78   25.01
   2  -4   6  579.58   25.64
   2  -4   6  645.56   24.19
   2  -4   7  351.20   16.56
   2  -4   7  344.54   17.74
   2  -4   7  342.63   15.76
   2  -4   8  387.72   17.67
   2  -4   8  361.94   18.68
   2  -4   8  342.48   16.37
   2  -4   9    1.16    1.29
   2  -4   9    1.65    1.78
   2  -4   9    0.30    1.09
   2  -4  10    0.45    2.25
   2  -4  10    3.06    1.66
   2  -4  11  192.49   12.11
   2  -4  12  143.90   10.55
   2  -4  13   88.43    8.47
   2  -4  14   50.50    6.71
   2  -4  15   17.73    4.36
   2  -3 -17   45.13    7.34
   2  -3 -16   48.89    6.77
   2  -3 -15    5.32    2.72
   2  -3 -14   36.72    5.41
   2  -3 -13  110.83    9.36
   2  -3 -12  345.71   17.94
   2  -3 -11  380.18   18.74
   2  -3 -10  104.34    8.37
   2  -3 -10   96.59    7.56
   2  -3  -9    7.45    2.45
   2  -3  -9    2.47    1.60
   2  -3  -8   79.86    6.85
   2  -3  -8   83.30    7.26
   2  -3  -8   64.63    5.53
   2  -3  -7  728.15   28.64
   2  -3  -7  785.96   29.61
   2  -3  -6 1442.75   46.65
   2  -3  -6 1333.68   40.54
   2  -3  -6 1453.45   47.08
   2  -3  -5  927.83   33.90
   2  -3  -5  960.18   29.58
   2  -3  -5  980.42   34.38
   2  -3  -4   62.38    5.39
   2  -3  -4   61.86    3.63
   2  -3  -3    3.40    1.65
   2  -3  -3    1.45    1.29
   2  -3  -3    1.46    0.96
   2  -3  -2 1271.12   42.58
   2  -3  -2 1287.42   40.68
   2  -3  -2 1309.70   42.82
   2  -3  -1 1869.65   61.29
   2  -3  -1 2021.17   60.45
   2  -3  -1 1954.87   61.69
   2  -3   0  821.83   27.67
   2  -3   0  753.30   26.97
   2  -3   0  794.54   27.91
   2  -3   1  561.68   20.84
   2  -3   1  536.67   21.08
   2  -3   1  634.92   22.16
   2  -3   2   45.87    3.84
   2  -3   2   43.95    4.23
   2  -3   2   36.38    3.89
   2  -3   3  140.16    7.25
   2  -3   3  148.41    8.42
   2  -3   3  141.46    8.57
   2  -3   4  317.92   13.10
   2  -3   4  366.20   15.30
   2  -3   4  371.22   16.00
   2  -3   4  346.45   14.55
   2  -3   5  232.91   11.68
   2  -3   5  223.88   12.22
   2  -3   5  232.84   11.28
   2  -3   6  299.58   14.38
   2  -3   6  316.96   15.51
   2  -3   6  317.59   14.19
   2  -3   7  105.32    7.64
   2  -3   7  122.29    8.81
   2  -3   7  111.83    7.52
   2  -3   8    0.57    1.39
   2  -3   8    0.24    1.40
   2  -3   9    0.40    1.30
   2  -3   9   -0.70    1.64
   2  -3   9   -0.57    1.38
   2  -3  10   36.84    4.76
   2  -3  10   35.07    4.67
   2  -3  11  397.46   19.14
   2  -3  12  129.09    9.90
   2  -3  13   18.04    3.78
   2  -3  14    1.35    1.79
   2  -3  15   12.19    3.59
   2  -3  16   59.64    7.76
   2  -2 -17   -3.17    3.83
   2  -2 -16   37.45    6.56
   2  -2 -16   33.98    5.39
   2  -2 -15   90.53    8.42
   2  -2 -14  189.07   12.31
   2  -2 -13  195.27   12.32
   2  -2 -12  109.31    8.62
   2  -2 -11   14.54    3.03
   2  -2 -10  301.90   15.08
   2  -2 -10  291.79   14.91
   2  -2  -9  823.09   31.42
   2  -2  -9  847.49   31.28
   2  -2  -9  855.17   32.74
   2  -2  -9  884.61   32.97
   2  -2  -8  378.91   17.26
   2  -2  -8  404.01   17.07
   2  -2  -8  413.91   18.43
   2  -2  -8  388.94   18.05
   2  -2  -7  560.10   22.79
   2  -2  -7  601.32   23.77
   2  -2  -7  606.28   22.26
   2  -2  -6    6.85    2.17
   2  -2  -6    9.44    2.51
   2  -2  -6    9.00    1.79
   2  -2  -5  112.56    7.23
   2  -2  -5  112.24    7.30
   2  -2  -4  873.77   29.36
   2  -2  -4  849.33   29.23
   2  -2  -4  815.64   25.18
   2  -2  -3 1990.31   62.57
   2  -2  -3 1972.32   59.44
   2  -2  -3 2094.33   62.70
   2  -2  -2 1333.83   43.39
   2  -2  -2 1388.27   41.35
   2  -2  -2 1298.79   43.24
   2  -2  -1  946.10   30.26
   2  -2  -1  878.96   30.14
   2  -2  -1  885.75   28.82
   2  -2   0    4.97    1.37
   2  -2   0    6.33    1.43
   2  -2   0    7.00    1.47
   2  -2   1  837.93   26.45
   2  -2   1  775.04   26.66
   2  -2   1  758.50   26.98
   2  -2   2 2363.02   71.82
   2  -2   2 2523.08   73.64
   2  -2   2 2306.01   73.21
   2  -2   3 2479.90   73.55
   2  -2   3 2518.71   75.64
   2  -2   3 2361.86   75.78
   2  -2   4  774.95   24.47
   2  -2   4  726.87   26.70
   2  -2   4  749.98   27.36
   2  -2   4  791.52   26.77
   2  -2   5  157.83    8.60
   2  -2   5  148.87    8.86
   2  -2   5  145.10    8.17
   2  -2   6  200.99   10.36
   2  -2   6  200.66   10.92
   2  -2   6  182.82    9.83
   2  -2   7  771.05   28.06
   2  -2   7  785.95   29.03
   2  -2   7  719.89   27.41
   2  -2   8  841.14   31.31
   2  -2   8  877.57   31.43
   2  -2   9  254.99   13.33
   2  -2   9  253.16   13.25
   2  -2  10  212.27   12.35
   2  -2  10  219.27   12.61
   2  -2  11   -0.51    1.16
   2  -2  12   65.31    6.81
   2  -2  13  178.33   12.42
   2  -2  14  129.74   10.77
   2  -2  15  134.32   11.37
   2  -2  16   17.46    4.36
   2  -1 -17  134.88   11.96
   2  -1 -16  109.16   10.25
   2  -1 -15   21.06    4.21
   2  -1 -15   24.94    4.29
   2  -1 -14   -0.47    2.13
   2  -1 -14    1.98    1.97
   2  -1 -13   38.17    4.81
   2  -1 -13   36.97    2.70
   2  -1 -12  470.78   20.22
   2  -1 -12  466.06   15.11
   2  -1 -12  428.40   15.28
   2  -1 -11  121.28    8.59
   2  -1 -11  131.46    5.36
   2  -1 -11  129.19    5.73
   2  -1 -10  131.90    5.82
   2  -1 -10  138.19    8.95
   2  -1 -10  151.84    9.87
   2  -1 -10  140.70    5.31
   2  -1 -10  142.72    9.88
   2  -1  -9   10.37    1.27
   2  -1  -9    6.29    1.96
   2  -1  -9   11.36    2.51
   2  -1  -9   11.83    0.93
   2  -1  -9   10.83    2.73
   2  -1  -9   16.22    3.24
   2  -1  -8   -0.01    0.43
   2  -1  -8    0.03    1.02
   2  -1  -8   -0.56    1.49
   2  -1  -8   -0.33    1.48
   2  -1  -8   -0.07    1.33
   2  -1  -7  391.59   13.19
   2  -1  -7  413.95   16.85
   2  -1  -7  428.52   17.78
   2  -1  -7  409.82   16.80
   2  -1  -6  948.04   32.76
   2  -1  -6  960.09   33.57
   2  -1  -6  968.52   32.50
   2  -1  -5  222.08   10.52
   2  -1  -5  225.60   10.82
   2  -1  -5  218.65    9.93
   2  -1  -4   24.17    2.84
   2  -1  -4   25.87    2.96
   2  -1  -3   96.19    5.89
   2  -1  -3  110.34    6.11
   2  -1  -2  372.73   14.15
   2  -1  -2  364.64   13.92
   2  -1  -2  379.67   14.06
   2  -1  -1   83.08    4.92
   2  -1  -1   86.47    4.78
   2  -1  -1   90.64    4.28
   2  -1  -1   94.78    5.16
   2  -1   0 2309.48   66.20
   2  -1   0 2108.54   65.64
   2  -1   0 2188.32   66.55
   2  -1   1  778.70   24.11
   2  -1   1  714.79   24.46
   2  -1   1  740.08   24.90
   2  -1   2   18.29    1.79
   2  -1   2   24.50    2.58
   2  -1   2   32.42    2.91
   2  -1   3   29.83    2.04
   2  -1   3   26.80    2.92
   2  -1   3   36.93    3.39
   2  -1   3   31.67    3.02
   2  -1   4  339.95   11.27
   2  -1   4  376.54   14.36
   2  -1   4  346.39   14.32
   2  -1   4  352.70   13.99
   2  -1   5   15.35    2.43
   2  -1   5   10.65    1.95
   2  -1   6 1378.78   45.60
   2  -1   6 1410.95   45.58
   2  -1   7  609.19   23.22
   2  -1   7  604.05   23.06
   2  -1   8   57.28    5.30
   2  -1   8   59.86    5.38
   2  -1   9   58.33    5.59
   2  -1   9   57.39    5.60
   2  -1  10  100.56    7.99
   2  -1  11  157.76   10.71
   2  -1  12  548.75   24.60
   2  -1  13  169.89   12.00
   2  -1  14   28.36    4.90
   2  -1  15   -2.97    2.65
   2  -1  16   89.05    9.53
   2   0 -16    4.50    2.54
   2   0 -15   20.40    4.24
   2   0 -15   28.96    4.23
   2   0 -14  100.10    7.87
   2   0 -14   99.39    8.45
   2   0 -14   96.95    6.31
   2   0 -13  284.89   15.36
   2   0 -13  292.29   14.82
   2   0 -13  297.85   12.43
   2   0 -13  313.98   13.03
   2   0 -12  712.01   28.39
   2   0 -12  735.81   27.89
   2   0 -12  715.25   24.73
   2   0 -12  746.73   25.48
   2   0 -11   39.02    4.55
   2   0 -11   46.41    3.49
   2   0 -11   39.05    3.47
   2   0 -10   26.67    3.58
   2   0 -10   26.60    4.19
   2   0 -10   26.41    2.47
   2   0 -10   28.60    4.19
   2   0 -10   27.38    2.76
   2   0 -10   28.09    4.00
   2   0  -9  385.89   16.64
   2   0  -9  403.65   18.09
   2   0  -9  399.61   13.91
   2   0  -9  407.31   18.35
   2   0  -9  398.11   17.72
   2   0  -9  381.95   14.57
   2   0  -8  291.46   13.21
   2   0  -8  303.74   14.24
   2   0  -8  294.11   10.52
   2   0  -8  299.71   14.48
   2   0  -8  301.47   14.01
   2   0  -8  281.87   11.24
   2   0  -7  515.81   19.70
   2   0  -7  522.91   20.44
   2   0  -7  516.48   16.61
   2   0  -7  532.59   20.91
   2   0  -7  508.03   20.17
   2   0  -7  517.88   17.66
   2   0  -6  509.97   18.63
   2   0  -6  486.01   18.81
   2   0  -6  489.10   15.28
   2   0  -6  473.95   19.15
   2   0  -6  476.57   16.39
   2   0  -5    0.90    0.66
   2   0  -5    1.15    1.02
   2   0  -5    1.27    0.93
   2   0  -5    0.62    1.04
   2   0  -5   -0.07    0.32
   2   0  -4   46.55    3.69
   2   0  -4   48.34    2.88
   2   0  -4   44.26    3.76
   2   0  -3  500.28   17.64
   2   0  -3  496.65   16.20
   2   0  -3  485.10   17.56
   2   0  -2    7.04    1.10
   2   0  -2    4.25    1.31
   2   0  -2    4.67    1.10
   2   0  -2    3.79    1.01
   2   0  -1  688.17   24.09
   2   0  -1  788.57   23.93
   2   0  -1  768.09   23.98
   2   0   0  164.35    6.42
   2   0   0  133.39    5.59
   2   0   0  145.61    6.33
   2   0   1 1236.29   38.85
   2   0   1 1279.20   38.17
   2   0   2  563.49   19.40
   2   0   2  575.16   17.90
   2   0   3  575.70   20.58
   2   0   3  612.64   18.26
   2   0   3  576.65   20.59
   2   0   4 1468.17   45.00
   2   0   4 1368.11   44.71
   2   0   5   68.75    4.93
   2   0   5   72.31    5.02
   2   0   6  256.57   11.79
   2   0   6  256.05   11.78
   2   0   7  181.44    9.70
   2   0   7  168.10    9.44
   2   0   8   99.12    7.18
   2   0   9  544.90   22.54
   2   0  10  187.39   11.44
   2   0  11   66.14    6.63
   2   0  12    4.80    2.30
   2   0  13   82.46    8.23
   2   0  14   51.67    6.69
   2   0  15   58.16    7.57
   2   1 -16  125.45    9.96
   2   1 -15   81.39    7.56
   2   1 -14   38.09    4.81
   2   1 -14   40.02    4.44
   2   1 -14   41.39    4.78
   2   1 -13   -0.19    1.47
   2   1 -13   -0.46    1.39
   2   1 -13   -0.70    1.27
   2   1 -13    1.60    1.62
   2   1 -12   12.32    2.70
   2   1 -12   11.14    2.63
   2   1 -12    8.20    2.24
   2   1 -12   11.35    2.36
   2   1 -11  110.30    7.47
   2   1 -11  107.76    7.44
   2   1 -11  114.05    6.72
   2   1 -11  101.69    8.14
   2   1 -11  105.40    6.92
   2   1 -10  326.25   14.16
   2   1 -10  310.52   14.12
   2   1 -10  302.08   12.84
   2   1 -10  320.15   16.18
   2   1 -10  326.47   15.48
   2   1 -10  304.05   13.40
   2   1  -9  321.99   14.30
   2   1  -9  343.95   16.21
   2   1  -9  327.81   13.03
   2   1  -9  324.76   16.05
   2   1  -9  327.88   15.12
   2   1  -9  326.46   13.63
   2   1  -8  115.00    6.92
   2   1  -8  109.00    7.69
   2   1  -8  109.47    5.78
   2   1  -8  109.33    7.81
   2   1  -8  100.42    6.92
   2   1  -8   99.75    6.06
   2   1  -7   20.62    2.71
   2   1  -7   19.01    3.04
   2   1  -7   19.97    2.05
   2   1  -7   20.67    3.13
   2   1  -7   21.22    2.48
   2   1  -7   19.75    2.71
   2   1  -6  138.09    7.42
   2   1  -6  136.60    7.91
   2   1  -6  134.24    6.09
   2   1  -6  135.23    8.04
   2   1  -6  130.26    7.18
   2   1  -6  141.52    6.83
   2   1  -5 1034.84   33.27
   2   1  -5 1004.49   33.87
   2   1  -5 1001.95   31.39
   2   1  -5 1020.68   34.20
   2   1  -5 1024.69   32.36
   2   1  -4  335.57   13.02
   2   1  -4  304.18   12.93
   2   1  -4  318.41   11.09
   2   1  -4  326.58   11.91
   2   1  -3  409.13   13.29
   2   1  -3  396.74   14.90
   2   1  -3  396.35   14.01
   2   1  -2  182.22    6.65
   2   1  -2  190.71    7.94
   2   1  -2  192.47    7.52
   2   1  -1  163.43    6.81
   2   1  -1  165.80    6.81
   2   1  -1  174.07    6.25
   2   1   0 2086.57   62.36
   2   1   0 2059.16   61.81
   2   1   0 2122.85   61.61
   2   1   1  406.54   14.15
   2   1   1  424.08   12.90
   2   1   2   22.86    2.16
   2   1   2   22.89    2.19
   2   1   3    1.97    1.02
   2   1   3    0.94    0.97
   2   1   4   48.00    2.34
   2   1   4   52.70    3.90
   2   1   4   44.73    2.34
   2   1   4   41.56    3.55
   2   1   5  177.61    8.98
   2   1   5  191.00    6.52
   2   1   5  181.76    7.17
   2   1   5  188.47    9.12
   2   1   6  304.80    9.94
   2   1   6  305.22   11.31
   2   1   6  302.25   13.36
   2   1   7    9.73    0.99
   2   1   7    8.96    1.51
   2   1   7    9.42    2.25
   2   1   8    1.98    0.53
   2   1   8    1.05    0.93
   2   1   8    3.79    1.55
   2   1   9  194.90    9.50
   2   1   9  179.33   10.84
   2   1  10    3.18    1.26
   2   1  10    5.35    1.98
   2   1  11  257.89   12.88
   2   1  11  278.23   15.08
   2   1  12  208.05   13.25
   2   1  13  170.14   12.25
   2   1  14   81.03    8.59
   2   1  15   53.15    7.14
   2   2 -15    3.46    1.62
   2   2 -15    1.98    1.61
   2   2 -14   -0.57    1.34
   2   2 -14    1.84    1.60
   2   2 -13  117.36    7.93
   2   2 -13  117.03    8.17
   2   2 -13  116.37    8.29
   2   2 -13  124.95    8.71
   2   2 -12  265.86   12.82
   2   2 -12  267.85   12.93
   2   2 -12  240.00   12.68
   2   2 -12  264.87   13.48
   2   2 -11  239.11   11.80
   2   2 -11  231.30   11.46
   2   2 -11  235.00   11.80
   2   2 -11  233.97   12.87
   2   2 -11  234.30   12.20
   2   2 -10  133.82    8.14
   2   2 -10  154.49    8.12
   2   2 -10  131.22    8.00
   2   2 -10  132.91    9.76
   2   2 -10  144.02    9.07
   2   2 -10  130.46    8.34
   2   2  -9   10.01    2.18
   2   2  -9    9.35    1.97
   2   2  -9    8.99    1.78
   2   2  -9   13.73    2.91
   2   2  -9    6.36    2.37
   2   2  -9   11.80    2.23
   2   2  -9   10.49    2.34
   2   2  -8   91.69    6.13
   2   2  -8   89.38    7.04
   2   2  -8   94.12    5.38
   2   2  -8   89.50    5.83
   2   2  -8   89.31    7.16
   2   2  -8   86.63    6.08
   2   2  -8   94.70    6.34
   2   2  -7  213.82   11.11
   2   2  -7  196.67    8.46
   2   2  -7  208.84    9.53
   2   2  -7  204.52   11.10
   2   2  -7  204.22    9.62
   2   2  -7  197.75    9.80
   2   2  -6 1326.90   43.41
   2   2  -6 1300.36   39.96
   2   2  -6 1325.33   41.50
   2   2  -6 1328.90   43.68
   2   2  -6 1264.29   41.26
   2   2  -6 1311.32   42.10
   2   2  -5  751.82   23.54
   2   2  -5  745.30   26.60
   2   2  -5  773.77   25.27
   2   2  -5  771.94   27.02
   2   2  -5  757.84   24.88
   2   2  -5  756.84   25.84
   2   2  -4   56.20    2.54
   2   2  -4   57.43    4.31
   2   2  -4   60.93    3.81
   2   2  -4   54.60    4.39
   2   2  -4   54.90    3.35
   2   2  -4   53.41    3.97
   2   2  -3    5.65    1.40
   2   2  -3    3.96    1.21
   2   2  -3    3.86    0.96
   2   2  -2  261.93    9.96
   2   2  -2  251.04   10.45
   2   2  -2  271.24   10.39
   2   2  -1  479.76   15.91
   2   2  -1  448.45   16.03
   2   2   0 5399.41  148.05
   2   2   0 4886.83  146.62
   2   2   1 2263.65   67.10
   2   2   1 2233.82   66.48
   2   2   2  698.04   23.13
   2   2   2  743.30   23.34
   2   2   3  387.38   13.16
   2   2   3  433.65   14.92
   2   2   4  861.99   27.43
   2   2   4  860.83   27.09
   2   2   4  913.29   29.22
   2   2   5 1831.58   55.56
   2   2   5 1878.20   55.65
   2   2   5 1816.62   57.87
   2   2   6 2755.41   83.45
   2   2   6 2863.30   84.13
   2   2   6 2867.04   86.60
   2   2   7  589.42   19.69
   2   2   7  598.11   20.65
   2   2   7  576.68   22.71
   2   2   8  311.17   11.34
   2   2   8  275.16   12.20
   2   2   8  289.55   14.16
   2   2   9  417.38   14.99
   2   2   9  423.67   16.76
   2   2   9  399.68   18.53
   2   2  10  723.18   24.33
   2   2  10  720.83   26.57
   2   2  10  759.49   29.35
   2   2  11   99.07    5.56
   2   2  11  110.17    7.48
   2   2  11   99.55    8.46
   2   2  12  757.27   29.07
   2   2  12  778.20   31.89
   2   2  13   44.25    5.11
   2   2  13   38.51    5.63
   2   2  14    1.43    1.47
   2   2  15   77.77    7.63
   2   3 -15  100.11    8.97
   2   3 -14  134.89    8.81
   2   3 -14  136.82   10.21
   2   3 -13   69.98    5.87
   2   3 -13   69.18    5.82
   2   3 -13   74.24    7.08
   2   3 -12   85.26    6.47
   2   3 -12   89.05    6.36
   2   3 -12   86.00    7.28
   2   3 -12   86.52    7.43
   2   3 -12   95.16    7.62
   2   3 -11   19.70    2.70
   2   3 -11   23.43    3.30
   2   3 -11   16.47    3.14
   2   3 -11   18.57    3.30
   2   3 -11   22.15    3.67
   2   3 -10   35.82    3.92
   2   3 -10   35.94    4.38
   2   3 -10   34.96    3.42
   2   3 -10   44.11    4.75
   2   3 -10   32.49    3.93
   2   3  -9  167.42    8.01
   2   3  -9  169.00    9.64
   2   3  -9  176.99   11.14
   2   3  -9  164.03    9.96
   2   3  -9  164.88    9.06
   2   3  -8  210.32   11.92
   2   3  -8  211.71    8.88
   2   3  -8  214.44   10.86
   2   3  -8  213.14   12.20
   2   3  -8  198.54   11.00
   2   3  -8  212.23   10.07
   2   3  -7   68.66    5.90
   2   3  -7   68.62    3.86
   2   3  -7   67.43    5.32
   2   3  -7   73.73    6.27
   2   3  -7   76.36    5.89
   2   3  -7   63.99    4.56
   2   3  -6   96.13    6.71
   2   3  -6   89.56    4.19
   2   3  -6   89.93    6.08
   2   3  -6  107.76    7.31
   2   3  -6   93.31    6.43
   2   3  -6   93.02    5.11
   2   3  -5    2.86    1.41
   2   3  -5    3.99    1.49
   2   3  -5    2.91    0.55
   2   3  -5    2.73    1.42
   2   3  -5    3.80    1.38
   2   3  -5    4.71    1.02
   2   3  -4  289.60   12.32
   2   3  -4  278.99   11.96
   2   3  -4  286.48    9.98
   2   3  -4  304.24   12.62
   2   3  -3   13.09    2.18
   2   3  -3   11.64    0.97
   2   3  -3   12.47    1.99
   2   3  -2  258.36   10.97
   2   3  -2  284.29   11.40
   2   3  -1  163.09    7.65
   2   3  -1  161.82    7.66
   2   3   0  225.13    9.51
   2   3   0  229.08    9.48
   2   3   0  224.32    7.67
   2   3   1    9.12    1.58
   2   3   1   10.60    1.28
   2   3   2    5.39    1.21
   2   3   2    3.64    1.05
   2   3   3  468.71   15.84
   2   3   3  434.48   16.21
   2   3   3  458.11   16.38
   2   3   4  848.68   27.57
   2   3   4  874.24   28.38
   2   3   4  869.89   27.94
   2   3   4  860.81   28.98
   2   3   5  734.52   25.09
   2   3   5  770.89   25.04
   2   3   5  731.97   26.21
   2   3   6   84.37    5.18
   2   3   6   87.47    5.30
   2   3   6   85.71    6.17
   2   3   7    9.68    1.71
   2   3   7   13.92    2.15
   2   3   7    9.94    2.20
   2   3   8  204.74    9.46
   2   3   8  199.24    9.89
   2   3   8  207.71   11.46
   2   3   9  560.43   20.38
   2   3   9  554.16   21.39
   2   3   9  561.97   23.47
   2   3  10  416.39   16.32
   2   3  10  414.77   17.58
   2   3  10  401.22   19.37
   2   3  11   18.38    2.71
   2   3  11   19.25    3.18
   2   3  11   14.95    3.46
   2   3  12    0.03    1.31
   2   3  12    2.47    1.63
   2   3  12    2.53    2.20
   2   3  13  219.13   10.56
   2   3  13  189.92   11.94
   2   3  14  103.27    8.59
   2   3  15  153.74   11.21
   2   3  16   49.58    6.38
   2   4 -16  105.93   10.24
   2   4 -15   82.23    8.83
   2   4 -14   47.00    6.39
   2   4 -13   -0.56    1.55
   2   4 -13    1.75    1.43
   2   4 -13    3.75    2.42
   2   4 -12    8.23    1.82
   2   4 -12   13.17    2.57
   2   4 -12    7.49    2.49
   2   4 -12    9.65    2.90
   2   4 -11  452.88   17.38
   2   4 -11  487.19   19.19
   2   4 -11  431.74   20.86
   2   4 -11  439.10   19.08
   2   4 -10  344.23   13.69
   2   4 -10  371.19   17.33
   2   4 -10  345.87   17.28
   2   4 -10  337.26   15.15
   2   4  -9  321.92   12.24
   2   4  -9  314.07   15.40
   2   4  -9  322.84   15.91
   2   4  -9  283.71   13.10
   2   4  -8  218.46   12.21
   2   4  -8  188.57    8.25
   2   4  -8  215.18   11.59
   2   4  -8  214.53   12.50
   2   4  -8  195.09   11.48
   2   4  -8  205.34    9.46
   2   4  -7    8.13    2.41
   2   4  -7    7.59    2.16
   2   4  -7    6.26    1.18
   2   4  -7    9.82    2.65
   2   4  -7    4.61    1.08
   2   4  -7    5.32    2.02
   2   4  -6  293.18   10.24
   2   4  -6  285.06   13.69
   2   4  -6  303.78   13.93
   2   4  -6  300.67   14.71
   2   4  -6  303.46   14.22
   2   4  -6  289.33   10.99
   2   4  -5 1312.54   42.03
   2   4  -5 1220.24   37.58
   2   4  -5 1328.64   42.38
   2   4  -5 1272.68   42.48
   2   4  -5 1264.19   38.14
   2   4  -4  794.77   28.86
   2   4  -4  851.35   29.74
   2   4  -4  914.74   30.40
   2   4  -3  650.80   23.36
   2   4  -3  627.31   23.42
   2   4  -2  270.67   11.21
   2   4  -2  194.64   10.20
   2   4  -1  285.23   12.33
   2   4  -1  290.71   12.29
   2   4   0  833.96   29.32
   2   4   0  906.01   29.30
   2   4   1 1624.78   51.56
   2   4   1 1449.96   51.04
   2   4   2 1474.12   50.01
   2   4   2 1697.05   49.62
   2   4   3  210.81   10.12
   2   4   3  215.27    9.58
   2   4   3  237.59    9.45
   2   4   4    8.92    1.85
   2   4   4    7.11    1.38
   2   4   4    6.45    1.56
   2   4   5  126.54    7.36
   2   4   5  132.77    6.26
   2   4   5  136.28    7.35
   2   4   5  122.47    7.49
   2   4   6 2638.89   81.89
   2   4   6 2659.94   81.76
   2   4   6 2712.38   83.06
   2   4   7  355.06   14.87
   2   4   7  350.34   14.88
   2   4   7  343.34   15.89
   2   4   8  315.69   14.04
   2   4   8  308.57   14.14
   2   4   8  345.42   15.99
   2   4   9   -0.22    1.41
   2   4   9    0.78    1.06
   2   4  10   44.89    4.49
   2   4  10   40.00    4.51
   2   4  11  295.64   13.85
   2   4  11  285.82   14.65
   2   4  12  329.04   15.29
   2   4  12  335.98   16.63
   2   4  13  196.33   11.08
   2   4  13  202.81   12.46
   2   4  14   32.96    4.96
   2   4  15   -0.44    1.93
   2   4  16   52.13    6.74
   2   5 -16   18.96    5.41
   2   5 -15   13.83    4.31
   2   5 -14  105.31   10.27
   2   5 -13   94.27    9.31
   2   5 -12   96.44    7.25
   2   5 -12   93.98    9.02
   2   5 -11   90.08    5.51
   2   5 -11   63.18    7.26
   2   5 -11   78.84    6.28
   2   5 -10    2.94    1.09
   2   5 -10    0.37    1.54
   2   5 -10    4.49    1.71
   2   5  -9   52.99    3.74
   2   5  -9   56.13    6.29
   2   5  -9   61.47    4.61
   2   5  -8   93.99    5.06
   2   5  -8  114.19    8.53
   2   5  -8  113.07    8.43
   2   5  -8  103.89    8.39
   2   5  -7  624.42   24.91
   2   5  -7  627.84   20.40
   2   5  -7  622.73   25.25
   2   5  -7  618.76   26.00
   2   5  -7  590.70   25.26
   2   5  -6  331.24   15.16
   2   5  -6  321.19   15.57
   2   5  -6  313.61   15.66
   2   5  -5   63.10    5.28
   2   5  -5   64.20    5.75
   2   5  -5   64.70    5.93
   2   5  -4    4.94    1.85
   2   5  -4    4.55    1.66
   2   5  -3   10.49    2.45
   2   5  -3    7.52    2.21
   2   5  -2  467.12   18.42
   2   5  -2  414.63   17.83
   2   5  -1  631.72   24.22
   2   5  -1  678.25   24.27
   2   5   0  240.24   11.36
   2   5   0  235.77   11.33
   2   5   0  217.15   10.75
   2   5   1  129.84    8.14
   2   5   1  130.00    7.83
   2   5   1  130.28    7.34
   2   5   2   33.55    3.72
   2   5   2   34.54    3.36
   2   5   3   20.66    3.08
   2   5   3   27.92    2.90
   2   5   4   68.07    5.68
   2   5   4   73.38    4.67
   2   5   5  644.28   24.83
   2   5   5  683.86   22.60
   2   5   5  641.74   24.32
   2   5   6  493.10   17.47
   2   5   6  501.94   20.25
   2   5   6  498.85   19.91
   2   5   7   59.87    5.43
   2   5   7   51.69    4.99
   2   5   8    7.64    2.24
   2   5   8    6.66    2.07
   2   5   9   -0.95    1.41
   2   5   9    2.40    1.35
   2   5  10  415.33   18.53
   2   5  10  418.08   18.88
   2   5  11  127.20    8.84
   2   5  11  127.59    9.24
   2   5  12  161.61   10.44
   2   5  12  173.55   11.40
   2   5  13    0.09    1.65
   2   5  13   -1.37    1.98
   2   5  14    1.54    1.84
   2   5  15   95.92    9.23
   2   5  16  134.62   11.36
   2   5  17   38.30    6.40
   2   6 -15   51.29    7.69
   2   6 -14   65.83    8.46
   2   6 -13   31.60    6.15
   2   6 -12    2.72    2.72
   2   6 -11   47.60    6.62
   2   6 -10  147.18    7.29
   2   6 -10  166.10   12.12
   2   6  -9   75.15    4.68
   2   6  -9   69.92    7.49
   2   6  -8  260.44   15.23
   2   6  -7   80.54    6.89
   2   6  -7   71.80    7.28
   2   6  -6    9.16    2.38
   2   6  -6    8.63    2.60
   2   6  -5  440.04   19.66
   2   6  -5  414.94   19.52
   2   6  -4  403.01   17.93
   2   6  -4  426.45   19.07
   2   6  -4  432.08   19.21
   2   6  -3  631.30   24.86
   2   6  -3  650.99   25.70
   2   6  -3  660.85   25.82
   2   6  -2  229.61   12.22
   2   6  -2  255.66   13.00
   2   6  -2  254.08   12.86
   2   6  -1  266.65   13.31
   2   6  -1  271.08   13.56
   2   6  -1  285.31   13.51
   2   6   0   89.50    6.98
   2   6   0   94.68    7.07
   2   6   0   99.43    6.85
   2   6   1  862.28   32.34
   2   6   1  950.55   32.55
   2   6   1  879.36   31.32
   2   6   2 1596.30   50.29
   2   6   2 1579.95   49.70
   2   6   3  924.00   33.41
   2   6   3  910.07   31.27
   2   6   4  267.95   13.51
   2   6   4  257.85   11.53
   2   6   5    4.66    2.02
   2   6   5    0.19    0.87
   2   6   6  380.61   14.70
   2   6   6  404.96   18.01
   2   6   6  376.13   17.26
   2   6   7 1015.20   33.52
   2   6   7 1103.96   38.28
   2   6   7 1055.16   37.66
   2   6   8  623.96   25.25
   2   6   8  597.46   24.89
   2   6   9  223.26   12.83
   2   6   9  214.40   12.56
   2   6  10   38.00    5.07
   2   6  10   30.40    4.53
   2   6  11  158.38   10.97
   2   6  12  124.43    9.91
   2   6  13  226.64   14.42
   2   6  14  100.96    9.47
   2   6  15   29.32    5.50
   2   6  16   -1.30    2.98
   2   6  17   36.68    6.87
   2   7 -13   67.37    8.66
   2   7 -12  150.33   12.88
   2   7 -11  157.15   12.94
   2   7 -10  122.63   11.05
   2   7  -9    2.03    1.64
   2   7  -9    3.01    2.73
   2   7  -8   23.46    4.87
   2   7  -8   19.40    3.29
   2   7  -7  572.59   23.65
   2   7  -7  515.72   22.85
   2   7  -7  569.99   25.69
   2   7  -6   84.45    7.18
   2   7  -6   93.94    8.57
   2   7  -5  329.75   16.38
   2   7  -5  356.23   18.01
   2   7  -4   44.37    5.04
   2   7  -4   49.42    5.85
   2   7  -3   64.52    6.12
   2   7  -3   67.38    6.62
   2   7  -2  334.87   16.51
   2   7  -2  347.70   17.07
   2   7  -2  355.87   17.01
   2   7  -1  540.04   23.38
   2   7  -1  557.54   23.77
   2   7  -1  605.69   23.80
   2   7   0  180.02   11.09
   2   7   0  194.12   11.40
   2   7   0  172.18   10.40
   2   7   1   67.56    6.31
   2   7   1   46.25    5.26
   2   7   1   51.36    5.06
   2   7   2   -1.38    1.21
   2   7   2   -0.13    1.21
   2   7   3   11.69    2.66
   2   7   3    8.03    1.96
   2   7   4   74.40    6.78
   2   7   4   59.40    5.09
   2   7   5  339.22   17.32
   2   7   5  368.32   15.05
   2   7   6  318.34   16.12
   2   7   6  314.20   13.23
   2   7   7   67.99    4.75
   2   7   7   66.79    6.65
   2   7   8    4.59    1.44
   2   7   8    2.74    1.51
   2   7   9   26.54    4.49
   2   7  10  138.33   10.54
   2   7  11  262.44   15.57
   2   7  12  136.52   11.00
   2   7  13   48.87    6.62
   2   7  14    3.91    2.59
   2   7  15   18.08    4.87
   2   7  16   53.31    7.86
   2   8 -11   14.55    3.87
   2   8 -10   -0.42    2.30
   2   8  -9   10.45    4.04
   2   8  -8  227.01   15.65
   2   8  -7  499.96   24.89
   2   8  -6  122.75   10.51
   2   8  -5   74.03    7.89
   2   8  -4   46.10    6.05
   2   8  -3  259.36   15.07
   2   8  -2  473.94   21.87
   2   8  -1  755.87   30.12
   2   8   0   78.47    7.14
   2   8   1   11.95    2.80
   2   8   2  583.71   24.82
   2   8   2  557.99   23.21
   2   8   3  353.18   17.09
   2   8   3  317.43   15.38
   2   8   4  336.17   15.41
   2   8   5  146.21    8.76
   2   8   6   18.61    2.84
   2   8   6   18.15    3.69
   2   8   7  390.68   15.93
   2   8   7  393.28   19.86
   2   8   8  216.55   10.06
   2   8   8  219.92   14.23
   2   8   9  158.53   11.82
   2   8  10   85.48    8.60
   2   8  11    8.69    3.61
   2   8  12   13.25    3.95
   2   8  13   51.44    7.20
   2   8  14  108.49   10.79
   2   8  15   39.28    6.72
   2   8  16   40.70    7.50
   2   9  -9   52.60    7.87
   2   9  -8    9.85    3.75
   2   9  -7    9.13    3.81
   2   9  -6   55.28    7.48
   2   9  -5  195.38   14.13
   2   9  -4  157.31   12.25
   2   9  -3   18.62    4.27
   2   9  -2    3.18    2.11
   2   9  -1   69.85    7.32
   2   9   0   35.81    5.15
   2   9   1  129.13    9.61
   2   9   2   85.39    7.50
   2   9   3   70.44    6.60
   2   9   4    1.01    1.36
   2   9   5    6.61    2.12
   2   9   6   29.48    3.84
   2   9   6   19.71    4.22
   2   9   7  142.17   11.63
   2   9   7  157.93    8.97
   2   9   8  103.00    6.80
   2   9   8  110.85   10.15
   2   9   9   54.55    7.15
   2   9  10   -1.84    2.48
   2   9  11   57.69    7.79
   2   9  12  107.88   10.81
   2   9  13   73.55    8.83
   2   9  14   23.45    5.14
   2  10  -7  126.37   12.17
   2  10  -6   85.76    9.80
   2  10  -5   97.53   10.28
   2  10  -4    1.77    3.17
   2  10  -3    8.94    3.52
   2  10  -2   60.16    7.43
   2  10  -1  376.38   20.17
   2  10   0  155.90   11.65
   2  10   1  132.31   10.36
   2  10   2    5.19    2.20
   2  10   3   18.63    3.80
   2  10   4  344.91   17.44
   2  10   5  281.21   14.90
   2  10   6  121.95   11.23
   2  10   6  129.39    8.99
   2  10   7    9.83    2.33
   2  10   7   12.76    4.15
   2  10   8   41.51    6.71
   2  10   9  102.24   10.69
   2  10  10   59.45    8.36
   2  10  11   74.70    9.23
   2  10  12   37.22    6.70
   2  11  -5   20.10    5.50
   2  11  -4  101.32   10.73
   2  11  -3   56.35    8.00
   2  11  -2   13.39    4.18
   2  11  -1    6.81    3.73
   2  11   0   65.44    8.23
   2  11   1   78.30    8.49
   2  11   2   12.35    3.47
   2  11   3   23.61    4.67
   2  11   4    7.12    2.47
   2  11   5   -0.33    1.59
   2  11   5   -5.14    3.00
   2  11   6   15.37    4.30
   2  11   7    4.52    2.49
   2  11   8   67.20    8.84
   2  11   9   14.74    4.60
   2  12  -2    2.20    2.47
   2  12  -1   61.25    8.24
   2  12   0  176.68   14.22
   2  12   1  184.95   14.21
   2  12   2   49.53    7.25
   2  12   3    7.82    3.40
   2  12   4   54.91    7.15
   2  13   1    6.80    3.78
   2  13   2   11.37    4.15
   3 -10  -3   23.64    5.25
   3 -10  -2   23.56    5.50
   3 -10  -1   12.73    4.15
   3 -10   0   20.24    4.87
   3 -10   1    1.34    2.80
   3  -9  -5  187.19   15.20
   3  -9  -5  160.87   11.59
   3  -9  -4  136.06   12.80
   3  -9  -4  144.67   11.05
   3  -9  -3   15.33    4.52
   3  -9  -3   17.08    4.42
   3  -9  -2   10.86    3.98
   3  -9  -2   13.87    4.01
   3  -9  -1  128.41   12.06
   3  -9  -1  146.82   11.97
   3  -9   0  208.14   15.40
   3  -9   0  215.99   15.16
   3  -9   1  242.99   16.67
   3  -9   2   61.15    8.05
   3  -9   3    3.23    2.30
   3  -9   4   54.17    7.94
   3  -8  -8   80.31    9.74
   3  -8  -7   66.28    8.61
   3  -8  -6    2.55    2.36
   3  -8  -6    6.58    2.10
   3  -8  -5    3.17    2.85
   3  -8  -5    1.92    1.77
   3  -8  -4   18.37    4.77
   3  -8  -4   20.82    3.88
   3  -8  -3   39.39    6.49
   3  -8  -3   27.55    4.62
   3  -8  -2   25.55    5.26
   3  -8  -2   23.17    4.32
   3  -8  -1   13.36    4.06
   3  -8  -1   13.61    3.77
   3  -8   0   44.75    6.56
   3  -8   0   46.62    6.41
   3  -8   1    1.54    2.03
   3  -8   1    4.32    2.79
   3  -8   2    3.32    2.11
   3  -8   2   12.61    4.08
   3  -8   3   30.50    5.79
   3  -8   4   71.01    8.55
   3  -8   5   57.51    7.99
   3  -8   5   54.31    6.43
   3  -8   6   28.28    5.63
   3  -8   6   33.99    5.11
   3  -7 -11   52.13    8.06
   3  -7 -10  115.65   11.49
   3  -7  -9  180.85   14.50
   3  -7  -8  154.24   13.12
   3  -7  -7   35.72    6.66
   3  -7  -7   35.03    3.94
   3  -7  -6   20.64    4.83
   3  -7  -6   18.41    3.09
   3  -7  -5  225.13   15.34
   3  -7  -5  219.67   12.09
   3  -7  -4  588.90   27.87
   3  -7  -4  596.44   24.54
   3  -7  -3  299.68   18.01
   3  -7  -3  335.94   16.52
   3  -7  -2   21.38    4.66
   3  -7  -2   25.53    4.23
   3  -7  -1    3.12    2.29
   3  -7  -1    0.31    1.52
   3  -7   0  133.44   10.71
   3  -7   0  145.45   10.68
   3  -7   1  550.00   25.19
   3  -7   1  552.92   25.29
   3  -7   2  262.95   15.32
   3  -7   2  254.97   15.68
   3  -7   3   58.41    6.52
   3  -7   3   74.89    8.06
   3  -7   4    0.18    2.13
   3  -7   5   63.62    8.03
   3  -7   5   49.58    5.96
   3  -7   6  135.19   12.01
   3  -7   6  132.66    9.95
   3  -7   7  139.48   12.51
   3  -7   7  151.21   10.84
   3  -7   8   96.45   10.24
   3  -7   8   85.78    7.95
   3  -6 -13   61.69    8.51
   3  -6 -12  147.75   13.10
   3  -6 -11   89.36    9.94
   3  -6 -10   27.74    5.88
   3  -6  -9   15.72    4.49
   3  -6  -8   26.32    5.26
   3  -6  -8   25.99    2.70
   3  -6  -7  290.03   17.39
   3  -6  -7  265.63   11.87
   3  -6  -6   51.18    6.74
   3  -6  -6   32.13    3.63
   3  -6  -5  144.06   11.30
   3  -6  -5  145.18    8.60
   3  -6  -4  119.25   10.04
   3  -6  -4  114.09    7.84
   3  -6  -3    0.45    1.86
   3  -6  -3    4.28    1.89
   3  -6  -2   64.25    7.05
   3  -6  -2   68.14    6.25
   3  -6  -1   58.17    6.48
   3  -6  -1   70.08    6.59
   3  -6   0  349.23   18.06
   3  -6   0  375.97   18.00
   3  -6   1  166.35   11.11
   3  -6   1  162.72   11.09
   3  -6   2  263.52   14.44
   3  -6   2  259.38   15.02
   3  -6   3    4.10    2.17
   3  -6   3    1.10    1.87
   3  -6   4   13.11    2.93
   3  -6   4   14.55    3.64
   3  -6   5  562.53   25.77
   3  -6   5  497.25   22.57
   3  -6   6  348.42   19.59
   3  -6   6  337.16   17.14
   3  -6   7  115.63   10.84
   3  -6   7  107.34    8.68
   3  -6   8   21.55    4.86
   3  -6   8   27.86    4.59
   3  -6   9    9.41    4.03
   3  -6   9   14.74    3.23
   3  -6  10  101.15   10.82
   3  -6  10   86.85    8.20
   3  -5 -15   33.07    6.25
   3  -5 -14  103.21   10.83
   3  -5 -13  145.16   12.67
   3  -5 -12   40.10    6.80
   3  -5 -11   -0.29    2.55
   3  -5 -10   75.81    8.55
   3  -5  -9  136.39   11.32
   3  -5  -8  269.24   16.29
   3  -5  -7  640.33   28.29
   3  -5  -7  639.74   21.83
   3  -5  -6    5.96    2.61
   3  -5  -6    3.92    1.33
   3  -5  -5    7.53    2.50
   3  -5  -5    8.35    1.81
   3  -5  -4  330.48   17.23
   3  -5  -4  324.03   14.11
   3  -5  -3  497.68   22.94
   3  -5  -3  547.60   20.93
   3  -5  -2  663.23   27.69
   3  -5  -2  696.49   25.97
   3  -5  -1  506.94   22.45
   3  -5  -1  528.83   21.45
   3  -5   0   -0.11    1.58
   3  -5   0   -0.54    1.26
   3  -5   1  163.18   10.58
   3  -5   1  188.31   11.21
   3  -5   1  199.37   12.13
   3  -5   2  887.21   32.97
   3  -5   2  895.97   33.98
   3  -5   3  770.62   30.28
   3  -5   3  906.23   33.26
   3  -5   4  260.91   12.91
   3  -5   4  232.31   14.17
   3  -5   5  174.73   11.95
   3  -5   5  153.98   10.13
   3  -5   6   25.74    4.57
   3  -5   6   26.15    3.95
   3  -5   7  423.64   22.26
   3  -5   7  466.05   20.64
   3  -5   8  518.48   24.74
   3  -5   8  443.38   21.03
   3  -5   9  237.03   15.92
   3  -5   9  218.47   13.26
   3  -5  10   11.76    3.19
   3  -5  11    7.61    2.78
   3  -5  12   35.88    5.35
   3  -4 -16   89.88   10.06
   3  -4 -15   42.29    7.04
   3  -4 -14    1.49    3.18
   3  -4 -13   27.69    5.53
   3  -4 -12   23.30    4.91
   3  -4 -11  319.23   18.36
   3  -4 -10  190.92   13.25
   3  -4  -9   12.16    3.33
   3  -4  -8   -0.92    1.74
   3  -4  -7    4.58    2.50
   3  -4  -6  386.16   18.88
   3  -4  -6  382.89   13.78
   3  -4  -5  280.68   15.07
   3  -4  -5  271.76   11.29
   3  -4  -5  319.19   15.83
   3  -4  -4  230.82   13.15
   3  -4  -4  227.90   10.27
   3  -4  -4  237.29   13.18
   3  -4  -3   -0.34    1.30
   3  -4  -3    0.95    1.08
   3  -4  -3    0.09    1.21
   3  -4  -2   -0.19    1.41
   3  -4  -2    2.26    1.45
   3  -4  -2    0.85    1.34
   3  -4  -1  168.37   10.25
   3  -4  -1  162.72    9.26
   3  -4  -1  192.95   11.11
   3  -4   0  201.02   11.26
   3  -4   0  210.97   11.09
   3  -4   0  223.50   12.27
   3  -4   1   48.82    4.87
   3  -4   1   41.89    4.67
   3  -4   1   54.82    5.54
   3  -4   2  572.93   22.14
   3  -4   2  556.07   22.98
   3  -4   2  556.58   23.36
   3  -4   3    0.35    1.28
   3  -4   3    2.90    1.87
   3  -4   3    0.79    1.26
   3  -4   4   -0.70    1.16
   3  -4   4    3.77    1.87
   3  -4   4   -0.50    1.66
   3  -4   5  161.81    8.77
   3  -4   5  165.60   10.55
   3  -4   5  176.17   11.39
   3  -4   5  161.82   10.01
   3  -4   6  168.60   10.77
   3  -4   6  149.57   10.77
   3  -4   6  134.90    9.33
   3  -4   7  356.99   18.32
   3  -4   7  309.28   15.84
   3  -4   8  187.76   12.91
   3  -4   8  162.62   10.70
   3  -4   9    2.39    1.42
   3  -4  10   13.78    3.33
   3  -4  11  125.48    9.98
   3  -4  12  199.58   13.43
   3  -4  13   84.17    8.57
   3  -4  14   30.24    5.66
   3  -3 -16   10.87    4.51
   3  -3 -15   -1.35    2.91
   3  -3 -14   58.97    7.58
   3  -3 -13  236.97   15.21
   3  -3 -12  149.55   11.44
   3  -3 -11  494.59   23.37
   3  -3 -10   -0.16    1.84
   3  -3  -9    8.08    2.67
   3  -3  -8  338.83   17.12
   3  -3  -7  803.43   31.24
   3  -3  -6  915.07   34.84
   3  -3  -6  972.58   35.29
   3  -3  -5  269.48   14.41
   3  -3  -5  304.29   14.92
   3  -3  -5  317.59   15.08
   3  -3  -4   13.69    2.79
   3  -3  -4   13.86    1.79
   3  -3  -4   15.22    3.01
   3  -3  -3  376.34   16.51
   3  -3  -3  345.31   13.65
   3  -3  -3  368.60   16.40
   3  -3  -2  509.91   20.50
   3  -3  -2  495.35   18.45
   3  -3  -2  506.12   20.65
   3  -3  -1 2215.43   69.02
   3  -3  -1 2142.17   67.41
   3  -3  -1 2183.01   69.44
   3  -3   0   38.20    4.12
   3  -3   0   48.32    4.31
   3  -3   0   42.73    4.58
   3  -3   1  101.53    6.81
   3  -3   1  114.93    7.34
   3  -3   1  121.44    7.97
   3  -3   2  148.04    8.32
   3  -3   2  160.90    9.29
   3  -3   2  163.15    9.65
   3  -3   3  234.23   10.42
   3  -3   3  192.33   11.15
   3  -3   3  198.61   11.25
   3  -3   4  422.83   16.81
   3  -3   4  456.17   19.29
   3  -3   4  486.27   20.05
   3  -3   5  433.10   16.29
   3  -3   5  429.85   19.08
   3  -3   5  430.52   19.61
   3  -3   5  451.19   18.84
   3  -3   6  175.10   10.61
   3  -3   6  147.70   10.39
   3  -3   6  179.35   10.33
   3  -3   7    3.44    1.73
   3  -3   7    6.27    2.56
   3  -3   7    2.99    1.76
   3  -3   8   99.04    8.08
   3  -3   8   93.43    7.57
   3  -3   9  234.95   13.35
   3  -3  10  102.66    8.46
   3  -3  11  286.70   16.05
   3  -3  12   16.65    3.80
   3  -3  13   14.83    3.99
   3  -3  14   88.77    9.16
   3  -3  15  104.34   10.49
   3  -3  16   31.22    6.18
   3  -2 -17   11.42    4.13
   3  -2 -16  111.14   10.47
   3  -2 -15  137.91   11.25
   3  -2 -14   57.64    6.85
   3  -2 -13    3.68    2.14
   3  -2 -12    5.73    2.39
   3  -2 -11  149.12   10.65
   3  -2 -10  356.33   17.78
   3  -2  -9  250.11   13.86
   3  -2  -8  128.40    9.07
   3  -2  -8  121.49    9.17
   3  -2  -7   67.81    6.29
   3  -2  -7   73.83    6.64
   3  -2  -6  225.72   12.05
   3  -2  -6  212.78   11.93
   3  -2  -5  263.81   13.29
   3  -2  -5  272.31   13.44
   3  -2  -4  988.75   35.64
   3  -2  -4 1021.89   35.70
   3  -2  -4 1073.03   35.90
   3  -2  -3  558.75   20.64
   3  -2  -3  506.29   19.88
   3  -2  -3  473.81   19.73
   3  -2  -2  640.39   23.51
   3  -2  -2  616.97   21.25
   3  -2  -2  645.25   23.56
   3  -2  -1   94.92    6.35
   3  -2  -1   96.62    5.61
   3  -2  -1  103.54    6.73
   3  -2   0  542.00   20.86
   3  -2   0  609.80   20.88
   3  -2   0  564.10   21.74
   3  -2   1  589.38   21.14
   3  -2   1  573.67   21.43
   3  -2   1  590.96   22.28
   3  -2   2 1715.86   52.84
   3  -2   2 1626.55   54.00
   3  -2   2 1733.08   54.78
   3  -2   3  713.99   24.23
   3  -2   3  731.89   26.48
   3  -2   3  701.74   26.27
   3  -2   4  139.63    6.81
   3  -2   4  131.74    8.45
   3  -2   4  156.43    9.15
   3  -2   4  157.89    8.82
   3  -2   5    2.91    1.53
   3  -2   5    1.62    0.77
   3  -2   5    2.18    1.36
   3  -2   6  434.19   18.80
   3  -2   6  422.79   18.26
   3  -2   7  877.64   32.39
   3  -2   7  857.84   31.87
   3  -2   8  373.05   17.50
   3  -2   8  353.69   16.91
   3  -2   9   56.07    5.89
   3  -2   9   75.96    6.75
   3  -2  10    2.78    2.07
   3  -2  11   62.51    6.80
   3  -2  12  117.34    9.89
   3  -2  13   83.28    8.52
   3  -2  14   67.40    7.77
   3  -2  15   35.32    6.12
   3  -2  16    0.98    2.19
   3  -1 -16  143.59   11.37
   3  -1 -16  152.45   12.15
   3  -1 -15   36.61    5.51
   3  -1 -14    3.54    1.91
   3  -1 -13  119.38    9.50
   3  -1 -12  412.16   19.81
   3  -1 -11  655.38   26.99
   3  -1 -10  114.48    8.58
   3  -1  -9   64.41    6.15
   3  -1  -9   75.97    6.87
   3  -1  -8  112.04    8.07
   3  -1  -8  111.40    8.51
   3  -1  -7  515.79   21.04
   3  -1  -7  502.96   21.41
   3  -1  -6 3188.48   98.30
   3  -1  -6 3185.51   98.75
   3  -1  -5 1209.80   41.33
   3  -1  -5 1250.48   41.74
   3  -1  -4  183.86    9.63
   3  -1  -4  184.20    9.58
   3  -1  -4  173.09    9.04
   3  -1  -3  142.45    7.91
   3  -1  -3  134.64    7.54
   3  -1  -3  120.31    7.10
   3  -1  -2 1310.72   40.54
   3  -1  -2 1213.23   39.73
   3  -1  -2 1183.18   39.83
   3  -1  -1 2817.32   86.71
   3  -1  -1 2868.03   86.14
   3  -1  -1 2904.97   87.00
   3  -1   0 3085.05   90.88
   3  -1   0 2913.43   89.93
   3  -1   1  943.57   31.62
   3  -1   1  924.85   30.39
   3  -1   2    2.73    1.33
   3  -1   2    2.45    0.97
   3  -1   3  244.39   11.37
   3  -1   3  242.28    9.53
   3  -1   4 1255.23   40.02
   3  -1   4 1139.13   36.25
   3  -1   4 1230.63   39.75
   3  -1   5  577.68   22.94
   3  -1   5  614.30   19.12
   3  -1   5  594.40   22.86
   3  -1   6 1694.20   55.96
   3  -1   6 1738.21   55.91
   3  -1   7  440.84   18.78
   3  -1   7  417.12   18.34
   3  -1   8    2.28    1.90
   3  -1   8    2.29    1.40
   3  -1   9  144.10    9.80
   3  -1   9  149.14    9.88
   3  -1  10  280.83   15.13
   3  -1  11  698.20   29.19
   3  -1  12  134.08   10.47
   3  -1  13   54.50    6.77
   3  -1  14   16.35    3.93
   3  -1  15   57.81    7.80
   3  -1  16   94.27    9.99
   3  -1  17  103.69   11.16
   3   0 -16   19.62    4.50
   3   0 -15  103.65    9.07
   3   0 -15  115.43    9.32
   3   0 -14  100.81    8.60
   3   0 -14   96.34    8.44
   3   0 -13  131.94    9.69
   3   0 -13  130.94    7.09
   3   0 -12   65.38    6.56
   3   0 -12   71.19    3.46
   3   0 -12   74.89    4.96
   3   0 -11    0.72    0.87
   3   0 -11   -1.11    1.88
   3   0 -11    0.45    0.43
   3   0 -10  166.23   10.43
   3   0 -10  175.68   11.14
   3   0 -10  177.16    8.17
   3   0  -9  456.78   19.57
   3   0  -9  455.96   20.17
   3   0  -9  481.78   20.97
   3   0  -9  443.84   19.84
   3   0  -9  442.15   16.36
   3   0  -8  152.33    9.28
   3   0  -8  147.91    7.11
   3   0  -8  158.12   10.03
   3   0  -8  151.15    9.51
   3   0  -7   36.10    4.08
   3   0  -7   34.22    2.90
   3   0  -7   37.43    4.38
   3   0  -6   92.70    6.58
   3   0  -6   88.69    4.90
   3   0  -6   91.88    6.79
   3   0  -5  149.74    8.36
   3   0  -5  141.79    6.60
   3   0  -5  141.64    8.30
   3   0  -4  449.91   17.07
   3   0  -4  416.90   14.98
   3   0  -4  427.89   16.84
   3   0  -4  409.33   15.75
   3   0  -3  435.39   16.92
   3   0  -3  420.25   16.51
   3   0  -3  455.13   16.13
   3   0  -2  221.28    9.96
   3   0  -2  215.67    9.43
   3   0  -2  216.42    9.32
   3   0  -1  141.76    7.11
   3   0  -1  134.89    6.45
   3   0  -1  136.16    6.84
   3   0   0    0.49    0.91
   3   0   0    0.98    0.72
   3   0   0    0.63    0.81
   3   0   1 1199.02   37.40
   3   0   1 1237.18   36.29
   3   0   1 1104.90   37.94
   3   0   2    5.74    1.58
   3   0   2    5.28    1.17
   3   0   3  276.37   11.78
   3   0   3  256.47    9.57
   3   0   3  264.48   11.61
   3   0   4  242.37   11.11
   3   0   4  218.32    8.24
   3   0   4  287.53   11.75
   3   0   5    8.56    1.91
   3   0   5   10.24    0.90
   3   0   5   12.63    2.42
   3   0   6    2.70    1.23
   3   0   6    1.90    1.19
   3   0   7  101.73    7.36
   3   0   7  109.55    7.52
   3   0   8  171.61   10.36
   3   0   8  172.27   10.32
   3   0   9  210.63   12.18
   3   0   9  210.19   12.16
   3   0  10  242.63   13.80
   3   0  11   37.97    5.26
   3   0  12   10.46    3.95
   3   0  13   80.52    8.28
   3   0  14  105.38    9.89
   3   0  15   98.52   10.02
   3   0  16   55.66    7.58
   3   0  17   23.94    5.75
   3   1 -15  130.18    9.63
   3   1 -15  128.82    9.73
   3   1 -14   65.46    6.38
   3   1 -14   50.64    5.82
   3   1 -14   47.45    4.76
   3   1 -13    0.44    1.21
   3   1 -13    0.87    1.24
   3   1 -13    0.07    1.81
   3   1 -12  267.31   14.28
   3   1 -12  256.49   13.44
   3   1 -12  262.87   11.30
   3   1 -12  300.04   13.09
   3   1 -11   54.28    5.62
   3   1 -11   62.29    4.24
   3   1 -11   66.97    5.25
   3   1 -10  563.51   22.76
   3   1 -10  550.82   19.23
   3   1 -10  553.87   23.16
   3   1 -10  555.72   20.81
   3   1  -9  502.36   20.80
   3   1  -9  488.46   21.83
   3   1  -9  548.85   22.81
   3   1  -9  510.58   17.60
   3   1  -9  498.24   20.94
   3   1  -9  506.53   19.09
   3   1  -8   63.72    5.58
   3   1  -8   73.92    6.33
   3   1  -8   65.23    3.85
   3   1  -8   65.16    6.18
   3   1  -8   62.99    5.62
   3   1  -8   68.94    4.82
   3   1  -7   -0.16    0.86
   3   1  -7    2.25    1.32
   3   1  -7   -0.10    1.45
   3   1  -7    0.78    1.27
   3   1  -7    0.08    0.53
   3   1  -6  673.86   24.65
   3   1  -6  667.98   21.44
   3   1  -6  705.82   25.68
   3   1  -6  651.74   22.90
   3   1  -5 1220.41   40.39
   3   1  -5 1249.71   41.03
   3   1  -5 1211.52   38.74
   3   1  -4  981.79   33.00
   3   1  -4  966.69   31.01
   3   1  -4  998.27   33.29
   3   1  -4  995.31   31.72
   3   1  -3 1051.52   34.90
   3   1  -3 1095.78   33.95
   3   1  -3 1059.72   34.83
   3   1  -3 1045.60   33.07
   3   1  -2  464.15   16.08
   3   1  -2  438.21   16.18
   3   1  -2  438.80   15.32
   3   1  -1  512.20   17.48
   3   1  -1  494.59   16.84
   3   1  -1  481.40   16.96
   3   1   0 8378.82  233.36
   3   1   0 7777.66  232.42
   3   1   1 1025.19   30.34
   3   1   1  893.43   28.09
   3   1   2  156.85    7.69
   3   1   2  167.31    7.92
   3   1   3   13.96    2.09
   3   1   3   20.60    2.65
   3   1   4   31.13    3.30
   3   1   4   35.90    3.58
   3   1   5  334.44   14.51
   3   1   5  348.48   14.60
   3   1   6  410.47   12.85
   3   1   6  443.92   17.62
   3   1   6  397.51   17.00
   3   1   7  499.68   20.29
   3   1   7  476.30   19.96
   3   1   8   16.36    2.97
   3   1   9   34.29    4.53
   3   1  10   62.26    6.38
   3   1  11   59.21    6.45
   3   1  12  205.53   13.38
   3   1  13  325.76   18.39
   3   1  14   15.70    4.07
   3   1  15   -2.04    2.00
   3   1  16   27.97    5.63
   3   2 -14   41.73    4.76
   3   2 -14   44.36    5.28
   3   2 -14   40.26    4.93
   3   2 -13  301.78   14.43
   3   2 -13  294.83   15.24
   3   2 -13  305.87   14.96
   3   2 -12  346.98   16.74
   3   2 -12  361.76   15.68
   3   2 -12  341.12   15.09
   3   2 -12  373.73   16.61
   3   2 -11    3.25    1.54
   3   2 -11    1.20    1.44
   3   2 -11    4.94    2.00
   3   2 -11    2.75    1.76
   3   2 -11    2.05    1.08
   3   2 -10    8.47    1.86
   3   2 -10    6.74    2.04
   3   2 -10    8.24    2.16
   3   2 -10    9.91    2.46
   3   2 -10    7.20    1.70
   3   2  -9  298.05   12.29
   3   2  -9  282.07   13.85
   3   2  -9  284.49   12.28
   3   2  -9  313.33   15.88
   3   2  -9  291.86   13.88
   3   2  -9  296.37   13.46
   3   2  -8  202.85   10.68
   3   2  -8  191.76   11.41
   3   2  -8  190.19    9.02
   3   2  -8  206.59   11.95
   3   2  -8  204.08   10.14
   3   2  -8  200.38   10.30
   3   2  -7  229.64   11.25
   3   2  -7  228.65   11.98
   3   2  -7  229.25   12.20
   3   2  -7  212.66    9.53
   3   2  -7  216.33   10.43
   3   2  -7  218.77   10.50
   3   2  -6  281.82   11.46
   3   2  -6  297.28   14.02
   3   2  -6  300.68   12.64
   3   2  -5  191.36    8.34
   3   2  -5  183.78   10.00
   3   2  -5  201.73    9.33
   3   2  -4    1.56    1.11
   3   2  -4    0.90    0.51
   3   2  -4    0.06    0.98
   3   2  -4    0.40    0.70
   3   2  -3  184.36    6.73
   3   2  -3  190.35    9.09
   3   2  -3  182.62    8.54
   3   2  -2  279.58    9.54
   3   2  -2  273.65   11.40
   3   2  -2  284.22   11.35
   3   2  -1  716.36   24.12
   3   2  -1  715.43   23.77
   3   2  -1  719.16   22.59
   3   2   0 9999.00  288.59
   3   2   0 9977.50  287.33
   3   2   0 9830.59  287.50
   3   2   1  711.26   24.71
   3   2   1  816.75   25.79
   3   2   1  789.70   25.08
   3   2   2  502.01   19.57
   3   2   2  676.85   20.46
   3   2   3  168.64    8.21
   3   2   3  174.56    8.30
   3   2   4  450.31   17.01
   3   2   4  428.27   13.61
   3   2   4  442.68   16.81
   3   2   5  283.01   10.41
   3   2   5  282.47    9.70
   3   2   5  293.33   12.81
   3   2   6  342.55   12.49
   3   2   6  378.34   12.55
   3   2   6  361.48   15.59
   3   2   7   22.86    1.97
   3   2   7   27.50    2.34
   3   2   7   26.22    3.50
   3   2   8    0.73    0.52
   3   2   8    0.13    0.86
   3   2   8    1.10    1.31
   3   2   9   54.87    3.20
   3   2   9   59.26    4.29
   3   2   9   55.86    5.84
   3   2  10  447.29   14.86
   3   2  10  448.99   17.35
   3   2  10  421.37   20.23
   3   2  11   -0.05    1.09
   3   2  11    1.15    1.71
   3   2  12   44.67    4.50
   3   2  12   39.29    5.61
   3   2  13    6.26    3.10
   3   2  14    0.99    2.23
   3   2  15   11.51    3.57
   3   2  16   39.76    6.63
   3   3 -15  102.97    8.84
   3   3 -14   87.13    7.35
   3   3 -14   80.22    7.53
   3   3 -13  112.36    7.20
   3   3 -13  106.05    8.06
   3   3 -13  101.14    8.32
   3   3 -12   -0.63    1.36
   3   3 -12   -0.05    1.31
   3   3 -12    0.68    1.60
   3   3 -12    0.10    1.74
   3   3 -12    2.59    1.16
   3   3 -11   49.32    5.27
   3   3 -11   56.52    4.40
   3   3 -11   49.64    5.04
   3   3 -11   49.18    5.22
   3   3 -11   55.23    5.68
   3   3 -10  185.95   10.61
   3   3 -10  182.51    8.50
   3   3 -10  172.79    9.83
   3   3 -10  183.97   10.32
   3   3 -10  178.94   10.62
   3   3  -9  362.07   16.38
   3   3  -9  380.55   13.80
   3   3  -9  373.95   15.77
   3   3  -9  354.93   15.63
   3   3  -9  361.29   16.54
   3   3  -8  252.56   13.35
   3   3  -8  224.75    8.99
   3   3  -8  235.87   11.14
   3   3  -8  225.59   12.98
   3   3  -8  223.39   10.76
   3   3  -8  237.50   11.94
   3   3  -7  166.31   10.04
   3   3  -7  158.17    6.39
   3   3  -7  157.38    8.47
   3   3  -7  170.21   10.37
   3   3  -7  162.25    8.07
   3   3  -7  154.50    9.01
   3   3  -6   61.51    2.92
   3   3  -6   67.92    5.96
   3   3  -6   65.38    4.82
   3   3  -6   65.23    4.29
   3   3  -6   65.87    5.30
   3   3  -5  142.59    7.35
   3   3  -5  137.48    8.43
   3   3  -5  124.20    6.10
   3   3  -5  127.67    7.62
   3   3  -4  774.85   26.14
   3   3  -4  731.91   27.33
   3   3  -4  779.44   26.85
   3   3  -3 2147.35   66.62
   3   3  -3 2095.78   65.33
   3   3  -3 2166.30   66.10
   3   3  -2  205.65    9.22
   3   3  -2  209.32    9.66
   3   3  -1  418.53   15.90
   3   3   0  614.70   20.70
   3   3   0  564.47   18.79
   3   3   1 1793.06   56.66
   3   3   1 1873.69   55.61
   3   3   2  841.99   27.12
   3   3   2  781.87   26.34
   3   3   3  937.62   30.35
   3   3   3  907.57   30.34
   3   3   4  436.30   16.83
   3   3   5   63.58    4.14
   3   3   5   58.48    3.61
   3   3   5   65.28    5.10
   3   3   6  245.01   10.32
   3   3   6  254.25   10.00
   3   3   6  258.10   12.35
   3   3   7  606.22   20.39
   3   3   7  571.21   20.12
   3   3   7  558.58   22.85
   3   3   8  289.47   11.91
   3   3   8  310.97   12.45
   3   3   8  309.70   15.03
   3   3   9  634.06   21.88
   3   3   9  638.06   22.75
   3   3   9  612.71   25.66
   3   3  10  277.96   11.54
   3   3  10  286.31   12.80
   3   3  10  284.41   15.38
   3   3  11    1.14    0.84
   3   3  11    1.60    1.39
   3   3  11    0.61    1.74
   3   3  12  173.07    8.41
   3   3  12  182.47   10.28
   3   3  12  187.34   12.85
   3   3  13  444.47   19.37
   3   3  13  435.54   22.60
   3   3  14  165.68   10.65
   3   3  14  172.70   13.42
   3   3  15  103.90    8.41
   3   3  15   97.51   10.24
   3   4 -15   19.61    4.71
   3   4 -14    8.51    3.22
   3   4 -13   49.50    5.45
   3   4 -13   43.91    5.83
   3   4 -12  157.26    7.80
   3   4 -12  158.10   10.13
   3   4 -12  165.08   10.18
   3   4 -12  143.43   10.58
   3   4 -11  423.05   18.99
   3   4 -11  435.54   15.77
   3   4 -11  429.02   19.44
   3   4 -11  414.37   18.26
   3   4 -11  453.22   20.52
   3   4 -10  242.67    9.61
   3   4 -10  231.85   12.77
   3   4 -10  233.06   11.67
   3   4 -10  256.69   13.83
   3   4  -9   22.09    1.95
   3   4  -9   18.37    3.29
   3   4  -9   23.77    3.01
   3   4  -9   24.54    3.56
   3   4  -8   28.74    3.95
   3   4  -8   29.83    4.33
   3   4  -8   25.02    1.79
   3   4  -8   23.18    4.17
   3   4  -8   21.24    3.21
   3   4  -8   23.48    2.71
   3   4  -7  301.72   14.78
   3   4  -7  293.19   13.65
   3   4  -7  305.73   15.36
   3   4  -7  280.91   11.46
   3   4  -7  282.08   14.02
   3   4  -6 1361.59   45.78
   3   4  -6 1419.56   44.08
   3   4  -6 1252.15   40.38
   3   4  -6 1299.49   44.30
   3   4  -5  255.07   12.81
   3   4  -5  237.86   11.41
   3   4  -5  226.57    8.63
   3   4  -5  237.55   11.83
   3   4  -4  261.98   11.86
   3   4  -4  246.29    8.49
   3   4  -4  244.85   11.94
   3   4  -3    1.40    1.15
   3   4  -3    3.90    1.53
   3   4  -2  379.15   15.16
   3   4  -2  355.08   15.06
   3   4  -1  455.39   16.83
   3   4  -1  360.15   15.93
   3   4  -1  422.54   13.13
   3   4   0 1411.23   41.95
   3   4   0 1356.51   44.68
   3   4   1  354.83   12.94
   3   4   1  394.12   14.82
   3   4   2   84.30    4.83
   3   4   2   82.85    5.30
   3   4   3   51.62    4.06
   3   4   3   50.34    3.89
   3   4   4  153.28    7.96
   3   4   4  151.52    7.56
   3   4   4  144.12    7.86
   3   4   5  117.06    6.85
   3   4   5  118.09    6.40
   3   4   5  123.17    7.41
   3   4   6  967.39   33.70
   3   4   6 1017.14   33.32
   3   4   6 1075.02   35.63
   3   4   7  258.60   11.75
   3   4   7  264.26   11.54
   3   4   7  270.30   13.39
   3   4   8  183.35    9.31
   3   4   8  188.12    9.33
   3   4   8  177.51   10.87
   3   4   9   11.28    2.10
   3   4   9   15.86    2.54
   3   4   9   10.95    2.72
   3   4  10   38.22    3.88
   3   4  10   41.71    4.33
   3   4  10   27.13    4.42
   3   4  11  239.59   11.51
   3   4  11  238.75   12.29
   3   4  11  242.55   14.67
   3   4  12  409.72   17.06
   3   4  12  417.70   18.44
   3   4  12  409.38   21.21
   3   4  13  157.59   10.21
   3   4  13  160.50   12.43
   3   4  14   20.58    3.85
   3   4  15    2.27    1.80
   3   5 -16   -3.14    3.24
   3   5 -15   44.93    7.07
   3   5 -14  107.36   10.15
   3   5 -13  195.68   11.74
   3   5 -13  179.71   13.08
   3   5 -12   76.47    6.84
   3   5 -12   84.61    8.33
   3   5 -11   19.73    1.93
   3   5 -11   26.08    4.60
   3   5 -11   22.90    3.49
   3   5 -10   10.51    1.26
   3   5 -10    4.40    2.16
   3   5 -10   10.12    2.18
   3   5  -9   37.80    2.02
   3   5  -9   34.38    4.94
   3   5  -9   36.09    3.42
   3   5  -9   32.46    4.59
   3   5  -8  218.26   12.09
   3   5  -8  202.06   12.21
   3   5  -8  196.33    8.86
   3   5  -7  550.10   22.62
   3   5  -7  599.98   24.62
   3   5  -7  534.31   22.99
   3   5  -7  531.98   18.30
   3   5  -6  563.75   23.36
   3   5  -6  503.81   21.41
   3   5  -6  530.79   22.15
   3   5  -6  523.81   16.98
   3   5  -5   34.18    4.29
   3   5  -5   34.97    4.22
   3   5  -4   13.87    2.73
   3   5  -4   14.28    2.72
   3   5  -3  265.99   12.80
   3   5  -3  257.08   12.71
   3   5  -2 1290.56   44.28
   3   5  -2 1386.47   44.74
   3   5  -1 1526.85   50.43
   3   5  -1 1564.87   50.32
   3   5   0  834.88   29.58
   3   5   0  826.63   29.15
   3   5   1    2.17    1.46
   3   5   1    1.59    0.75
   3   5   2 1100.49   36.95
   3   5   2 1041.91   34.54
   3   5   2 1142.91   36.33
   3   5   3  836.57   28.18
   3   5   3  728.33   26.06
   3   5   3  768.92   26.64
   3   5   4 1289.41   40.86
   3   5   4 1256.32   39.32
   3   5   5  126.25    7.95
   3   5   5  133.63    7.18
   3   5   5  136.83    8.08
   3   5   6   18.62    2.95
   3   5   6   26.36    2.85
   3   5   6   16.60    2.61
   3   5   6   18.70    3.14
   3   5   7  422.73   17.72
   3   5   7  412.55   17.23
   3   5   7  432.78   18.76
   3   5   8  284.29   13.46
   3   5   8  267.82   13.01
   3   5   8  293.02   14.81
   3   5   9  364.46   16.36
   3   5   9  354.90   16.10
   3   5   9  403.52   18.68
   3   5  10   94.79    7.12
   3   5  10   96.35    7.24
   3   5  10  109.39    9.04
   3   5  11   70.98    6.10
   3   5  11   68.74    6.17
   3   5  12   25.97    3.85
   3   5  12   30.67    4.28
   3   5  13   89.84    7.79
   3   5  14   91.80    8.13
   3   5  15   94.27    8.56
   3   6 -15   31.08    6.19
   3   6 -14    2.46    2.73
   3   6 -13   -0.50    2.96
   3   6 -12   45.41    6.80
   3   6 -11  392.89   20.86
   3   6 -10  149.55   11.39
   3   6  -9   29.66    4.81
   3   6  -8    6.98    2.62
   3   6  -7   72.35    7.05
   3   6  -6  325.47   16.07
   3   6  -6  299.37   15.91
   3   6  -5  212.56   12.30
   3   6  -5  224.89   12.73
   3   6  -4  193.58   11.38
   3   6  -4  192.81   11.44
   3   6  -3    3.16    1.98
   3   6  -3    2.12    1.75
   3   6  -2    8.47    2.34
   3   6  -2   10.94    2.63
   3   6  -1  273.69   13.64
   3   6  -1  277.66   13.49
   3   6   0   65.64    5.85
   3   6   0   63.98    5.51
   3   6   1  532.73   20.92
   3   6   1  471.17   19.61
   3   6   2  196.86   11.02
   3   6   2  207.93   10.49
   3   6   3   81.20    6.59
   3   6   3   92.90    6.21
   3   6   4   39.37    4.47
   3   6   4   38.60    3.77
   3   6   5   24.09    2.87
   3   6   5   24.03    3.57
   3   6   6  153.95    9.77
   3   6   6  159.59    8.27
   3   6   6  163.06    9.53
   3   6   7  218.12   12.19
   3   6   7  230.36   10.31
   3   6   7  213.56   11.68
   3   6   8  219.52   12.30
   3   6   8  220.36   11.97
   3   6   9   21.91    3.50
   3   6   9   17.33    3.11
   3   6  10   40.47    4.97
   3   6  10   41.70    4.96
   3   6  11  155.16   10.35
   3   6  11  159.69   10.54
   3   6  12   82.72    7.38
   3   6  12   83.18    7.60
   3   6  13  100.45    8.69
   3   6  14   55.78    6.51
   3   6  15    7.32    3.05
   3   7 -14   26.85    5.80
   3   7 -13   50.31    7.41
   3   7 -12   93.21    9.89
   3   7 -11   79.61    8.94
   3   7 -10   -2.57    2.77
   3   7  -9   -0.43    2.10
   3   7  -8   74.52    7.82
   3   7  -7  311.58   17.33
   3   7  -6  137.29   10.41
   3   7  -5   52.05    6.06
   3   7  -4    8.36    2.50
   3   7  -3   11.05    2.92
   3   7  -3   15.02    3.28
   3   7  -2  418.19   18.79
   3   7  -2  414.12   19.06
   3   7  -2  387.02   18.38
   3   7  -1  491.37   21.35
   3   7  -1  511.53   21.73
   3   7  -1  476.26   20.97
   3   7   0  204.19   11.43
   3   7   0  183.71   11.10
   3   7   0  148.49    9.83
   3   7   1  301.54   15.21
   3   7   1  320.50   15.49
   3   7   1  283.98   14.22
   3   7   2    5.20    1.80
   3   7   2    6.94    2.13
   3   7   3   10.12    2.31
   3   7   3    7.16    2.57
   3   7   4  259.58   13.98
   3   7   4  259.29   12.39
   3   7   5  460.98   20.38
   3   7   5  430.48   17.72
   3   7   6  594.19   24.99
   3   7   6  606.84   22.26
   3   7   6  565.34   24.02
   3   7   7   19.74    2.74
   3   7   7   23.28    3.92
   3   7   7   19.35    3.56
   3   7   8    0.67    1.57
   3   7   9   49.89    5.80
   3   7  10  118.09    9.20
   3   7  11  536.15   24.05
   3   7  12   62.04    6.85
   3   7  13   14.30    3.56
   3   7  14   28.78    5.24
   3   7  15   79.75    8.70
   3   8 -12   28.10    5.93
   3   8 -11   16.26    4.57
   3   8 -10   63.18    8.36
   3   8  -9   80.80    9.10
   3   8  -8   94.07    9.49
   3   8  -7   93.23    9.24
   3   8  -6    1.14    2.39
   3   8  -5  252.10   15.34
   3   8  -4  156.94   11.32
   3   8  -3   37.49    5.22
   3   8  -2  101.02    8.50
   3   8  -1   26.58    4.23
   3   8   0    0.24    1.66
   3   8   1  167.97   10.55
   3   8   2  196.64   11.40
   3   8   3   32.06    4.19
   3   8   4   15.30    2.90
   3   8   5   33.05    4.01
   3   8   6   18.75    2.98
   3   8   7  123.34    7.65
   3   8   7  119.53    9.66
   3   8   8   87.82    6.02
   3   8   8   82.65    7.88
   3   8   9   22.83    4.16
   3   8  10   50.39    6.41
   3   8  11    3.62    2.47
   3   8  12    7.40    2.70
   3   8  13   21.95    4.70
   3   8  14   68.32    8.22
   3   8  15   47.37    7.24
   3   9 -10   81.71    9.63
   3   9  -9   73.03    9.02
   3   9  -8   26.27    5.64
   3   9  -7    1.85    3.08
   3   9  -6   34.48    5.92
   3   9  -5  358.08   20.03
   3   9  -4  181.59   13.00
   3   9  -3  433.15   21.79
   3   9  -2   13.19    3.63
   3   9  -1   35.92    5.21
   3   9   0  464.48   21.73
   3   9   1  468.88   21.56
   3   9   2  465.16   21.10
   3   9   3  151.79   10.18
   3   9   4   45.84    5.23
   3   9   5  628.90   25.13
   3   9   6  218.68   11.79
   3   9   7  468.13   19.15
   3   9   7  422.87   21.88
   3   9   8   16.32    2.85
   3   9   8   20.45    4.29
   3   9   9   -0.59    1.13
   3   9   9   -1.38    2.04
   3   9  10   85.22    8.89
   3   9  11  203.85   14.49
   3   9  12  148.23   12.35
   3   9  13   38.02    6.41
   3   9  14    7.79    3.68
   3   9  15   10.47    3.47
   3  10  -8   88.53   10.25
   3  10  -7   82.94    9.59
   3  10  -6   44.37    7.08
   3  10  -5    8.98    3.64
   3  10  -4   25.58    5.21
   3  10  -3   17.20    4.29
   3  10  -2   37.89    6.09
   3  10  -1  103.52    9.49
   3  10   0   92.84    8.80
   3  10   1    3.66    2.51
   3  10   2    4.55    2.11
   3  10   3   15.22    3.35
   3  10   4  128.18    9.64
   3  10   5  164.02   10.76
   3  10   6   65.11    7.86
   3  10   6   56.85    5.88
   3  10   7    6.95    2.09
   3  10   7   14.58    4.17
   3  10   8   34.14    4.27
   3  10   8   38.68    6.17
   3  10   9   69.65    8.48
   3  10  10   87.58    9.58
   3  10  11   43.99    6.87
   3  10  12   20.71    5.11
   3  10  13   -3.95    2.66
   3  11  -5  102.50   10.76
   3  11  -4  161.20   13.64
   3  11  -3  138.70   12.28
   3  11  -2   15.90    4.72
   3  11  -1   -1.00    2.63
   3  11   0  149.29   12.11
   3  11   1  201.13   13.93
   3  11   2  138.35   11.09
   3  11   3   96.85    8.91
   3  11   4   13.15    3.30
   3  11   5   43.53    5.69
   3  11   6   65.17    8.35
   3  11   6   75.35    7.15
   3  11   7  171.86   14.01
   3  11   8  101.00   10.96
   3  11   9   64.96    8.63
   3  11  10    0.59    2.48
   3  11  11   42.79    7.24
   3  12  -3   22.95    5.93
   3  12  -2   20.71    5.16
   3  12  -1   53.18    7.75
   3  12   0   41.12    6.81
   3  12   1    3.06    3.04
   3  12   2    2.21    2.67
   3  12   3   17.21    4.54
   3  12   4   42.95    6.10
   3  12   5   46.25    6.29
   3  12   6   23.59    5.52
   3  13   0    5.74    3.67
   3  13   1    5.73    2.94
   3  13   2   58.41    8.42
   3  13   3   81.87    9.72
   4  -9  -3    9.61    4.01
   4  -9  -2   18.32    4.98
   4  -9  -2   25.08    5.44
   4  -9  -1   50.28    7.76
   4  -9  -1   54.32    7.58
   4  -9   0   40.71    6.85
   4  -9   0   46.28    7.00
   4  -9   1   25.16    5.38
   4  -9   1   28.27    5.77
   4  -9   2    8.04    3.09
   4  -8  -6    7.53    3.56
   4  -8  -5   55.48    8.06
   4  -8  -4  107.43   11.18
   4  -8  -4  101.44    8.79
   4  -8  -3  239.46   16.98
   4  -8  -3  240.58   14.79
   4  -8  -2   90.54    9.92
   4  -8  -2   79.80    8.31
   4  -8  -1   32.82    6.30
   4  -8  -1   42.91    6.27
   4  -8   0   -1.69    2.69
   4  -8   0    7.05    3.49
   4  -8   1   78.05    8.91
   4  -8   1   90.28    9.42
   4  -8   2  124.83   11.15
   4  -8   2  137.88   12.05
   4  -8   3  121.71   11.51
   4  -8   4   88.79   10.00
   4  -8   5   -0.56    2.81
   4  -8   5    2.29    2.10
   4  -7  -9    8.49    3.95
   4  -7  -8    1.86    2.13
   4  -7  -7   20.44    5.20
   4  -7  -6   24.33    5.45
   4  -7  -5   64.15    8.30
   4  -7  -5   53.98    5.61
   4  -7  -4  109.04   10.54
   4  -7  -4  100.29    8.11
   4  -7  -3    1.90    2.95
   4  -7  -3    1.19    1.40
   4  -7  -2    1.25    2.97
   4  -7  -2   -0.07    1.84
   4  -7  -1   50.71    6.81
   4  -7  -1   44.08    5.80
   4  -7   0   41.55    6.27
   4  -7   0   35.27    5.39
   4  -7   1  107.45    9.81
   4  -7   1  124.01   10.45
   4  -7   2   28.22    4.80
   4  -7   2   24.41    4.93
   4  -7   3    0.89    1.62
   4  -7   3    1.76    2.29
   4  -7   4    0.40    2.74
   4  -7   5   57.56    7.94
   4  -7   5   50.27    6.52
   4  -7   6   23.01    5.04
   4  -7   6   27.70    4.95
   4  -7   7   49.89    7.57
   4  -7   7   54.40    6.74
   4  -7   8   29.25    5.19
   4  -6 -11   67.96    9.09
   4  -6 -10    8.00    3.79
   4  -6  -9   10.72    4.28
   4  -6  -8   97.30   10.29
   4  -6  -7  243.80   16.64
   4  -6  -6  190.65   14.05
   4  -6  -5   37.18    6.08
   4  -6  -5   47.55    4.73
   4  -6  -4   51.65    6.84
   4  -6  -4   42.96    4.73
   4  -6  -3   51.15    6.60
   4  -6  -3   57.48    5.80
   4  -6  -2   95.01    9.02
   4  -6  -2   94.26    7.82
   4  -6  -1  507.28   23.77
   4  -6  -1  483.55   22.05
   4  -6   0  157.28   11.37
   4  -6   0  154.08   11.35
   4  -6   1   87.37    8.20
   4  -6   1   83.08    8.03
   4  -6   2   16.25    3.48
   4  -6   2   25.70    4.56
   4  -6   3   67.13    6.87
   4  -6   3   70.76    7.77
   4  -6   4  221.36   13.08
   4  -6   4  217.79   14.76
   4  -6   5  282.11   17.95
   4  -6   5  334.72   17.54
   4  -6   6   33.25    6.10
   4  -6   6   48.69    6.20
   4  -6   7   -0.97    2.13
   4  -6   7   -2.89    2.09
   4  -6   8   39.32    5.65
   4  -6   9  100.08    9.31
   4  -6  10   23.60    4.78
   4  -5 -13   13.95    4.25
   4  -5 -12    0.48    2.63
   4  -5 -11  104.45   10.94
   4  -5 -10  176.14   13.87
   4  -5  -9  120.40   11.13
   4  -5  -8    7.82    3.39
   4  -5  -7   36.62    5.93
   4  -5  -6   27.96    5.10
   4  -5  -5  161.77   11.97
   4  -5  -5  156.87    8.62
   4  -5  -4  202.82   13.67
   4  -5  -4  237.99   11.54
   4  -5  -3   41.72    5.52
   4  -5  -3   40.78    4.41
   4  -5  -2  100.34    8.65
   4  -5  -2   93.28    7.22
   4  -5  -1   36.61    5.00
   4  -5  -1   33.20    4.35
   4  -5   0    1.14    1.46
   4  -5   0    1.07    1.69
   4  -5   1  129.30    9.49
   4  -5   1  132.97    9.61
   4  -5   2  168.07   10.90
   4  -5   2  193.98   12.21
   4  -5   3  114.85    8.50
   4  -5   3  116.20    9.49
   4  -5   4  167.95   10.44
   4  -5   4  175.30   12.26
   4  -5   5    4.77    1.89
   4  -5   5    5.42    2.77
   4  -5   5    7.60    2.54
   4  -5   6    3.29    2.44
   4  -5   6   10.06    3.08
   4  -5   7   40.95    6.42
   4  -5   7   44.04    5.67
   4  -5   8  278.68   15.98
   4  -5   9  173.96   12.23
   4  -5  10   39.80    5.74
   4  -5  11   15.32    4.09
   4  -5  12   22.27    5.15
   4  -4 -15   34.43    6.58
   4  -4 -14    6.29    3.40
   4  -4 -13   12.24    4.03
   4  -4 -12   99.81   10.33
   4  -4 -11  333.42   19.64
   4  -4 -10  456.27   23.46
   4  -4  -9   63.98    7.58
   4  -4  -8    8.73    3.29
   4  -4  -7  171.26   12.18
   4  -4  -6  734.11   30.74
   4  -4  -5  965.29   37.35
   4  -4  -4  400.93   19.60
   4  -4  -3    0.38    1.86
   4  -4  -3    0.88    0.96
   4  -4  -2  131.38    9.62
   4  -4  -2  146.62    8.58
   4  -4  -1  962.75   35.92
   4  -4  -1  974.43   34.51
   4  -4   0  847.73   33.61
   4  -4   0  994.06   34.02
   4  -4   1  818.81   30.96
   4  -4   1  826.61   31.20
   4  -4   2  106.64    7.74
   4  -4   2  101.75    8.10
   4  -4   3    1.35    1.18
   4  -4   3    0.55    1.49
   4  -4   4  211.90   11.23
   4  -4   4  214.29   13.12
   4  -4   5 1317.90   44.20
   4  -4   5 1299.69   48.15
   4  -4   5 1368.31   47.26
   4  -4   6  287.43   13.10
   4  -4   6  304.53   15.97
   4  -4   7  360.76   18.18
   4  -4   8   11.84    3.21
   4  -4   9   29.09    4.84
   4  -4  10  211.71   13.75
   4  -4  11  319.85   18.16
   4  -4  12  179.07   13.19
   4  -4  13   26.43    5.58
   4  -4  14    3.30    2.88
   4  -3 -16   21.77    5.06
   4  -3 -15  107.13   10.90
   4  -3 -14   90.03    9.91
   4  -3 -13   85.82    9.33
   4  -3 -12    2.11    2.57
   4  -3 -11   -1.38    2.93
   4  -3 -10   68.52    7.63
   4  -3  -9  115.02    9.74
   4  -3  -8   18.55    3.94
   4  -3  -7   88.45    8.09
   4  -3  -6   26.84    4.34
   4  -3  -5    4.26    1.90
   4  -3  -5    4.42    1.79
   4  -3  -4   27.32    4.19
   4  -3  -4   18.69    3.23
   4  -3  -3   33.09    4.42
   4  -3  -3   35.54    4.52
   4  -3  -2  247.88   13.39
   4  -3  -2  275.63   14.11
   4  -3  -1  350.10   16.40
   4  -3  -1  370.53   17.30
   4  -3   0  219.55   11.85
   4  -3   0  229.33   11.60
   4  -3   0  238.57   12.94
   4  -3   1   57.99    5.32
   4  -3   1   58.88    5.46
   4  -3   1   65.25    6.12
   4  -3   2  261.72   12.72
   4  -3   2  276.41   13.77
   4  -3   2  267.49   14.17
   4  -3   3  382.87   16.35
   4  -3   3  390.87   18.14
   4  -3   3  415.31   18.73
   4  -3   4  124.05    9.20
   4  -3   4  148.25    8.13
   4  -3   5  339.56   16.67
   4  -3   5  299.06   13.26
   4  -3   5  340.12   16.33
   4  -3   6   34.76    3.35
   4  -3   6   35.46    4.65
   4  -3   7   48.01    5.60
   4  -3   8  313.96   16.52
   4  -3   9   60.36    6.58
   4  -3  10  111.06    9.42
   4  -3  11   31.27    5.14
   4  -3  12   -4.38    2.62
   4  -3  13   26.49    5.21
   4  -3  14   92.01    9.89
   4  -3  15  127.97   12.04
   4  -2 -16  107.54   10.98
   4  -2 -15  113.43   10.86
   4  -2 -14   25.70    5.27
   4  -2 -13    8.52    3.34
   4  -2 -12   89.18    8.83
   4  -2 -11  144.96   11.10
   4  -2 -10  643.78   28.04
   4  -2  -9  183.07   12.14
   4  -2  -8  104.98    8.66
   4  -2  -7    8.10    2.64
   4  -2  -7    6.23    2.02
   4  -2  -6  370.29   17.98
   4  -2  -6  384.99   18.17
   4  -2  -6  394.12   17.86
   4  -2  -5  968.62   35.90
   4  -2  -5  977.23   35.81
   4  -2  -5 1000.96   35.64
   4  -2  -4  454.97   19.66
   4  -2  -4  428.34   19.04
   4  -2  -4  462.43   19.40
   4  -2  -3  340.78   15.97
   4  -2  -3  358.87   15.89
   4  -2  -3  346.46   15.98
   4  -2  -2   47.54    4.85
   4  -2  -2   41.44    4.54
   4  -2  -1  167.80    9.96
   4  -2  -1  169.83    9.63
   4  -2   0  344.08   15.68
   4  -2   0  322.28   14.59
   4  -2   1 1191.60   39.60
   4  -2   1 1068.02   37.47
   4  -2   2  827.50   31.88
   4  -2   2  918.13   30.52
   4  -2   3   88.56    6.98
   4  -2   3   85.78    5.71
   4  -2   4    4.13    1.91
   4  -2   4    6.56    1.47
   4  -2   5  165.09   10.32
   4  -2   5  140.59    7.23
   4  -2   5  154.67    9.75
   4  -2   6  621.55   25.17
   4  -2   6  589.89   20.18
   4  -2   6  583.15   24.39
   4  -2   7  584.28   24.98
   4  -2   7  595.20   24.70
   4  -2   8   98.85    8.15
   4  -2   9   11.00    2.97
   4  -2  10   15.79    3.35
   4  -2  11  196.37   13.15
   4  -2  12  217.73   14.44
   4  -2  13   75.69    8.40
   4  -2  14   44.54    7.12
   4  -2  15   20.81    5.08
   4  -2  16   32.39    6.44
   4  -1 -16   13.55    4.42
   4  -1 -15    6.56    3.76
   4  -1 -14   68.01    7.90
   4  -1 -13  138.04   11.01
   4  -1 -12  278.79   16.19
   4  -1 -11  121.65    9.72
   4  -1 -10    3.68    2.16
   4  -1  -9   98.11    8.17
   4  -1  -8  243.99   13.67
   4  -1  -7  170.33   10.52
   4  -1  -7  158.13   10.45
   4  -1  -7  143.63    9.27
   4  -1  -6  730.84   27.78
   4  -1  -6  703.44   27.67
   4  -1  -6  685.84   26.47
   4  -1  -5   43.61    4.92
   4  -1  -5   50.32    5.09
   4  -1  -5   47.54    4.67
   4  -1  -4   41.63    4.61
   4  -1  -4   41.90    4.52
   4  -1  -4   37.85    4.08
   4  -1  -3   49.21    4.88
   4  -1  -3   53.00    4.80
   4  -1  -3   57.34    4.91
   4  -1  -2  201.65   10.42
   4  -1  -2  195.34    9.79
   4  -1  -2  185.78    9.99
   4  -1  -1  404.29   16.28
   4  -1  -1  369.83   15.20
   4  -1  -1  390.56   16.42
   4  -1   0  287.11   13.15
   4  -1   0  272.56   12.40
   4  -1   1  589.91   22.23
   4  -1   1  556.39   20.83
   4  -1   2   32.96    3.88
   4  -1   2   33.45    3.31
   4  -1   3  175.57    9.91
   4  -1   3  175.48    8.29
   4  -1   4  100.96    7.39
   4  -1   4  101.11    5.53
   4  -1   4  104.91    7.41
   4  -1   5  749.63   28.30
   4  -1   5  748.62   24.09
   4  -1   5  697.96   27.64
   4  -1   6  308.23   15.50
   4  -1   6  324.02   11.30
   4  -1   6  320.69   15.49
   4  -1   7  133.45    9.33
   4  -1   7  132.69    9.18
   4  -1   8   17.83    3.44
   4  -1   8   16.61    3.27
   4  -1   9   48.56    5.62
   4  -1  10  133.89   10.10
   4  -1  11  352.78   18.73
   4  -1  12   45.93    6.20
   4  -1  13    6.58    3.20
   4  -1  14    7.09    3.01
   4  -1  15   50.42    7.50
   4  -1  16  104.17   10.93
   4   0 -16   10.94    3.74
   4   0 -15   60.45    7.38
   4   0 -14   62.66    7.22
   4   0 -13  137.53   10.58
   4   0 -12   28.18    4.66
   4   0 -12   30.97    3.12
   4   0 -11   22.33    4.02
   4   0 -11   23.72    2.73
   4   0 -10  146.02   10.10
   4   0 -10  130.89    7.06
   4   0  -9  491.26   22.00
   4   0  -9  514.55   18.51
   4   0  -8 1014.89   36.35
   4   0  -8  962.89   32.24
   4   0  -8 1001.04   36.96
   4   0  -7  110.56    8.22
   4   0  -7  126.89    6.65
   4   0  -7  126.80    8.86
   4   0  -7  124.52    7.70
   4   0  -6  102.31    7.64
   4   0  -6  102.84    7.67
   4   0  -6  117.18    7.12
   4   0  -5  458.26   19.49
   4   0  -5  470.73   19.57
   4   0  -5  484.12   18.39
   4   0  -4 1234.24   40.88
   4   0  -4 1128.09   39.99
   4   0  -4 1235.10   39.50
   4   0  -3 1880.77   60.17
   4   0  -3 1867.67   59.50
   4   0  -3 1906.94   59.14
   4   0  -2  927.90   31.89
   4   0  -2  937.48   31.14
   4   0  -2  901.35   31.19
   4   0  -1  134.11    7.70
   4   0  -1  136.09    7.10
   4   0  -1  151.22    7.92
   4   0   0  552.99   20.80
   4   0   0  597.05   19.88
   4   0   0  562.22   21.13
   4   0   1  932.42   30.93
   4   0   1  909.96   29.39
   4   0   1  959.90   31.91
   4   0   2 2211.60   69.42
   4   0   2 2228.68   67.71
   4   0   3 1007.58   36.08
   4   0   3 1094.65   34.02
   4   0   4  520.76   19.98
   4   0   4  452.33   16.57
   4   0   4  526.26   20.08
   4   0   5   11.03    2.51
   4   0   5    9.34    1.30
   4   0   5    8.60    2.33
   4   0   6  784.90   28.94
   4   0   6  745.26   23.29
   4   0   6  796.72   28.90
   4   0   7  840.20   31.53
   4   0   7  820.94   31.16
   4   0   8  530.51   22.84
   4   0   8  529.39   22.61
   4   0   9  288.71   15.37
   4   0  10   20.15    3.73
   4   0  11    0.84    1.63
   4   0  12  273.40   16.43
   4   0  13  156.67   12.34
   4   0  14  130.40   11.53
   4   0  15   81.51    9.23
   4   0  16    3.54    2.54
   4   1 -15   32.15    5.23
   4   1 -14    4.40    2.26
   4   1 -14    6.07    2.81
   4   1 -13   15.71    3.72
   4   1 -13   22.46    3.13
   4   1 -12  548.64   24.35
   4   1 -12  553.72   21.26
   4   1 -11   53.95    5.93
   4   1 -11   59.44    4.96
   4   1 -10   35.31    4.74
   4   1 -10   30.93    3.47
   4   1 -10   32.75    4.56
   4   1  -9  117.43    8.59
   4   1  -9  122.49    8.57
   4   1  -9  112.77    6.92
   4   1  -8    9.21    1.95
   4   1  -8    7.75    2.39
   4   1  -8    6.39    2.09
   4   1  -7   21.05    2.71
   4   1  -7   23.44    3.49
   4   1  -7   18.84    3.28
   4   1  -7   20.07    2.63
   4   1  -6  309.08   15.02
   4   1  -6  330.66   13.59
   4   1  -6  343.22   15.80
   4   1  -6  343.11   13.55
   4   1  -5  353.36   13.97
   4   1  -5  346.09   15.51
   4   1  -5  354.64   15.63
   4   1  -5  334.23   13.44
   4   1  -4  407.89   16.99
   4   1  -4  403.85   15.66
   4   1  -4  417.66   16.91
   4   1  -4  399.32   15.16
   4   1  -3   37.53    4.03
   4   1  -3   42.69    3.72
   4   1  -3   37.34    3.75
   4   1  -3   44.28    3.49
   4   1  -2  125.90    7.30
   4   1  -2  115.54    6.60
   4   1  -2  115.28    6.25
   4   1  -1    0.79    2.35
   4   1  -1    0.42    0.85
   4   1  -1    0.35    0.69
   4   1   0 1486.88   44.75
   4   1   0 1352.30   43.14
   4   1   1 1449.02   49.03
   4   1   1 1615.16   47.03
   4   1   2  405.76   16.33
   4   1   2  418.17   13.36
   4   1   3    3.67    1.39
   4   1   3    4.90    1.74
   4   1   4   46.00    5.03
   4   1   4   47.81    4.49
   4   1   5  325.51   14.81
   4   1   5  316.43   11.59
   4   1   5  350.87   15.13
   4   1   6 1475.58   48.01
   4   1   6 1400.59   42.47
   4   1   6 1413.95   47.62
   4   1   7  398.98   17.26
   4   1   7  352.15   11.02
   4   1   7  342.65   11.04
   4   1   7  391.47   16.96
   4   1   8   57.74    5.76
   4   1   8   43.75    5.10
   4   1   9   20.75    3.82
   4   1   9   14.69    3.04
   4   1  10  104.04    8.70
   4   1  11  184.34   12.54
   4   1  12  211.37   14.02
   4   1  13  117.58   10.51
   4   1  14   17.82    4.51
   4   1  15    2.94    2.54
   4   1  16  122.77   11.87
   4   2 -15   12.10    3.41
   4   2 -14   69.62    7.34
   4   2 -14   70.99    6.32
   4   2 -13  138.69    8.69
   4   2 -13  131.21    9.91
   4   2 -13  128.85    8.80
   4   2 -12  694.36   25.66
   4   2 -12  658.86   27.97
   4   2 -12  682.38   24.26
   4   2 -12  699.85   26.54
   4   2 -11   15.56    2.60
   4   2 -11    8.84    2.24
   4   2 -11   10.67    2.81
   4   2 -11   11.29    2.08
   4   2 -11   12.20    3.04
   4   2 -10   33.66    3.95
   4   2 -10   34.43    4.63
   4   2 -10   35.69    3.31
   4   2 -10   37.43    4.63
   4   2  -9  172.00   10.64
   4   2  -9  168.45    8.14
   4   2  -9  179.57    9.72
   4   2  -9  171.20   10.18
   4   2  -8  668.63   26.13
   4   2  -8  683.61   22.81
   4   2  -8  688.29   27.56
   4   2  -8  639.94   24.95
   4   2  -8  633.29   24.33
   4   2  -7  531.70   21.88
   4   2  -7  524.77   18.73
   4   2  -7  570.71   23.05
   4   2  -7  541.27   20.52
   4   2  -6  865.53   32.00
   4   2  -6  900.81   28.81
   4   2  -6  901.78   32.94
   4   2  -6  904.94   30.81
   4   2  -5  220.20    8.99
   4   2  -5  238.46   11.95
   4   2  -5  234.52   10.75
   4   2  -4   72.36    4.07
   4   2  -4   67.66    5.48
   4   2  -4   71.71    5.11
   4   2  -3  835.71   29.33
   4   2  -3  886.77   30.09
   4   2  -3  875.50   27.69
   4   2  -2  911.04   29.72
   4   2  -2  807.38   29.08
   4   2  -2  887.06   27.85
   4   2  -1  620.71   22.32
   4   2  -1  614.16   21.51
   4   2  -1  634.08   21.04
   4   2   0  489.45   18.38
   4   2   0  518.50   17.53
   4   2   0  461.29   16.79
   4   2   1  240.66   10.62
   4   2   1  261.35    9.52
   4   2   2   59.89    4.45
   4   2   2   53.97    2.84
   4   2   2   59.37    4.49
   4   2   3  837.35   28.15
   4   2   3  771.36   27.86
   4   2   4 1023.85   35.33
   4   2   4 1058.69   35.47
   4   2   5  829.00   29.14
   4   2   5  769.82   28.62
   4   2   6   47.17    4.89
   4   2   6   48.43    4.85
   4   2   7   62.14    3.51
   4   2   7   69.34    6.14
   4   2   7   62.07    5.76
   4   2   8  275.06    9.61
   4   2   8  246.63   13.76
   4   2   9  436.80   13.93
   4   2   9  451.50   20.48
   4   2  10  303.24   16.44
   4   2  11   90.61    8.44
   4   2  12   46.66    6.23
   4   2  13   85.20    8.86
   4   2  14  107.44   10.29
   4   2  15   51.35    7.40
   4   2  16  114.57   11.55
   4   3 -14   36.82    4.99
   4   3 -14   27.59    4.74
   4   3 -13    0.99    1.73
   4   3 -13    1.09    1.76
   4   3 -12   65.81    6.74
   4   3 -12   54.72    4.55
   4   3 -12   62.62    5.56
   4   3 -12   62.01    6.22
   4   3 -11  400.22   18.98
   4   3 -11  409.04   15.60
   4   3 -11  389.10   16.86
   4   3 -11  394.71   18.29
   4   3 -11  411.19   18.60
   4   3 -10  221.05   12.52
   4   3 -10  213.45    9.25
   4   3 -10  205.94   10.59
   4   3 -10  203.03   11.37
   4   3 -10  198.94   11.57
   4   3  -9  444.03   19.88
   4   3  -9  442.14   16.02
   4   3  -9  464.38   18.09
   4   3  -9  446.54   18.64
   4   3  -9  477.03   19.69
   4   3  -8   10.07    2.42
   4   3  -8    7.49    1.25
   4   3  -8    7.57    1.21
   4   3  -8    8.46    2.94
   4   3  -8    7.37    1.79
   4   3  -8   11.22    2.18
   4   3  -7   10.77    2.35
   4   3  -7   13.31    1.44
   4   3  -7   12.91    2.84
   4   3  -7   14.25    2.33
   4   3  -7   14.82    2.38
   4   3  -6  867.92   26.78
   4   3  -6  921.23   32.89
   4   3  -6  856.47   29.58
   4   3  -6  881.77   31.06
   4   3  -5  856.93   26.55
   4   3  -5  918.09   29.73
   4   3  -5  888.53   31.95
   4   3  -5  879.90   30.75
   4   3  -4  763.67   23.55
   4   3  -4  790.82   28.31
   4   3  -4  792.59   27.59
   4   3  -3   42.66    2.41
   4   3  -3   42.01    4.11
   4   3  -3   37.28    3.82
   4   3  -2   79.93    3.89
   4   3  -2   77.55    5.43
   4   3  -2   78.14    5.52
   4   3  -1  691.22   23.47
   4   3  -1  632.51   22.54
   4   3  -1  623.98   20.85
   4   3   0  772.83   26.49
   4   3   0  827.46   27.29
   4   3   1  827.26   27.49
   4   3   1  862.41   28.73
   4   3   1  810.08   27.49
   4   3   2   33.93    3.30
   4   3   2   39.31    3.71
   4   3   2   39.01    3.45
   4   3   3  325.55   13.05
   4   3   3  266.25   12.22
   4   3   4   39.76    3.96
   4   3   4   28.44    3.38
   4   3   5   -0.02    0.46
   4   3   5   -1.15    1.29
   4   3   6  410.99   15.11
   4   3   6  406.75   13.70
   4   3   6  402.74   17.53
   4   3   7  480.50   17.10
   4   3   7  467.31   16.11
   4   3   7  507.00   20.65
   4   3   8  259.53   10.56
   4   3   8  266.23   10.28
   4   3   8  252.31   13.85
   4   3   9   54.07    3.73
   4   3   9   54.32    3.83
   4   3   9   48.96    5.67
   4   3  10    1.01    0.66
   4   3  10    1.11    1.26
   4   3  10    0.65    1.52
   4   3  11   -0.74    0.65
   4   3  11    0.37    0.96
   4   3  11    0.76    1.52
   4   3  12  320.85   11.77
   4   3  12  341.93   14.45
   4   3  12  320.38   18.22
   4   3  13  223.17   11.34
   4   3  13  209.35   14.68
   4   3  14   50.88    7.27
   4   3  15    6.31    3.21
   4   3  16   -0.72    1.94
   4   4 -15   -2.56    3.05
   4   4 -14   29.48    5.06
   4   4 -14   26.15    4.33
   4   4 -13   76.60    7.30
   4   4 -13   66.39    7.16
   4   4 -12  373.29   18.09
   4   4 -12  349.66   16.87
   4   4 -12  347.35   18.00
   4   4 -12  346.05   16.79
   4   4 -11  143.13    9.99
   4   4 -11  137.86    6.24
   4   4 -11  141.39    9.34
   4   4 -11  137.44   10.03
   4   4 -11  147.00    9.22
   4   4 -10  113.10    8.72
   4   4 -10  120.97    5.24
   4   4 -10  128.29    8.55
   4   4 -10  129.61    9.30
   4   4 -10  122.52    7.92
   4   4  -9    7.60    0.86
   4   4  -9    6.70    0.82
   4   4  -9    4.34    1.84
   4   4  -9    6.32    1.81
   4   4  -9    7.42    2.22
   4   4  -8  174.48    9.90
   4   4  -8  179.24   10.71
   4   4  -8  170.74    8.76
   4   4  -7  399.69   16.87
   4   4  -7  411.42   19.16
   4   4  -7  399.78   17.81
   4   4  -7  387.96   15.14
   4   4  -6 1649.92   53.70
   4   4  -6 1744.56   56.47
   4   4  -6 1608.83   51.17
   4   4  -6 1733.58   55.13
   4   4  -5  265.03   12.36
   4   4  -5  260.44   13.60
   4   4  -5  268.55   13.08
   4   4  -4   46.01    4.26
   4   4  -4   45.02    4.75
   4   4  -4   49.18    4.76
   4   4  -3  558.33   22.14
   4   4  -3  580.21   22.09
   4   4  -2  941.94   32.64
   4   4  -1 1574.49   50.44
   4   4  -1 1558.39   47.43
   4   4   0 1415.82   44.07
   4   4   0 1470.86   46.61
   4   4   1   32.89    3.53
   4   4   1   36.69    3.04
   4   4   2   30.00    3.35
   4   4   2   20.44    2.48
   4   4   3  359.85   14.50
   4   4   3  327.99   13.80
   4   4   4 1126.66   38.47
   4   4   4 1203.45   38.87
   4   4   5  738.14   27.01
   4   4   6  367.95   14.86
   4   4   6  376.20   13.84
   4   4   6  358.15   16.35
   4   4   7  230.12   10.50
   4   4   7  223.08    9.62
   4   4   7  222.46   12.24
   4   4   8   49.24    4.16
   4   4   8   56.12    4.09
   4   4   8   47.08    5.33
   4   4   9  192.78    9.47
   4   4   9  199.26    9.38
   4   4   9  185.11   11.81
   4   4  10  475.76   17.82
   4   4  10  439.74   17.72
   4   4  10  466.98   21.75
   4   4  11   84.69    5.69
   4   4  11   82.65    6.03
   4   4  11   82.07    8.20
   4   4  12  204.92    9.97
   4   4  12  215.54   11.10
   4   4  12  227.43   14.62
   4   4  13    1.51    1.77
   4   4  13    0.44    2.47
   4   4  14   18.60    3.34
   4   4  14    7.68    3.14
   4   4  15   29.33    5.87
   4   5 -15  103.11   10.24
   4   5 -14   68.40    8.14
   4   5 -13   53.19    6.25
   4   5 -13   57.81    7.33
   4   5 -12   14.84    3.61
   4   5 -12   15.98    3.88
   4   5 -11   56.02    6.64
   4   5 -11   55.53    5.11
   4   5 -10   99.55    8.06
   4   5 -10   89.80    6.22
   4   5 -10   92.05    8.29
   4   5  -9   86.17    7.30
   4   5  -9   89.11    5.65
   4   5  -9   80.44    7.50
   4   5  -8  122.03    8.69
   4   5  -8  121.07    6.43
   4   5  -8  122.19    9.12
   4   5  -7  108.98    7.87
   4   5  -7  110.40    5.53
   4   5  -7   95.54    7.89
   4   5  -6   29.59    4.18
   4   5  -6   29.82    4.35
   4   5  -6   26.97    2.20
   4   5  -6   33.54    4.22
   4   5  -5  217.70   11.33
   4   5  -5  195.48   11.82
   4   5  -5  198.48    7.30
   4   5  -5  188.22   11.12
   4   5  -4  228.08   11.49
   4   5  -4  208.45   11.42
   4   5  -4  201.75    6.95
   4   5  -3  557.43   20.82
   4   5  -3  569.34   21.26
   4   5  -3  485.17   15.24
   4   5  -2  327.61   14.12
   4   5  -2  285.95    9.53
   4   5  -2  289.14   13.81
   4   5  -1   12.88    2.58
   4   5  -1   11.96    1.27
   4   5   0   46.01    4.46
   4   5   0   34.40    2.57
   4   5   1 1093.49   35.40
   4   5   1 1182.33   38.22
   4   5   2  263.12   10.91
   4   5   2  250.46   11.95
   4   5   3  425.29   17.31
   4   5   3  435.57   16.70
   4   5   4   50.88    4.48
   4   5   4   41.95    4.06
   4   5   5   54.77    4.79
   4   5   5   45.38    4.35
   4   5   5   41.85    4.34
   4   5   6  112.20    7.34
   4   5   6  111.07    6.63
   4   5   6  120.37    8.00
   4   5   7  332.26   15.01
   4   5   7  342.70   14.28
   4   5   7  369.60   16.71
   4   5   8  132.63    8.07
   4   5   8  117.33    7.21
   4   5   8  123.42    8.99
   4   5   9   98.69    7.05
   4   5   9  111.07    7.02
   4   5   9  118.85    9.06
   4   5  10   34.79    4.02
   4   5  10   39.04    4.13
   4   5  10   33.42    5.01
   4   5  11    1.75    1.34
   4   5  11    1.29    1.43
   4   5  11    0.73    1.68
   4   5  12   19.78    3.22
   4   5  12   16.52    2.94
   4   5  12   16.17    4.02
   4   5  13  101.16    7.74
   4   5  13   94.44    9.81
   4   5  14   85.54    7.29
   4   5  14   85.36    9.44
   4   6 -15   52.20    7.58
   4   6 -14    7.94    4.03
   4   6 -13    0.39    1.78
   4   6 -13   -0.06    2.71
   4   6 -12   56.09    7.36
   4   6 -11  409.24   21.31
   4   6 -10  312.95   17.65
   4   6  -9   67.90    4.31
   4   6  -9   72.07    7.53
   4   6  -8   16.69    3.72
   4   6  -8   16.11    1.66
   4   6  -7   96.45    8.02
   4   6  -7  110.37    8.81
   4   6  -6  513.80   21.71
   4   6  -6  457.01   21.45
   4   6  -5  449.33   20.32
   4   6  -5  480.47   21.05
   4   6  -4  485.36   20.61
   4   6  -4  453.62   20.46
   4   6  -3  135.95    9.12
   4   6  -3  135.68    9.09
   4   6  -2   -0.74    1.43
   4   6  -2    1.00    1.54
   4   6  -1  335.16   15.65
   4   6   0  352.23   12.34
   4   6   0  364.96   16.23
   4   6   1  368.13   16.10
   4   6   1  356.44   13.23
   4   6   2  630.25   21.90
   4   6   2  627.51   23.85
   4   6   3   80.89    6.47
   4   6   3   75.57    5.24
   4   6   3   69.95    5.70
   4   6   4   -0.72    1.16
   4   6   4    1.70    1.52
   4   6   4    0.05    0.99
   4   6   5  358.46   16.54
   4   6   5  349.11   15.44
   4   6   5  396.77   16.47
   4   6   6  743.52   27.76
   4   6   6  711.40   26.18
   4   6   6  710.93   27.35
   4   6   7  644.14   24.79
   4   6   7  618.44   23.58
   4   6   7  585.31   24.70
   4   6   8   70.83    6.27
   4   6   8   65.43    5.64
   4   6   8   69.96    6.71
   4   6   9    6.30    2.00
   4   6   9    3.75    1.58
   4   6   9    2.67    1.85
   4   6  10  185.35   11.02
   4   6  10  180.74   10.51
   4   6  10  182.01   12.42
   4   6  11  301.09   15.13
   4   6  11  295.53   14.82
   4   6  11  294.99   17.27
   4   6  12  309.92   15.42
   4   6  12  294.84   15.22
   4   6  13   43.73    5.24
   4   6  14    2.95    2.07
   4   7 -14   84.91    9.87
   4   7 -13   85.39    9.86
   4   7 -12   25.07    5.64
   4   7 -11   18.47    4.96
   4   7 -10   93.95    9.37
   4   7  -9   27.58    4.96
   4   7  -8  166.92   12.17
   4   7  -7  133.01   10.49
   4   7  -6  152.34   11.01
   4   7  -5   78.30    7.46
   4   7  -4   18.36    3.62
   4   7  -3   72.86    6.76
   4   7  -3   59.68    6.29
   4   7  -2  124.51    9.18
   4   7  -2  120.83    8.90
   4   7  -1  365.90   17.12
   4   7  -1  319.54   16.25
   4   7   0   -0.46    1.54
   4   7   1    5.51    2.10
   4   7   1    7.02    2.26
   4   7   2   62.98    6.09
   4   7   2   58.79    5.56
   4   7   3   16.85    2.90
   4   7   3   17.93    3.30
   4   7   4    2.11    1.48
   4   7   4    0.21    1.59
   4   7   5   56.59    5.85
   4   7   5   64.64    5.53
   4   7   6   80.38    7.06
   4   7   6   76.73    6.01
   4   7   7    1.02    1.55
   4   7   7   -0.09    1.05
   4   7   7   -0.71    1.24
   4   7   8    1.42    1.47
   4   7   8    0.51    1.48
   4   7   9   12.38    2.82
   4   7  10   28.26    4.18
   4   7  11  123.58    9.18
   4   7  12   31.36    4.59
   4   7  13    0.88    1.62
   4   7  14   21.21    4.22
   4   8 -12  -11.45    3.98
   4   8 -11   61.10    8.33
   4   8 -10  116.09   11.06
   4   8  -9   41.09    6.64
   4   8  -8   42.02    6.33
   4   8  -7   -2.12    2.42
   4   8  -6    0.76    2.02
   4   8  -5  446.05   21.91
   4   8  -4  166.23   11.72
   4   8  -3  136.53   10.34
   4   8  -2   45.10    5.61
   4   8  -1    7.76    2.68
   4   8   0   77.59    7.10
   4   8   1  237.35   13.32
   4   8   2  444.76   19.85
   4   8   3   71.13    6.38
   4   8   4   71.80    6.20
   4   8   5   44.73    4.81
   4   8   6   57.02    5.33
   4   8   7  194.48   10.48
   4   8   7  168.22   11.20
   4   8   8  257.43   12.74
   4   8   8  273.21   14.89
   4   8   9  117.76    9.31
   4   8  10    5.17    2.31
   4   8  11   38.31    5.42
   4   8  12  116.14    9.66
   4   8  13   60.71    7.20
   4   8  14   86.17    8.79
   4   9 -10   17.98    4.88
   4   9  -9    7.16    3.96
   4   9  -8   37.80    6.52
   4   9  -7   83.82    9.36
   4   9  -6   29.61    5.53
   4   9  -5  194.67   13.84
   4   9  -4    5.25    2.99
   4   9  -3    3.95    2.47
   4   9  -2   30.41    5.06
   4   9  -1  247.14   14.79
   4   9   0  161.85   11.25
   4   9   1   82.92    7.60
   4   9   2    3.16    1.85
   4   9   3   12.72    2.93
   4   9   4   18.78    3.54
   4   9   5  429.59   19.29
   4   9   6   12.69    2.95
   4   9   7   12.82    2.76
   4   9   7   10.92    2.97
   4   9   8    1.27    1.60
   4   9   8    1.10    2.01
   4   9   9   -5.07    2.51
   4   9  10    8.81    3.23
   4   9  11   92.06    9.01
   4   9  12   34.94    5.88
   4   9  13   21.56    4.86
   4   9  14   -4.02    3.92
   4  10  -8  146.41   13.22
   4  10  -7   83.60    9.76
   4  10  -6   49.04    7.51
   4  10  -5    1.50    2.52
   4  10  -4   91.86    9.66
   4  10  -3   50.13    6.96
   4  10  -2  179.47   13.14
   4  10  -1  108.77    9.75
   4  10   0  124.18   10.22
   4  10   1   13.81    3.48
   4  10   2   87.11    8.18
   4  10   3  158.93   11.18
   4  10   4  143.55   10.30
   4  10   5  261.61   14.46
   4  10   6    5.20    2.23
   4  10   7   10.58    2.67
   4  10   7   10.41    3.35
   4  10   8  251.54   13.41
   4  10   8  255.51   16.24
   4  10   9  166.39   12.84
   4  10  10  122.01   11.07
   4  10  11    5.66    3.10
   4  10  12   24.12    5.46
   4  10  13   56.06    7.79
   4  10  14   75.16    9.14
   4  11  -6   29.33    5.78
   4  11  -5  106.20   11.06
   4  11  -4   36.52    6.44
   4  11  -3   25.54    5.35
   4  11  -2   -1.05    2.92
   4  11  -1   48.86    7.04
   4  11   0   44.48    6.65
   4  11   1  149.83   11.94
   4  11   2   40.61    5.94
   4  11   3   21.29    4.49
   4  11   4   -1.77    1.76
   4  11   5   42.79    5.56
   4  11   6   44.71    5.66
   4  11   7   71.06    6.94
   4  11   7   77.09    8.88
   4  11   8   33.65    6.10
   4  11   9   10.87    4.25
   4  11  10   12.74    4.30
   4  11  11   43.12    6.95
   4  11  12   48.69    7.37
   4  12  -3   16.55    4.09
   4  12  -2   87.53    9.95
   4  12  -1  149.88   13.14
   4  12   0   81.07    9.37
   4  12   1   15.00    4.39
   4  12   2    7.31    3.47
   4  12   3   66.70    8.07
   4  12   4  116.01   10.50
   4  12   5  149.25   11.57
   4  12   6    9.21    3.40
   4  12   6   11.27    3.63
   4  12   7    4.59    3.00
   4  12   8   45.44    7.29
   4  13   0   18.25    4.98
   4  13   1   39.31    7.13
   4  13   2   10.16    3.93
   4  13   3    7.06    3.82
   4  13   4    2.53    3.40
   5  -8  -3   98.75   10.90
   5  -8  -2   23.68    5.47
   5  -8  -1    1.08    2.31
   5  -8  -1    2.47    3.00
   5  -8   0   10.69    3.89
   5  -8   0   24.66    5.38
   5  -8   1   81.49    9.43
   5  -8   1   87.15    9.66
   5  -8   2   66.62    8.54
   5  -8   2   85.22    9.59
   5  -8   3   29.36    5.63
   5  -7  -6  134.40   12.74
   5  -7  -5  308.78   20.10
   5  -7  -4  115.05   11.45
   5  -7  -3    1.22    2.49
   5  -7  -2   44.72    7.03
   5  -7  -1  225.00   15.93
   5  -7  -1  228.69   14.66
   5  -7   0  311.15   18.89
   5  -7   0  299.54   17.85
   5  -7   1  165.20   13.04
   5  -7   1  178.86   13.52
   5  -7   2   32.83    5.73
   5  -7   2   39.68    6.40
   5  -7   3   18.26    4.42
   5  -7   3   23.01    5.33
   5  -7   4   88.60    8.73
   5  -7   5  204.59   14.71
   5  -7   6  178.25   13.73
   5  -7   7   39.74    6.69
   5  -6  -9   43.16    7.35
   5  -6  -8   52.79    7.78
   5  -6  -7   59.78    8.01
   5  -6  -6    0.77    2.83
   5  -6  -5    1.53    2.71
   5  -6  -4   36.95    6.35
   5  -6  -3   38.49    6.22
   5  -6  -2    6.84    3.31
   5  -6  -1   94.70    9.36
   5  -6   0    6.04    3.15
   5  -6   0    1.93    1.74
   5  -6   1    0.24    1.94
   5  -6   1    1.66    2.29
   5  -6   2   30.50    5.07
   5  -6   2   31.24    5.31
   5  -6   3   17.32    3.77
   5  -6   4   38.51    5.39
   5  -6   5   76.02    7.24
   5  -6   5   77.57    8.31
   5  -6   6   11.49    3.63
   5  -6   7   20.13    4.63
   5  -6   8   27.90    5.36
   5  -6   9  108.21   10.56
   5  -6  10   39.84    6.52
   5  -5 -11  159.60   13.93
   5  -5 -10  329.03   20.63
   5  -5  -9   99.47   10.50
   5  -5  -8   67.87    8.60
   5  -5  -7   44.65    6.88
   5  -5  -6   26.71    5.35
   5  -5  -5  411.68   22.00
   5  -5  -4  437.13   22.54
   5  -5  -3   99.95    9.30
   5  -5  -2    0.06    2.30
   5  -5  -1   -1.39    2.26
   5  -5   0  219.09   13.73
   5  -5   1  250.04   14.70
   5  -5   2  304.28   16.28
   5  -5   3   32.83    4.70
   5  -5   4    9.20    2.59
   5  -5   5   74.35    6.64
   5  -5   5   68.20    7.54
   5  -5   6  180.79   10.76
   5  -5   6  179.44   12.81
   5  -5   7  119.48   10.33
   5  -5   8  129.91   11.05
   5  -5   9   43.12    6.33
   5  -5  10   26.29    5.32
   5  -5  11   43.97    6.96
   5  -5  12   87.06    9.63
   5  -4 -13  131.01   12.67
   5  -4 -12   86.91    9.96
   5  -4 -11  110.85   11.12
   5  -4 -10    1.47    2.85
   5  -4  -9   27.61    5.59
   5  -4  -8  115.99   10.74
   5  -4  -7  530.54   25.73
   5  -4  -6   26.01    4.78
   5  -4  -5  194.61   13.29
   5  -4  -4    4.96    2.05
   5  -4  -3  130.87   10.18
   5  -4  -2  137.78   10.31
   5  -4  -1  357.04   18.03
   5  -4   0   75.12    7.13
   5  -4   1   30.68    4.37
   5  -4   2    1.68    1.36
   5  -4   3   29.62    4.11
   5  -4   4    5.95    1.90
   5  -4   5  295.39   14.28
   5  -4   5  287.33   16.45
   5  -4   6  124.11    8.05
   5  -4   6  126.10   10.25
   5  -4   7   19.84    4.17
   5  -4   8   14.09    3.50
   5  -4   9   11.73    3.61
   5  -4  10   39.99    6.05
   5  -4  11  119.82   10.91
   5  -4  12   86.59    9.45
   5  -4  13   13.03    4.38
   5  -3 -14   88.06   10.19
   5  -3 -13   34.08    6.29
   5  -3 -12   25.55    5.85
   5  -3 -11    1.94    2.90
   5  -3 -10   74.29    8.75
   5  -3  -9   90.23    9.26
   5  -3  -8  229.24   14.90
   5  -3  -7  329.64   18.21
   5  -3  -6    2.20    1.67
   5  -3  -5   21.50    4.19
   5  -3  -4  646.99   27.48
   5  -3  -3  537.89   23.71
   5  -3  -2  695.57   28.20
   5  -3  -1  153.57   10.19
   5  -3   0   34.70    4.51
   5  -3   1  479.86   20.61
   5  -3   2 1268.59   43.71
   5  -3   3  717.60   27.08
   5  -3   4   44.81    4.55
   5  -3   5   72.84    5.71
   5  -3   5   76.56    7.34
   5  -3   6  229.93   11.03
   5  -3   6  243.42   14.39
   5  -3   7  367.00   14.65
   5  -3   7  372.06   19.10
   5  -3   8  555.50   25.44
   5  -3   9  142.54   11.08
   5  -3  10   32.00    5.39
   5  -3  11    5.56    3.10
   5  -3  12  103.92   10.32
   5  -3  13   96.51   10.11
   5  -3  14   87.86   10.01
   5  -2 -16   90.90   10.65
   5  -2 -15   50.92    7.47
   5  -2 -14    0.09    2.56
   5  -2 -13   81.75    9.25
   5  -2 -12  135.24   11.74
   5  -2 -11  335.82   19.39
   5  -2 -10   89.55    8.99
   5  -2  -9    0.35    2.49
   5  -2  -8   52.77    6.54
   5  -2  -7  117.20    9.53
   5  -2  -6  254.53   14.76
   5  -2  -6  262.38   14.40
   5  -2  -5  103.55    8.53
   5  -2  -5  100.65    8.30
   5  -2  -5  110.89    8.45
   5  -2  -4   -1.07    1.74
   5  -2  -4    2.57    1.86
   5  -2  -4    0.06    1.08
   5  -2  -3    2.79    1.57
   5  -2  -3    4.01    1.90
   5  -2  -3    2.59    1.58
   5  -2  -2    3.10    2.13
   5  -2  -2    2.00    1.82
   5  -2  -1  175.31   10.95
   5  -2  -1  174.99   10.57
   5  -2   0    1.12    1.18
   5  -2   0   -0.01    1.30
   5  -2   1  147.85    9.75
   5  -2   1  124.28    8.32
   5  -2   2   75.25    6.82
   5  -2   2   77.06    6.02
   5  -2   3   71.62    6.62
   5  -2   3   55.00    4.94
   5  -2   4    8.31    1.99
   5  -2   5    3.35    1.46
   5  -2   5    3.88    2.00
   5  -2   6  379.97   14.68
   5  -2   6  353.69   18.16
   5  -2   7  246.82   10.10
   5  -2   7  252.90   14.56
   5  -2   8  172.41   11.95
   5  -2   9   -0.28    1.99
   5  -2  10    2.08    2.05
   5  -2  11  307.24   17.96
   5  -2  12  216.03   14.98
   5  -2  13   58.28    7.80
   5  -2  14    2.91    2.34
   5  -2  15    0.22    2.72
   5  -1 -16   -3.03    3.71
   5  -1 -15   16.60    4.39
   5  -1 -14   98.80   10.14
   5  -1 -13   91.34    9.44
   5  -1 -12  165.06   12.64
   5  -1 -11   61.53    7.27
   5  -1 -10   12.31    3.35
   5  -1  -9  138.84   10.71
   5  -1  -9  154.42   10.36
   5  -1  -8  116.32    9.46
   5  -1  -8  117.95    8.68
   5  -1  -7  368.16   18.50
   5  -1  -7  383.09   17.66
   5  -1  -6  224.41   13.43
   5  -1  -6  257.00   14.05
   5  -1  -6  247.72   13.09
   5  -1  -5   81.25    7.25
   5  -1  -5   91.37    7.58
   5  -1  -5   92.44    7.17
   5  -1  -4   40.38    4.98
   5  -1  -4   41.42    4.77
   5  -1  -4   42.94    4.72
   5  -1  -3  134.16    8.86
   5  -1  -3  115.43    7.92
   5  -1  -3  111.06    8.00
   5  -1  -2  634.65   24.59
   5  -1  -2  581.13   23.22
   5  -1  -2  648.44   24.76
   5  -1  -1  528.92   21.75
   5  -1  -1  543.33   20.87
   5  -1  -1  566.59   22.48
   5  -1   0   80.81    6.74
   5  -1   0   89.35    6.56
   5  -1   1   12.55    2.75
   5  -1   1   12.68    2.54
   5  -1   2  231.76   12.19
   5  -1   2  201.25   10.37
   5  -1   3  292.24   14.68
   5  -1   3  286.22   12.64
   5  -1   4  247.95   14.03
   5  -1   4  291.57   12.13
   5  -1   5  113.33    8.53
   5  -1   5  108.43    6.13
   5  -1   5  102.48    8.22
   5  -1   6    7.82    1.39
   5  -1   6   11.49    2.86
   5  -1   7    9.26    1.26
   5  -1   7    9.52    2.64
   5  -1   8  162.08   11.24
   5  -1   9   58.27    6.73
   5  -1  10   68.82    7.51
   5  -1  11   90.52    8.91
   5  -1  12   -2.14    2.51
   5  -1  13   17.11    4.53
   5  -1  14   37.15    6.31
   5  -1  15   59.49    8.31
   5   0 -16   64.75    8.46
   5   0 -15   45.90    7.06
   5   0 -14   13.72    4.26
   5   0 -13   -2.33    3.10
   5   0 -12   49.39    6.58
   5   0 -11  117.86    9.78
   5   0 -11   98.62    8.04
   5   0 -10  126.52   10.07
   5   0 -10  130.04    9.20
   5   0  -9  135.09   10.22
   5   0  -9  144.81    9.41
   5   0  -8   38.49    5.19
   5   0  -8   33.73    4.15
   5   0  -7    0.22    1.45
   5   0  -7    0.87    1.62
   5   0  -6  389.86   18.12
   5   0  -6  380.35   17.86
   5   0  -6  366.07   16.37
   5   0  -5  293.29   14.71
   5   0  -5  271.77   14.08
   5   0  -5  286.23   13.37
   5   0  -4  183.83   10.98
   5   0  -4  212.14   11.24
   5   0  -4  193.67   10.36
   5   0  -3  332.63   15.70
   5   0  -3  336.14   15.10
   5   0  -3  354.93   15.30
   5   0  -2    5.44    1.78
   5   0  -2    6.48    1.65
   5   0  -2    3.35    1.59
   5   0  -1    3.15    1.64
   5   0  -1    0.35    0.88
   5   0  -1    0.94    1.25
   5   0   0  408.54   17.30
   5   0   0  411.06   16.03
   5   0   0  468.68   18.33
   5   0   1  352.00   15.12
   5   0   1  299.30   13.71
   5   0   2  156.88    9.41
   5   0   2  163.19    8.55
   5   0   3  151.85    9.18
   5   0   3  123.44    7.07
   5   0   4   12.19    2.74
   5   0   4    8.75    1.74
   5   0   4    8.10    2.03
   5   0   5   59.31    5.84
   5   0   5   57.80    4.03
   5   0   5   70.94    6.36
   5   0   6   95.84    7.74
   5   0   6   87.32    4.75
   5   0   6  108.09    8.18
   5   0   7  287.49   10.04
   5   0   7  280.92   15.09
   5   0   8  187.68   12.00
   5   0   9  154.78   11.06
   5   0  10   68.17    7.37
   5   0  11    3.04    2.37
   5   0  12  135.64   11.28
   5   0  13  154.39   12.71
   5   0  14   77.48    8.88
   5   0  15   34.48    6.55
   5   1 -16   55.25    7.89
   5   1 -15    7.53    3.34
   5   1 -14    0.94    2.47
   5   1 -13   12.67    3.80
   5   1 -12  370.06   19.57
   5   1 -12  374.81   15.99
   5   1 -12  363.71   17.21
   5   1 -11  192.28   12.80
   5   1 -11  189.86   10.16
   5   1 -11  199.90   11.19
   5   1 -10  128.10    9.77
   5   1 -10  115.10    7.39
   5   1 -10  107.15    7.64
   5   1  -9    8.53    2.07
   5   1  -9    9.78    2.74
   5   1  -9    9.56    2.13
   5   1  -8    6.22    1.87
   5   1  -8   10.18    2.81
   5   1  -8    2.91    1.50
   5   1  -7  205.74   12.10
   5   1  -7  189.59    9.94
   5   1  -7  201.90   12.17
   5   1  -7  205.38   10.26
   5   1  -6 1009.80   36.18
   5   1  -6  968.01   33.37
   5   1  -6  968.90   35.80
   5   1  -6  975.15   33.28
   5   1  -5  884.55   33.10
   5   1  -5  915.10   31.20
   5   1  -5  869.04   32.68
   5   1  -5  916.96   30.99
   5   1  -4  463.97   19.80
   5   1  -4  459.85   19.24
   5   1  -4  471.99   18.14
   5   1  -3   49.49    4.92
   5   1  -3   45.03    4.44
   5   1  -3   50.52    4.31
   5   1  -2  281.25   13.66
   5   1  -2  311.54   13.10
   5   1  -2  295.63   12.98
   5   1  -1 1377.95   45.15
   5   1  -1 1352.24   43.45
   5   1  -1 1355.46   44.35
   5   1   0 2558.05   78.08
   5   1   0 2440.35   75.90
   5   1   0 2591.69   77.93
   5   1   1 1921.79   60.90
   5   1   1 1863.64   58.52
   5   1   2   45.55    4.01
   5   1   2   46.17    4.55
   5   1   2   43.59    2.77
   5   1   3  343.45   15.26
   5   1   3  315.20   13.36
   5   1   3  352.08   15.46
   5   1   4 1686.24   54.26
   5   1   4 1571.26   50.72
   5   1   4 1693.07   54.33
   5   1   5  617.09   24.94
   5   1   5  621.99   21.47
   5   1   5  663.02   25.36
   5   1   6 1222.17   40.85
   5   1   6 1239.93   40.80
   5   1   7  157.49   10.46
   5   1   7  165.32    6.49
   5   1   7  136.32    9.82
   5   1   8   20.83    3.67
   5   1   9  135.98   10.13
   5   1  10  424.16   20.98
   5   1  11  228.78   14.69
   5   1  12  205.85   14.32
   5   1  13    5.25    2.69
   5   1  14    5.68    3.37
   5   1  15   32.44    6.19
   5   2 -15   87.04    9.11
   5   2 -14  121.76   10.47
   5   2 -13   63.43    5.79
   5   2 -13   67.34    7.42
   5   2 -13   71.80    6.28
   5   2 -12   71.47    7.54
   5   2 -12   74.98    6.43
   5   2 -11    2.98    1.73
   5   2 -11   -0.18    1.28
   5   2 -11    1.72    1.75
   5   2 -10  109.74    6.98
   5   2 -10  118.90    9.42
   5   2 -10  115.96    7.87
   5   2 -10  124.37    9.03
   5   2  -9  349.93   17.22
   5   2  -9  317.63   14.78
   5   2  -9  312.82   13.52
   5   2  -8  205.75   12.26
   5   2  -8  197.02   10.54
   5   2  -8  188.27    9.24
   5   2  -7   65.47    6.33
   5   2  -7   59.78    5.25
   5   2  -7   63.18    6.32
   5   2  -7   63.23    4.53
   5   2  -6   20.46    3.04
   5   2  -6   24.61    3.87
   5   2  -6   22.14    3.63
   5   2  -6   21.53    2.54
   5   2  -5   78.51    6.58
   5   2  -5   78.40    5.86
   5   2  -5   68.71    6.26
   5   2  -5   82.91    5.10
   5   2  -4   57.87    5.39
   5   2  -4   48.52    4.54
   5   2  -4   47.68    4.86
   5   2  -4   53.91    3.98
   5   2  -3  268.62   12.51
   5   2  -3  282.67   12.88
   5   2  -3  268.63   11.32
   5   2  -2  168.99    9.00
   5   2  -2  156.02    8.43
   5   2  -2  149.93    7.67
   5   2  -1  453.51   17.38
   5   2  -1  405.75   15.86
   5   2  -1  401.72   15.90
   5   2   0   92.96    5.92
   5   2   0   88.54    5.22
   5   2   1   30.94    3.37
   5   2   1   27.50    2.42
   5   2   2  214.33   10.71
   5   2   2  218.35    8.15
   5   2   3  206.71   10.88
   5   2   3  220.76    7.39
   5   2   3  225.93   11.34
   5   2   4  843.47   30.76
   5   2   4  855.73   30.97
   5   2   5   96.85    7.37
   5   2   5  106.75    7.61
   5   2   6   10.82    2.56
   5   2   6   10.36    2.65
   5   2   7  182.53   11.32
   5   2   7  192.78   11.46
   5   2   8  112.46    5.09
   5   2   8  120.18    9.03
   5   2   9  537.46   17.08
   5   2   9  571.90   17.12
   5   2   9  556.60   24.52
   5   2  10  135.15   10.41
   5   2  11  122.25   10.26
   5   2  12   39.87    6.11
   5   2  13  283.95   17.82
   5   2  14  181.10   14.03
   5   2  15   70.08    8.71
   5   3 -15   69.24    8.18
   5   3 -14   42.84    5.52
   5   3 -14   48.36    6.43
   5   3 -13    5.40    2.33
   5   3 -13    0.51    1.93
   5   3 -12   95.16    6.12
   5   3 -12  107.33    9.18
   5   3 -12   99.76    8.01
   5   3 -11  223.51    9.98
   5   3 -11  222.97   10.04
   5   3 -11  204.41   13.25
   5   3 -11  213.44   12.59
   5   3 -11  208.55   12.23
   5   3 -10  383.63   14.78
   5   3 -10  393.15   19.33
   5   3 -10  416.58   15.19
   5   3 -10  372.19   17.71
   5   3 -10  383.58   17.78
   5   3  -9  254.52   10.37
   5   3  -9  246.90   14.16
   5   3  -9  240.34   12.79
   5   3  -9  266.46   13.40
   5   3  -8   60.90    3.94
   5   3  -8   75.36    6.83
   5   3  -8   62.30    5.70
   5   3  -7   14.09    2.82
   5   3  -7   17.22    1.91
   5   3  -7   14.86    3.26
   5   3  -6  404.03   14.09
   5   3  -6  390.76   18.43
   5   3  -6  387.65   17.06
   5   3  -5 1250.18   39.16
   5   3  -5 1314.00   44.39
   5   3  -5 1289.33   42.94
   5   3  -4  843.97   29.38
   5   3  -4  826.84   29.99
   5   3  -4  784.45   25.80
   5   3  -3  376.81   15.92
   5   3  -3  381.00   16.03
   5   3  -3  352.72   13.18
   5   3  -2  371.70   16.12
   5   3  -2  384.82   15.88
   5   3  -2  386.26   14.10
   5   3  -1   26.65    3.49
   5   3  -1   24.08    2.92
   5   3  -1   30.96    2.88
   5   3   0 2789.14   83.64
   5   3   0 2698.91   81.63
   5   3   0 2628.82   81.43
   5   3   1 2312.25   72.98
   5   3   1 2232.05   71.50
   5   3   1 2471.83   70.62
   5   3   1 2259.80   71.82
   5   3   2  912.29   30.06
   5   3   2  808.78   27.26
   5   3   2  924.56   30.49
   5   3   3  189.33   10.32
   5   3   3  212.01    8.00
   5   3   3  235.67   11.15
   5   3   4   77.21    6.00
   5   3   4   60.83    2.93
   5   3   4   76.87    5.92
   5   3   5  755.86   28.15
   5   3   5  732.37   27.78
   5   3   6 1442.48   48.18
   5   3   6 1359.84   47.43
   5   3   7  498.01   17.85
   5   3   7  495.02   21.49
   5   3   8  167.38    7.69
   5   3   8  160.70   10.74
   5   3   9    0.77    0.66
   5   3   9    0.60    1.56
   5   3  10  396.95   14.08
   5   3  10  423.87   20.60
   5   3  11    6.73    0.97
   5   3  11    8.85    3.08
   5   3  12  430.54   22.40
   5   3  13  163.88   12.90
   5   3  14   14.94    4.30
   5   3  15   22.14    5.01
   5   4 -14   56.98    6.87
   5   4 -14   55.48    6.94
   5   4 -13  109.11    9.54
   5   4 -13   99.27    8.87
   5   4 -12  111.20    9.46
   5   4 -12  107.91    8.89
   5   4 -11    6.40    1.15
   5   4 -11    9.72    2.70
   5   4 -11   12.77    3.44
   5   4 -11   11.09    2.86
   5   4 -11   13.97    2.98
   5   4 -10    1.65    0.59
   5   4 -10    0.61    0.55
   5   4 -10    2.35    1.65
   5   4 -10    0.51    1.90
   5   4 -10    1.83    1.65
   5   4 -10    1.25    1.74
   5   4  -9   68.56    3.02
   5   4  -9   72.71    3.08
   5   4  -9   94.13    6.76
   5   4  -9   84.43    6.22
   5   4  -9   92.31    7.50
   5   4  -8  317.39   14.23
   5   4  -8  301.07   13.45
   5   4  -8  279.82   14.90
   5   4  -7  209.28   11.87
   5   4  -6  336.94   16.71
   5   4  -6  323.28   15.57
   5   4  -5   58.16    5.83
   5   4  -5   63.22    5.69
   5   4  -4  151.53    5.67
   5   4  -4  155.13    9.67
   5   4  -4  178.68    9.84
   5   4  -3  475.38   15.71
   5   4  -3  513.01   20.22
   5   4  -3  466.13   19.56
   5   4  -2  320.47   11.87
   5   4  -2  331.39   14.73
   5   4  -2  357.28   15.28
   5   4  -1  444.62   15.75
   5   4  -1  434.74   18.23
   5   4  -1  443.08   17.70
   5   4   0  471.90   17.08
   5   4   0  487.54   19.26
   5   4   0  459.05   17.91
   5   4   0  462.58   17.33
   5   4   1   33.92    3.26
   5   4   1   22.69    3.19
   5   4   1   32.15    3.32
   5   4   2  177.92    9.12
   5   4   2  161.90    9.53
   5   4   2  192.15    9.25
   5   4   3  209.09   10.93
   5   4   3  204.84   10.29
   5   4   4  603.49   22.99
   5   4   5  216.13   11.45
   5   4   6   19.36    1.84
   5   4   6   21.82    3.44
   5   4   7   24.86    2.89
   5   4   7   27.55    2.26
   5   4   7   31.94    4.29
   5   4   8    0.45    0.94
   5   4   8    0.39    0.63
   5   4   8    1.21    1.71
   5   4   9  199.38    9.90
   5   4   9  236.71    9.33
   5   4   9  214.22   13.28
   5   4  10  302.74   12.51
   5   4  10  290.22   11.75
   5   4  10  294.02   16.54
   5   4  11    4.34    1.18
   5   4  11    4.52    1.41
   5   4  11    2.30    1.70
   5   4  12   74.59    5.23
   5   4  12   64.59    7.72
   5   4  13   30.68    3.48
   5   4  13   28.82    5.50
   5   4  14   19.02    4.50
   5   4  15   60.39    8.34
   5   5 -15   71.29    8.58
   5   5 -14   75.91    8.51
   5   5 -14   87.90    8.83
   5   5 -13   30.43    5.48
   5   5 -13   32.15    5.27
   5   5 -12    1.90    2.09
   5   5 -12    3.45    2.31
   5   5 -11  179.53   12.23
   5   5 -11  168.09   11.27
   5   5 -11  182.40   12.39
   5   5 -10  217.62   12.60
   5   5 -10  221.35   11.17
   5   5 -10  231.49   14.01
   5   5  -9  249.03   13.33
   5   5  -9  231.21   11.10
   5   5  -9  241.47   14.16
   5   5  -8  134.89    9.07
   5   5  -8  126.50    7.02
   5   5  -8  119.01    9.24
   5   5  -7   -1.00    1.76
   5   5  -7    1.41    1.83
   5   5  -7    0.73    0.81
   5   5  -6  133.07    8.75
   5   5  -6  129.83    6.42
   5   5  -6  125.30    9.18
   5   5  -5  461.03   20.55
   5   5  -5  419.10   19.34
   5   5  -4  709.28   27.59
   5   5  -4  672.79   26.86
   5   5  -3  162.81   10.03
   5   5  -3  163.10   10.00
   5   5  -2  115.81    7.86
   5   5  -2  101.21    5.18
   5   5  -1   28.55    3.67
   5   5  -1   25.88    2.44
   5   5   0  313.25   12.21
   5   5   0  308.13   14.50
   5   5   1 1027.61   34.98
   5   5   1  959.62   32.24
   5   5   2  745.49   26.37
   5   5   2  654.26   24.05
   5   5   3  391.26   16.63
   5   5   3  368.16   15.48
   5   5   4    6.08    1.85
   5   5   4    4.95    1.63
   5   5   5    2.73    1.35
   5   5   6 1059.88   36.00
   5   5   6 1061.44   33.95
   5   5   6  979.99   36.91
   5   5   7  372.83   16.28
   5   5   7  385.57   14.86
   5   5   7  404.48   18.32
   5   5   8  295.68   13.89
   5   5   8  324.18   12.87
   5   5   8  308.12   16.05
   5   5   9   65.16    5.44
   5   5   9   64.88    4.73
   5   5   9   69.89    7.05
   5   5  10   12.66    2.49
   5   5  10    8.00    1.68
   5   5  10   10.69    2.88
   5   5  11   77.81    5.99
   5   5  11   87.47    6.01
   5   5  11   83.21    8.41
   5   5  12  110.25    7.14
   5   5  12   97.79    9.73
   5   5  13  242.48   12.30
   5   5  13  282.35   17.57
   5   5  14   70.51    8.88
   5   5  15   25.26    5.48
   5   6 -15    5.68    3.90
   5   6 -14   13.74    4.65
   5   6 -13   37.38    6.50
   5   6 -13   42.37    6.07
   5   6 -12   52.36    7.12
   5   6 -11  130.77   10.91
   5   6 -10   41.07    5.88
   5   6  -9    5.32    2.84
   5   6  -9    1.01    0.91
   5   6  -8    3.85    2.16
   5   6  -8    2.64    0.87
   5   6  -7  158.20   10.48
   5   6  -7  181.91   11.70
   5   6  -7  148.18    6.37
   5   6  -6  184.84   11.15
   5   6  -6  159.97    6.21
   5   6  -6  180.26   11.53
   5   6  -5  165.53   10.26
   5   6  -5  137.52    5.07
   5   6  -5  163.36   10.64
   5   6  -4   26.66    4.35
   5   6  -4   25.78    3.90
   5   6  -3   13.29    2.78
   5   6  -3   12.21    1.01
   5   6  -2   38.21    4.64
   5   6  -2   36.81    2.25
   5   6  -1  259.05   13.16
   5   6  -1  235.62    9.07
   5   6   0  265.61   10.27
   5   6   0  242.84   12.95
   5   6   1  133.89    8.87
   5   6   1  144.98    7.12
   5   6   2   67.43    5.93
   5   6   2   71.52    4.97
   5   6   3   11.18    2.44
   5   6   3   12.95    2.32
   5   6   4   92.09    6.93
   5   6   4   97.35    6.70
   5   6   5  128.81    8.66
   5   6   5  132.46    8.50
   5   6   5  135.02    8.53
   5   6   6  515.34   21.60
   5   6   6  539.25   22.11
   5   6   7   18.24    3.14
   5   6   7   11.07    2.23
   5   6   7   11.85    2.83
   5   6   8    2.26    1.46
   5   6   8    1.43    1.20
   5   6   8    0.70    1.38
   5   6   9    6.69    2.21
   5   6   9   10.15    2.33
   5   6   9    4.60    2.09
   5   6  10   78.56    6.64
   5   6  10   71.44    5.78
   5   6  10   82.40    8.13
   5   6  11   96.72    7.48
   5   6  11  100.51    7.09
   5   6  11   98.88    9.32
   5   6  12  130.82    8.58
   5   6  12  117.67   10.77
   5   6  13   25.74    3.71
   5   6  13   22.85    4.93
   5   6  14   -3.11    2.51
   5   7 -14   52.58    7.77
   5   7 -13   78.53    9.29
   5   7 -12   73.68    8.84
   5   7 -11   21.74    4.92
   5   7 -10    2.56    2.76
   5   7  -9   52.68    6.86
   5   7  -8  170.52   12.38
   5   7  -7  461.50   22.47
   5   7  -6  264.07   15.41
   5   7  -5   -0.54    2.13
   5   7  -4   71.69    7.12
   5   7  -3  245.35   13.86
   5   7  -3  241.56   13.91
   5   7  -2  451.83   20.64
   5   7  -1  561.63   23.81
   5   7   0  210.11    8.43
   5   7   0  211.81   12.20
   5   7   1   11.00    2.62
   5   7   1   13.46    1.95
   5   7   2  301.82   12.68
   5   7   2  312.19   15.17
   5   7   3  467.53   19.98
   5   7   3  454.45   18.00
   5   7   4  305.98   15.50
   5   7   4  309.47   14.85
   5   7   4  290.89   13.66
   5   7   5  207.26   12.12
   5   7   5  204.84   11.39
   5   7   5  201.84   11.07
   5   7   6    5.19    2.03
   5   7   6    8.79    2.49
   5   7   6    3.77    1.46
   5   7   7  134.74    9.59
   5   7   7  145.92    9.09
   5   7   7  152.87   10.13
   5   7   8  294.67   15.51
   5   7   8  296.73   14.40
   5   7   8  306.05   16.13
   5   7   9   91.12    7.78
   5   7   9   85.50    6.95
   5   7   9   83.55    8.10
   5   7  10  186.90   11.79
   5   7  10  188.47   11.06
   5   7  10  201.58   13.42
   5   7  11   -0.77    1.37
   5   7  11    2.52    2.34
   5   7  12   -1.86    1.71
   5   7  12    1.28    2.73
   5   7  13   88.80    7.73
   5   8 -12   42.00    6.83
   5   8 -11  133.35   12.22
   5   8 -10  168.08   13.60
   5   8  -9   23.12    5.10
   5   8  -8   -2.25    3.48
   5   8  -7  127.65   10.92
   5   8  -6   89.28    8.87
   5   8  -5  300.21   17.18
   5   8  -4  177.51   12.31
   5   8  -3   55.33    6.42
   5   8  -2   50.95    6.11
   5   8  -1   69.84    7.04
   5   8   0  131.42    9.66
   5   8   1  167.68   10.99
   5   8   2  164.81   10.65
   5   8   3   57.23    5.83
   5   8   4    2.61    1.74
   5   8   5   54.31    5.58
   5   8   6  167.04   10.32
   5   8   7  175.58   10.58
   5   8   7  173.97   10.93
   5   8   8   34.24    4.61
   5   8   9   62.24    6.25
   5   8  10    0.80    1.84
   5   8  11  130.67    9.68
   5   8  12   72.74    7.19
   5   8  13   54.67    6.30
   5   9 -10    5.38    3.15
   5   9  -9   16.36    4.58
   5   9  -8   57.67    7.98
   5   9  -7  412.83   22.66
   5   9  -6   40.21    6.57
   5   9  -5   29.49    5.46
   5   9  -4   -1.37    2.58
   5   9  -3   86.85    8.60
   5   9  -2  144.21   11.04
   5   9  -1  351.22   18.71
   5   9   0  119.57    9.72
   5   9   1   14.00    3.34
   5   9   2   48.12    5.82
   5   9   3   88.33    7.74
   5   9   4  126.08    9.31
   5   9   5  197.44   12.01
   5   9   6  218.00   12.64
   5   9   7    5.73    2.37
   5   9   7    6.25    2.56
   5   9   8   58.99    5.90
   5   9   8   63.61    6.74
   5   9   9   32.16    4.84
   5   9  10  108.41    9.33
   5   9  11   96.77    8.91
   5   9  12   34.35    5.35
   5   9  13    1.21    2.07
   5  10  -8   35.62    6.25
   5  10  -7   18.80    4.97
   5  10  -6   14.34    4.52
   5  10  -5   64.54    8.32
   5  10  -4  140.76   11.98
   5  10  -3   60.54    7.67
   5  10  -2    5.03    2.97
   5  10  -1   -2.83    2.72
   5  10   0   54.23    6.79
   5  10   1   52.53    6.64
   5  10   2  128.43   10.25
   5  10   3   32.75    4.99
   5  10   4   -0.75    1.59
   5  10   5   17.18    3.47
   5  10   6    3.87    1.78
   5  10   7  132.45    9.65
   5  10   7  128.54   10.65
   5  10   8   49.66    5.47
   5  10   8   41.67    6.14
   5  10   9   25.70    4.87
   5  10  10   -1.67    2.72
   5  10  11    2.07    2.34
   5  10  12   31.31    5.75
   5  10  13   27.83    5.40
   5  11  -6   79.28    9.80
   5  11  -5  156.71   13.56
   5  11  -4   81.48    9.54
   5  11  -3   11.09    3.72
   5  11  -2   -0.92    2.69
   5  11  -1  165.91   13.26
   5  11   0  160.90   12.84
   5  11   1  166.19   12.72
   5  11   2   26.13    4.92
   5  11   3   13.77    3.58
   5  11   4   76.02    7.86
   5  11   5  138.23   10.62
   5  11   6  118.70    9.72
   5  11   7   83.40    7.89
   5  11   7   65.69    8.13
   5  11   8    2.67    1.66
   5  11   8    7.03    3.50
   5  11   9   12.43    4.51
   5  11  10   27.65    5.64
   5  11  11   52.80    7.48
   5  11  12   73.42    8.99
   5  12  -3   40.95    6.82
   5  12  -2   10.20    3.93
   5  12  -1   27.77    5.73
   5  12   0    2.71    3.14
   5  12   1    2.63    2.91
   5  12   2    2.78    2.92
   5  12   3   -0.52    2.97
   5  12   4   28.90    5.56
   5  12   5   16.20    4.28
   5  12   6    5.64    2.48
   5  12   7   11.48    4.05
   5  12   8   10.70    3.75
   5  12   9   24.13    5.18
   5  12  10   35.14    6.47
   5  13   0   27.02    5.95
   5  13   1  113.37   11.59
   5  13   2   63.41    8.54
   5  13   3   63.45    8.52
   5  13   4    3.03    2.82
   5  13   5    4.98    3.31
   6  -8   1  115.17   11.94
   6  -8   2  119.75   11.93
   6  -7  -3    9.82    3.90
   6  -7  -2   54.36    7.94
   6  -7  -1  109.87   11.20
   6  -7   0  145.24   12.75
   6  -7   1   58.51    8.10
   6  -7   2    4.47    3.63
   6  -7   3    8.80    4.14
   6  -7   5   87.93   10.02
   6  -7   6  108.34   11.13
   6  -6  -6   12.14    3.72
   6  -6  -5   16.30    5.28
   6  -6  -4  211.61   15.85
   6  -6  -3  316.85   19.86
   6  -6  -2  189.07   14.48
   6  -6  -1   62.67    8.19
   6  -6   0   -1.26    3.28
   6  -6   1  231.22   15.49
   6  -6   2  284.00   17.16
   6  -6   3  229.12   14.92
   6  -6   4   93.64    8.98
   6  -6   5    2.39    3.04
   6  -6   6   26.05    5.31
   6  -6   7  149.20   12.89
   6  -6   8  153.43   13.24
   6  -6   9   77.89    9.64
   6  -5  -9    7.11    4.32
   6  -5  -8   -0.79    2.75
   6  -5  -7   80.25    9.54
   6  -5  -6   67.38    8.66
   6  -5  -5   70.79    8.47
   6  -5  -4   93.48    9.78
   6  -5  -3   11.53    3.55
   6  -5  -2   19.42    4.56
   6  -5  -1   11.30    3.56
   6  -5   0   93.35    9.09
   6  -5   1  143.02   11.19
   6  -5   2   81.99    8.13
   6  -5   3    6.04    2.65
   6  -5   4    1.75    1.49
   6  -5   5  110.91    8.84
   6  -5   5  108.19   10.37
   6  -5   6  108.39   10.46
   6  -5   7   64.45    8.16
   6  -5   8   27.41    5.87
   6  -5   9    4.95    3.03
   6  -5  10   11.67    3.99
   6  -5  11   85.18    9.92
   6  -4 -11   34.57    6.45
   6  -4 -10   -1.72    2.70
   6  -4  -9  101.76   10.73
   6  -4  -8  159.37   13.33
   6  -4  -7  585.33   28.84
   6  -4  -6  113.54   10.78
   6  -4  -5   15.34    4.48
   6  -4  -4   42.59    6.24
   6  -4  -3  218.86   14.48
   6  -4  -2  416.17   21.22
   6  -4  -1  278.31   16.26
   6  -4   0  135.81   10.37
   6  -4   1   23.18    4.24
   6  -4   2   79.25    7.49
   6  -4   3  322.02   16.63
   6  -4   4   96.46    7.89
   6  -4   5  168.10   10.39
   6  -4   5  146.23   11.89
   6  -4   6   13.46    2.68
   6  -4   6   21.61    4.54
   6  -4   7   43.27    6.43
   6  -4   8   97.29    9.79
   6  -4   9  116.20   10.86
   6  -4  10   34.90    6.11
   6  -4  11   34.69    6.38
   6  -4  12    1.33    3.32
   6  -3 -12   21.56    5.25
   6  -3 -11  166.61   14.01
   6  -3 -10  317.08   19.78
   6  -3  -9  129.08   11.85
   6  -3  -8    7.64    3.23
   6  -3  -7    1.95    2.33
   6  -3  -6  329.53   18.85
   6  -3  -5  377.26   20.08
   6  -3  -4  353.65   19.02
   6  -3  -3   53.43    6.58
   6  -3  -2    0.60    1.70
   6  -3  -1   23.69    4.19
   6  -3   0  244.21   14.01
   6  -3   1  128.62    9.39
   6  -3   2  249.45   13.65
   6  -3   3   50.04    5.42
   6  -3   4   -1.15    1.26
   6  -3   5   24.41    3.56
   6  -3   5   21.11    4.27
   6  -3   6   34.73    4.03
   6  -3   6   38.21    5.75
   6  -3   7  125.24    7.55
   6  -3   7  129.68   10.85
   6  -3   8  106.63   10.03
   6  -3   9   40.11    6.19
   6  -3  10   -0.73    2.73
   6  -3  11    2.83    2.82
   6  -3  12   36.04    6.22
   6  -3  13   69.22    8.80
   6  -2 -14    0.44    2.97
   6  -2 -13   61.13    8.19
   6  -2 -12   29.07    6.07
   6  -2 -11  245.50   16.91
   6  -2 -10   55.04    7.62
   6  -2  -9   18.76    4.46
   6  -2  -8    1.22    2.03
   6  -2  -7   67.47    7.74
   6  -2  -6  414.58   21.16
   6  -2  -5  401.47   20.24
   6  -2  -4  254.42   14.91
   6  -2  -3    0.34    1.53
   6  -2  -2   40.55    5.18
   6  -2  -1  887.14   33.92
   6  -2   0  737.50   29.07
   6  -2   1  324.57   15.93
   6  -2   2  114.18    8.14
   6  -2   3   96.53    7.20
   6  -2   4  371.10   16.37
   6  -2   5  741.17   27.29
   6  -2   5  763.20   31.34
   6  -2   6  349.53   14.78
   6  -2   6  343.53   18.66
   6  -2   7   88.21    5.61
   6  -2   7   93.77    8.79
   6  -2   8    2.30    0.97
   6  -2   8    6.37    2.81
   6  -2   9  143.99   11.67
   6  -2  10  133.21   11.36
   6  -2  11  164.80   13.15
   6  -2  12   97.34   10.29
   6  -2  13    6.11    3.17
   6  -1 -15   65.10    8.92
   6  -1 -14   87.65    9.90
   6  -1 -13  101.63   10.66
   6  -1 -12    8.59    4.20
   6  -1 -11    7.12    3.42
   6  -1 -10  157.59   12.38
   6  -1  -9  122.68   10.52
   6  -1  -8  114.12    9.92
   6  -1  -7   84.58    8.44
   6  -1  -6    0.53    1.75
   6  -1  -6   -0.55    1.62
   6  -1  -5   28.22    4.59
   6  -1  -5   29.85    4.34
   6  -1  -4  120.99    9.38
   6  -1  -4  123.31    8.93
   6  -1  -4  126.52    9.21
   6  -1  -3   67.33    6.76
   6  -1  -3   88.80    7.11
   6  -1  -3   84.07    7.24
   6  -1  -2    4.81    2.01
   6  -1  -2    3.52    1.62
   6  -1  -2    5.24    1.87
   6  -1  -1  159.80   10.19
   6  -1  -1  118.59    8.88
   6  -1   0   58.46    5.99
   6  -1   0   51.34    5.42
   6  -1   1    1.96    1.07
   6  -1   1    3.33    1.57
   6  -1   2   83.89    7.32
   6  -1   2   65.96    5.78
   6  -1   3   33.04    3.86
   6  -1   4   64.18    5.24
   6  -1   5   75.65    5.50
   6  -1   5   79.66    7.66
   6  -1   6    5.91    1.51
   6  -1   6    5.28    2.28
   6  -1   7   46.65    3.66
   6  -1   7   56.52    6.56
   6  -1   8   73.49    3.87
   6  -1   8   65.47    7.39
   6  -1   9  114.00   10.02
   6  -1  10   44.31    6.36
   6  -1  11   47.01    6.82
   6  -1  12    7.90    3.48
   6  -1  13   19.62    4.45
   6  -1  14   72.41    9.12
   6   0 -16  110.17   11.80
   6   0 -15  101.39   10.73
   6   0 -14   25.25    5.60
   6   0 -13    2.31    2.80
   6   0 -12   92.47    9.64
   6   0 -11  326.28   18.90
   6   0 -10  255.87   16.07
   6   0  -9  168.25   12.23
   6   0  -9  152.92   10.28
   6   0  -8   12.24    3.20
   6   0  -8   16.28    3.32
   6   0  -7    9.44    3.05
   6   0  -7    6.44    2.22
   6   0  -6  674.79   28.36
   6   0  -6  683.53   26.79
   6   0  -5  550.47   24.42
   6   0  -5  554.95   23.82
   6   0  -5  587.64   23.40
   6   0  -4  372.65   19.03
   6   0  -4  460.18   19.54
   6   0  -4  450.65   19.15
   6   0  -3   80.80    7.15
   6   0  -3   78.08    6.48
   6   0  -3   80.88    6.70
   6   0  -2   16.30    3.18
   6   0  -2    9.56    2.22
   6   0  -2   13.18    2.87
   6   0  -1  111.06    7.94
   6   0  -1  106.38    6.95
   6   0  -1   95.80    7.52
   6   0   0  491.72   20.09
   6   0   0  466.00   18.14
   6   0   0  455.89   20.11
   6   0   1  496.75   20.59
   6   0   1  439.71   19.06
   6   0   2  358.04   16.83
   6   0   2  331.70   15.14
   6   0   3  100.13    7.99
   6   0   3   88.63    6.36
   6   0   4   -0.34    1.51
   6   0   4    0.92    1.13
   6   0   4   -0.24    1.59
   6   0   5   38.66    3.66
   6   0   5   35.95    4.92
   6   0   6  462.84   17.09
   6   0   6  447.53   21.31
   6   0   7  497.12   17.04
   6   0   7  432.65   21.78
   6   0   8  114.36    4.87
   6   0   8  101.41    9.07
   6   0   9    3.88    2.20
   6   0  10   16.49    4.13
   6   0  11  205.43   14.51
   6   0  12  120.85   11.14
   6   0  13   73.41    8.92
   6   0  14   14.98    4.01
   6   1 -16    6.70    4.22
   6   1 -15   32.79    6.07
   6   1 -14   62.00    8.17
   6   1 -13  110.22   10.51
   6   1 -12  114.10   10.55
   6   1 -11   60.62    5.42
   6   1 -11   61.88    7.64
   6   1 -11   64.38    6.26
   6   1 -10   42.02    4.57
   6   1 -10   45.75    6.20
   6   1 -10   52.94    5.39
   6   1  -9  144.95   11.11
   6   1  -9  149.94    9.41
   6   1  -8  249.57   14.59
   6   1  -8  218.36   11.85
   6   1  -7   64.02    6.85
   6   1  -7   77.89    6.20
   6   1  -6  301.88   16.01
   6   1  -6  288.30   15.39
   6   1  -6  294.72   13.91
   6   1  -5    1.98    1.78
   6   1  -5    0.97    1.26
   6   1  -5    0.63    1.30
   6   1  -4  106.84    8.30
   6   1  -4  103.74    7.69
   6   1  -4  105.09    7.24
   6   1  -3  221.83   12.33
   6   1  -3  187.46   10.78
   6   1  -3  233.06   11.46
   6   1  -2  347.31   16.30
   6   1  -2  328.32   14.81
   6   1  -2  355.26   15.56
   6   1  -1   78.07    6.57
   6   1  -1   83.50    5.84
   6   1  -1   95.38    6.80
   6   1   0  102.92    7.44
   6   1   0  104.78    6.30
   6   1   0  113.93    7.58
   6   1   1    3.82    1.64
   6   1   1    3.93    1.18
   6   1   1   10.12    2.27
   6   1   2    6.42    1.78
   6   1   2    4.34    1.07
   6   1   2    6.02    1.98
   6   1   3   42.32    4.68
   6   1   3   30.86    3.51
   6   1   4  291.13   14.74
   6   1   4  258.99   12.04
   6   1   4  276.31   14.47
   6   1   5   76.52    6.96
   6   1   5   70.38    5.01
   6   1   5   67.62    6.68
   6   1   6  190.88    8.80
   6   1   6  164.73   11.25
   6   1   7   31.79    2.80
   6   1   7   34.68    4.85
   6   1   8    5.99    1.03
   6   1   8    6.53    2.24
   6   1   9   42.53    5.76
   6   1  10  104.28    9.44
   6   1  11  213.47   14.69
   6   1  12   18.70    4.56
   6   1  13    0.74    2.29
   6   1  14   10.21    3.24
   6   2 -16   31.28    6.39
   6   2 -15   65.35    8.40
   6   2 -14   36.30    6.43
   6   2 -13   21.05    4.78
   6   2 -12    2.43    1.61
   6   2 -12    9.56    3.50
   6   2 -11   -0.89    1.83
   6   2 -11    0.21    1.97
   6   2 -10   74.83    6.43
   6   2 -10   74.67    7.81
   6   2 -10   68.47    5.73
   6   2  -9  281.27   15.99
   6   2  -9  269.59   13.56
   6   2  -9  256.21   12.35
   6   2  -8  209.45   13.35
   6   2  -8  220.10   11.84
   6   2  -8  220.18   10.80
   6   2  -7   99.99    8.38
   6   2  -7   89.35    6.94
   6   2  -7   87.47    6.08
   6   2  -6    3.35    1.47
   6   2  -6    1.17    1.68
   6   2  -6   -0.34    1.48
   6   2  -6    4.11    1.54
   6   2  -5  264.79   14.27
   6   2  -5  252.55   12.73
   6   2  -5  249.44   13.57
   6   2  -5  257.72   11.80
   6   2  -4  546.50   21.98
   6   2  -4  562.36   23.38
   6   2  -4  568.63   22.68
   6   2  -4  534.46   20.63
   6   2  -3  939.97   34.44
   6   2  -3  942.71   33.36
   6   2  -3  925.45   32.01
   6   2  -2  427.44   18.44
   6   2  -2  399.13   16.50
   6   2  -2  405.71   16.92
   6   2  -1   76.39    5.73
   6   2  -1   73.84    5.42
   6   2   0  314.91   14.30
   6   2   0  324.83   13.08
   6   2   1 1812.17   56.77
   6   2   1 1709.58   53.62
   6   2   2  454.68   18.68
   6   2   2  424.89   14.99
   6   2   3  675.49   25.79
   6   2   3  647.04   20.53
   6   2   3  683.30   26.14
   6   2   4  342.53   16.14
   6   2   4  319.82   15.90
   6   2   5   29.30    4.21
   6   2   5   33.24    4.41
   6   2   6  386.96   18.31
   6   2   6  369.89   14.76
   6   2   6  382.61   18.26
   6   2   7  779.62   26.32
   6   2   7  809.39   31.57
   6   2   8  447.45   16.02
   6   2   8  503.81   22.32
   6   2   9  175.15    6.49
   6   2   9  162.04    6.43
   6   2   9  157.68   11.48
   6   2  10   23.19    4.42
   6   2  11   28.76    5.28
   6   2  12  152.94   12.54
   6   2  13  247.43   16.99
   6   2  14  115.79   11.41
   6   2  15   25.93    5.74
   6   3 -15   17.02    5.28
   6   3 -14   -1.33    3.13
   6   3 -13   49.61    5.91
   6   3 -13   60.29    7.87
   6   3 -12  397.34   21.28
   6   3 -12  419.24   19.54
   6   3 -11   59.48    6.24
   6   3 -11   61.29    7.29
   6   3 -10   94.24    8.84
   6   3 -10   92.55    7.70
   6   3 -10  106.43    6.24
   6   3  -9    0.07    1.29
   6   3  -9   -1.73    2.33
   6   3  -9   -1.18    0.99
   6   3  -8   71.97    6.44
   6   3  -8   63.03    6.85
   6   3  -8   62.90    4.52
   6   3  -7  104.15    8.58
   6   3  -7  105.30    7.73
   6   3  -7   89.09    5.47
   6   3  -6  278.85   15.21
   6   3  -6  279.90   14.23
   6   3  -6  293.88   15.53
   6   3  -6  296.10   11.89
   6   3  -5  265.20   13.43
   6   3  -5  259.73   13.99
   6   3  -5  262.98   11.03
   6   3  -4   13.02    2.66
   6   3  -4   13.96    2.88
   6   3  -4   13.87    2.03
   6   3  -3   -0.30    1.44
   6   3  -3    1.49    1.53
   6   3  -3    0.57    0.79
   6   3  -2  463.35   19.27
   6   3  -2  446.33   18.44
   6   3  -2  450.26   17.21
   6   3  -1  319.65   14.58
   6   3  -1  281.76   12.63
   6   3  -1  297.70   13.14
   6   3   0 1694.76   52.46
   6   3   0 1578.11   51.37
   6   3   1   31.51    3.60
   6   3   1   33.25    3.07
   6   3   2    8.75    2.12
   6   3   2    6.03    1.17
   6   3   2    8.04    2.38
   6   3   3    2.56    1.44
   6   3   3    2.61    0.80
   6   3   3    5.42    1.97
   6   3   4   30.35    4.02
   6   3   4   35.69    1.76
   6   3   4   31.15    4.15
   6   3   5  146.56    9.63
   6   3   5  142.24    9.46
   6   3   6  259.47   14.04
   6   3   6  241.39   13.53
   6   3   7  247.71   13.98
   6   3   8   16.72    3.58
   6   3   9    1.92    0.79
   6   3   9    2.64    2.19
   6   3  10  190.88    7.72
   6   3  10  184.14   12.95
   6   3  11   80.57    8.57
   6   3  12   88.25    9.33
   6   3  13   79.84    9.10
   6   3  14    2.31    2.35
   6   3  15    2.51    3.02
   6   4 -15   28.89    6.13
   6   4 -14   35.03    5.42
   6   4 -14   35.20    6.25
   6   4 -13  140.10   11.75
   6   4 -13  137.62   10.57
   6   4 -12   94.54    9.26
   6   4 -12   87.42    8.11
   6   4 -11   -1.84    1.57
   6   4 -11    1.64    2.21
   6   4 -10    0.88    0.75
   6   4 -10    1.07    1.98
   6   4 -10    1.27    1.80
   6   4  -9  156.57    6.17
   6   4  -9  154.48   11.29
   6   4  -9  145.01    6.05
   6   4  -9  154.87    9.54
   6   4  -9  162.81   10.69
   6   4  -8  216.20    8.05
   6   4  -8  233.56   12.97
   6   4  -7  261.52    9.58
   6   4  -7  303.99   14.86
   6   4  -6  130.76    5.65
   6   4  -6  129.28    9.00
   6   4  -5   32.37    4.28
   6   4  -5   33.49    4.45
   6   4  -5   24.42    2.17
   6   4  -4   49.38    5.29
   6   4  -4   59.83    5.80
   6   4  -4   52.00    3.45
   6   4  -3  515.68   21.51
   6   4  -3  544.97   21.60
   6   4  -3  498.00   17.82
   6   4  -2  644.10   25.08
   6   4  -2  650.28   24.40
   6   4  -2  615.35   21.72
   6   4  -1   39.38    4.62
   6   4  -1   34.50    3.90
   6   4  -1   40.88    3.56
   6   4   0  738.94   25.72
   6   4   0  678.39   25.71
   6   4   1  431.61   18.42
   6   4   1  420.12   16.82
   6   4   1  400.53   15.92
   6   4   1  412.00   17.15
   6   4   2    4.67    1.74
   6   4   2    7.03    1.46
   6   4   2    6.23    1.82
   6   4   3  338.50   15.30
   6   4   3  323.18   12.50
   6   4   3  346.60   15.33
   6   4   4  431.95   18.76
   6   4   4  428.61   14.85
   6   4   4  431.20   18.59
   6   4   5  278.65   13.97
   6   4   5  249.40    9.08
   6   4   5  250.16   13.23
   6   4   6   27.18    1.61
   6   4   6   24.76    1.58
   6   4   6   24.84    3.84
   6   4   7   82.00    7.27
   6   4   8  149.14    8.08
   6   4   8  150.57   10.67
   6   4   9  232.64   10.72
   6   4   9  238.71   14.42
   6   4  10  385.08   15.13
   6   4  10  395.56   20.45
   6   4  11   11.60    3.38
   6   4  12    8.05    2.85
   6   4  13  161.60   13.20
   6   4  14  104.78   10.86
   6   4  15   50.33    7.90
   6   5 -14    3.23    3.44
   6   5 -14    1.70    3.32
   6   5 -13    5.18    3.08
   6   5 -13    3.60    2.97
   6   5 -12   79.65    8.64
   6   5 -12   78.49    8.13
   6   5 -11  138.91   11.40
   6   5 -11  153.82   11.36
   6   5 -10   84.34    6.68
   6   5 -10  102.69    8.89
   6   5  -9   22.13    4.14
   6   5  -9   23.03    3.26
   6   5  -8    5.85    2.39
   6   5  -8    1.95    1.41
   6   5  -7   15.79    3.48
   6   5  -6  259.09   14.22
   6   5  -5  118.70    9.21
   6   5  -5  118.92    8.79
   6   5  -4  119.09    8.82
   6   5  -4  118.73    8.65
   6   5  -3  164.65   10.24
   6   5  -3  153.48   10.02
   6   5  -2    6.35    2.23
   6   5  -2    8.29    2.43
   6   5  -1    0.27    1.21
   6   5  -1    0.29    0.98
   6   5   0  365.36   17.62
   6   5   0  398.25   16.86
   6   5   0  424.59   16.14
   6   5   1  359.03   16.63
   6   5   1  353.95   14.84
   6   5   2  194.89   11.65
   6   5   2  256.45   11.58
   6   5   3   77.50    6.63
   6   5   3   84.17    6.24
   6   5   4    1.08    1.24
   6   5   5    6.69    1.97
   6   5   6  275.56   10.76
   6   5   6  266.71   14.17
   6   5   7  299.66   14.11
   6   5   7  307.96   11.76
   6   5   7  338.90   16.55
   6   5   8  137.49    8.50
   6   5   8  152.23    6.80
   6   5   8  154.62   10.76
   6   5   9   33.38    3.83
   6   5   9   37.53    2.97
   6   5   9   38.52    5.49
   6   5  10    1.11    1.23
   6   5  10   -0.24    0.66
   6   5  10   -0.42    2.05
   6   5  11   25.91    3.29
   6   5  11   26.93    2.71
   6   5  11   28.29    5.12
   6   5  12  166.08   13.13
   6   5  13  160.96   13.30
   6   5  14   21.40    4.65
   6   6 -14    2.95    4.04
   6   6 -14    2.48    3.85
   6   6 -13   47.59    7.06
   6   6 -13   47.39    7.37
   6   6 -12   55.58    7.70
   6   6 -12   41.73    6.50
   6   6 -11   99.19    9.61
   6   6 -10   48.60    6.51
   6   6  -9    7.37    2.74
   6   6  -8   29.60    5.00
   6   6  -8   25.72    2.77
   6   6  -7  183.46    8.39
   6   6  -7  212.90   13.10
   6   6  -6  544.89   24.21
   6   6  -6  539.60   18.63
   6   6  -5  117.97    9.21
   6   6  -4   55.76    6.19
   6   6  -4   56.73    6.12
   6   6  -3   81.61    7.06
   6   6  -3   61.17    3.94
   6   6  -3   57.68    6.06
   6   6  -2  464.23   20.67
   6   6  -2  441.40   20.47
   6   6  -2  477.82   16.72
   6   6  -1  672.15   23.36
   6   6  -1  728.34   27.86
   6   6   0  577.92   23.61
   6   6   0  548.35   20.00
   6   6   1   12.24    2.94
   6   6   1   15.90    2.32
   6   6   2  109.96    8.30
   6   6   2  123.48    7.31
   6   6   3  228.39   12.98
   6   6   3  276.01   12.54
   6   6   4  406.98   18.61
   6   6   4  414.78   17.74
   6   6   5  102.52    7.68
   6   6   6  182.45   11.13
   6   6   7    3.22    1.60
   6   6   7    4.98    1.46
   6   6   7    0.84    1.47
   6   6   8    2.81    1.51
   6   6   8    3.06    1.21
   6   6   8    5.25    2.31
   6   6   9  129.83    8.85
   6   6   9  141.44    7.64
   6   6   9  138.73   10.60
   6   6  10   88.50    7.00
   6   6  10   72.26    5.30
   6   6  10   79.79    8.12
   6   6  11  127.74    8.79
   6   6  11  142.79    7.93
   6   6  11  132.28   11.25
   6   6  12   57.01    7.68
   6   6  13    2.13    2.51
   6   6  14    9.86    2.96
   6   7 -14   44.14    7.28
   6   7 -13   45.54    7.25
   6   7 -13   31.35    6.01
   6   7 -12   -0.22    3.14
   6   7 -11   63.08    8.23
   6   7 -10  122.54   11.14
   6   7  -9   72.97    8.24
   6   7  -8   22.43    4.61
   6   7  -7   11.19    3.61
   6   7  -6    3.17    2.09
   6   7  -5   49.38    6.17
   6   7  -4   44.23    5.84
   6   7  -3   32.74    4.90
   6   7  -3   29.01    1.76
   6   7  -2   63.52    3.44
   6   7  -2   66.75    6.61
   6   7  -1    3.17    2.09
   6   7  -1    2.22    0.71
   6   7   0   43.39    3.45
   6   7   0   46.72    5.38
   6   7   1   46.25    5.45
   6   7   1   52.27    4.12
   6   7   2  217.05   12.55
   6   7   2  211.31   10.32
   6   7   3   86.97    7.53
   6   7   3  106.58    6.96
   6   7   4  159.54   10.17
   6   7   4  132.68    8.57
   6   7   5    0.30    1.43
   6   7   5    2.37    1.50
   6   7   5   -0.91    1.11
   6   7   6    3.90    1.75
   6   7   6    3.09    1.97
   6   7   6    4.14    1.98
   6   7   7  154.57   10.32
   6   7   7  139.46    8.61
   6   7   7  171.28   10.94
   6   7   8  150.13   10.09
   6   7   8  139.88    8.56
   6   7   8  137.45   10.26
   6   7   9  100.79    8.14
   6   7   9  110.66    7.41
   6   7   9  100.75    9.06
   6   7  10   34.64    4.72
   6   7  10   27.28    3.66
   6   7  10   26.28    4.87
   6   7  11    1.14    1.34
   6   7  11    8.49    3.68
   6   7  12   43.09    4.63
   6   7  12   33.74    5.92
   6   7  13   54.59    7.73
   6   7  14   63.95    8.55
   6   8 -12   20.55    4.73
   6   8 -11  185.41   14.85
   6   8 -10  103.88   10.84
   6   8  -9  125.61   11.61
   6   8  -8   30.70    5.91
   6   8  -7   23.89    4.95
   6   8  -6  215.84   14.57
   6   8  -5  282.85   16.91
   6   8  -4  452.63   22.37
   6   8  -3  269.45   15.79
   6   8  -2    9.18    3.10
   6   8  -1  504.50   23.21
   6   8   0  293.16   11.04
   6   8   0  255.63   15.03
   6   8   1  834.37   27.81
   6   8   1  809.50   32.42
   6   8   2  245.55   11.22
   6   8   2  239.50   13.83
   6   8   3   45.69    5.43
   6   8   3   43.16    4.26
   6   8   4   42.44    5.30
   6   8   4   38.66    4.36
   6   8   5  293.44   15.36
   6   8   5  282.22   14.48
   6   8   6  525.89   23.22
   6   8   6  568.96   23.46
   6   8   7  197.30   12.31
   6   8   8   54.89    5.62
   6   8   8   65.95    6.94
   6   8   9    3.92    1.84
   6   8   9    1.49    1.76
   6   8  10    7.80    2.09
   6   8  10   11.20    3.60
   6   8  11  363.19   17.60
   6   8  11  401.25   21.55
   6   8  12  140.36    9.57
   6   8  12  119.53   11.37
   6   9 -10   26.27    5.74
   6   9  -9   43.71    7.15
   6   9  -8  102.52   10.81
   6   9  -7  205.17   15.06
   6   9  -6   56.04    7.51
   6   9  -5   18.41    4.41
   6   9  -4   83.32    8.89
   6   9  -3   41.89    6.31
   6   9  -2  283.75   16.78
   6   9  -1  111.56    9.68
   6   9   0   36.07    5.32
   6   9   1    3.48    2.35
   6   9   2  170.86   11.74
   6   9   3  110.60    9.06
   6   9   4  130.22    9.94
   6   9   5   30.93    4.75
   6   9   6   64.39    6.61
   6   9   7   27.24    4.41
   6   9   8   79.44    7.35
   6   9   9   70.06    6.98
   6   9  10   31.78    4.70
   6   9  11   61.75    6.72
   6   9  12   -0.48    2.09
   6  10  -8   15.98    4.37
   6  10  -7    2.58    3.03
   6  10  -6   18.91    5.32
   6  10  -5  273.66   18.00
   6  10  -4  160.04   13.48
   6  10  -3  129.64   11.51
   6  10  -2   16.54    4.24
   6  10  -1   75.85    8.36
   6  10   0  152.17   11.91
   6  10   1  284.58   16.73
   6  10   2  195.40   13.27
   6  10   3   41.00    5.64
   6  10   4    0.89    1.76
   6  10   5  258.48   15.20
   6  10   6   53.81    6.25
   6  10   7  184.41   12.12
   6  10   8   54.64    6.18
   6  10   8   48.00    6.28
   6  10   9   12.54    3.07
   6  10  10    0.76    2.26
   6  10  11   68.34    7.76
   6  10  12   61.81    7.26
   6  11  -6   11.79    4.12
   6  11  -5   18.21    4.63
   6  11  -4   33.57    6.52
   6  11  -3   -1.16    2.45
   6  11  -2   18.80    4.91
   6  11  -1    6.62    3.31
   6  11   0   61.57    7.77
   6  11   1    0.14    2.44
   6  11   2   -0.54    2.95
   6  11   3    0.22    2.03
   6  11   4   27.33    5.04
   6  11   5  115.13    9.99
   6  11   6    8.77    3.04
   6  11   7   11.08    3.21
   6  11   8   23.52    4.45
   6  11   8   18.31    4.21
   6  11   9   13.38    4.23
   6  11  10   31.73    6.01
   6  11  11   24.27    5.35
   6  12  -3   83.94   10.00
   6  12  -2   48.99    7.67
   6  12  -1   52.41    7.72
   6  12   0    4.33    3.02
   6  12   1   52.56    7.53
   6  12   2   42.09    6.72
   6  12   3   59.95    7.76
   6  12   4   62.77    7.82
   6  12   5   11.53    3.82
   6  12   6    5.06    3.04
   6  12   7   33.85    5.74
   6  12   8   37.86    6.64
   6  12   9   56.10    8.09
   6  12  10   24.01    5.43
   6  12  11   12.48    4.48
   6  13   0   58.63    8.36
   6  13   1   33.04    6.48
   6  13   2    7.39    3.95
   6  13   3   -3.31    3.11
   6  13   4   -0.61    3.07
   6  13   5   23.03    5.73
   7  -7   1   -8.13    3.81
   7  -7   2   13.47    5.51
   7  -6  -3  154.27   13.63
   7  -6  -2   41.54    7.16
   7  -6  -1    5.40    4.11
   7  -6   0   32.61    6.43
   7  -6   1  130.73   11.85
   7  -6   2  145.17   12.48
   7  -6   3   76.83    8.78
   7  -6   5    9.12    3.54
   7  -6   6   21.38    6.17
   7  -5  -6  143.36   13.25
   7  -5  -5  145.07   13.16
   7  -5  -4  136.70   12.68
   7  -5  -3    2.63    2.87
   7  -5  -2   21.44    5.15
   7  -5  -1  275.51   17.74
   7  -5   0  248.75   16.40
   7  -5   1  245.67   16.16
   7  -5   2   31.90    5.60
   7  -5   3   14.29    4.30
   7  -5   4  113.54    9.83
   7  -5   5  371.01   22.22
   7  -5   6  206.23   15.75
   7  -5   7   49.48    7.45
   7  -5   8   -4.58    2.71
   7  -4  -8   33.52    6.43
   7  -4  -7   22.63    4.92
   7  -4  -6    5.32    3.30
   7  -4  -5   28.95    5.82
   7  -4  -4   34.31    6.25
   7  -4  -3   55.92    7.50
   7  -4  -2    6.09    2.40
   7  -4  -1   53.01    7.07
   7  -4   0    1.00    2.10
   7  -4   1   -1.87    2.30
   7  -4   2   71.13    7.50
   7  -4   3   17.95    3.70
   7  -4   4   52.04    6.11
   7  -4   5   37.24    5.03
   7  -4   5   33.13    5.85
   7  -4   6    4.32    2.95
   7  -4   7    7.17    3.31
   7  -4   8   63.87    8.40
   7  -4   9  125.70   12.06
   7  -4  10   24.28    5.60
   7  -3 -10  290.03   19.67
   7  -3  -9  183.97   14.81
   7  -3  -8    2.23    3.00
   7  -3  -7   11.84    4.06
   7  -3  -6  166.95   13.40
   7  -3  -5  454.71   23.85
   7  -3  -4  442.61   23.07
   7  -3  -3   59.55    7.36
   7  -3  -2   -0.19    1.95
   7  -3  -1  121.12   10.14
   7  -3   0  272.27   15.86
   7  -3   1  422.49   20.72
   7  -3   2  183.89   12.08
   7  -3   3   12.04    3.12
   7  -3   4   -1.34    1.37
   7  -3   5  295.45   15.12
   7  -3   5  307.52   18.51
   7  -3   6  114.60    8.14
   7  -3   6  113.87   10.82
   7  -3   7  105.49   10.42
   7  -3   8   60.09    8.11
   7  -3   9    5.24    3.24
   7  -3  10   24.91    5.10
   7  -3  11   67.99    8.80
   7  -2 -11   39.48    6.97
   7  -2 -10   12.16    4.44
   7  -2  -9   22.50    5.60
   7  -2  -8   80.40    9.30
   7  -2  -7  194.89   14.29
   7  -2  -6  181.71   13.50
   7  -2  -5   89.85    9.07
   7  -2  -4    2.91    2.22
   7  -2  -3  141.54   11.00
   7  -2  -2  280.77   16.10
   7  -2  -1  393.33   19.74
   7  -2   0  121.17    9.47
   7  -2   1    0.97    1.74
   7  -2   2  140.53    9.85
   7  -2   3  155.83   10.18
   7  -2   4   41.46    4.87
   7  -2   5  210.75   11.77
   7  -2   5  243.37   15.39
   7  -2   6    0.62    1.19
   7  -2   6    0.20    2.27
   7  -2   7    3.20    1.49
   7  -2   7    2.57    2.44
   7  -2   8   32.32    5.80
   7  -2   9   10.83    3.99
   7  -2  10   33.71    6.13
   7  -2  11   45.38    7.32
   7  -2  12   29.52    6.05
   7  -1 -13   62.61    8.76
   7  -1 -12    1.94    2.36
   7  -1 -11   16.78    5.25
   7  -1 -10  159.63   13.34
   7  -1  -9  159.17   13.03
   7  -1  -8   72.23    8.56
   7  -1  -7   42.22    6.39
   7  -1  -6    2.82    2.21
   7  -1  -5   69.20    7.51
   7  -1  -4  148.17   11.16
   7  -1  -3  182.35   12.43
   7  -1  -3  204.25   12.10
   7  -1  -2  262.26   14.98
   7  -1  -2  254.41   13.72
   7  -1  -1   98.77    8.32
   7  -1   0    7.89    2.43
   7  -1   1  204.94   12.12
   7  -1   2  627.26   25.43
   7  -1   3  586.65   23.80
   7  -1   4  139.69    9.21
   7  -1   5   57.45    5.21
   7  -1   5   53.86    6.70
   7  -1   6  192.78   10.21
   7  -1   6  213.95   14.16
   7  -1   7  422.01   16.53
   7  -1   7  399.61   21.54
   7  -1   8  479.85   24.33
   7  -1   9  120.68   10.98
   7  -1  10   31.50    5.82
   7  -1  11   16.67    4.37
   7  -1  12  132.22   12.24
   7   0 -14    3.16    4.28
   7   0 -13   21.61    5.18
   7   0 -12  172.55   14.14
   7   0 -11  152.25   12.89
   7   0 -10  137.82   12.12
   7   0  -9    4.34    3.16
   7   0  -8    2.59    2.62
   7   0  -7   62.61    7.39
   7   0  -6  298.84   17.23
   7   0  -5  322.45   17.70
   7   0  -5  325.93   16.63
   7   0  -4   63.98    6.91
   7   0  -4   64.64    6.49
   7   0  -4   66.03    6.55
   7   0  -3   17.80    3.61
   7   0  -3   21.69    3.59
   7   0  -3   14.22    3.31
   7   0  -2   15.72    3.42
   7   0  -2   18.69    3.32
   7   0  -2   18.70    3.63
   7   0  -1  180.53   11.35
   7   0  -1  155.28    9.65
   7   0  -1  198.81   11.88
   7   0   0  168.95   10.79
   7   0   0  175.13    9.55
   7   0   1  273.43   14.20
   7   0   2  100.75    7.57
   7   0   3   15.87    2.94
   7   0   4   22.07    3.31
   7   0   5   73.33    5.74
   7   0   5   78.84    7.79
   7   0   6  158.96    8.68
   7   0   6  158.68   11.85
   7   0   7  152.88    7.93
   7   0   7  142.94   11.38
   7   0   8   10.97    1.66
   7   0   8    7.43    2.96
   7   0   9    0.56    2.32
   7   0  10   12.06    3.66
   7   0  11  151.01   12.72
   7   0  12  151.46   13.20
   7   0  13   51.25    7.61
   7   1 -14   85.16    9.77
   7   1 -13  144.18   12.84
   7   1 -12  166.79   13.60
   7   1 -11  103.29   10.40
   7   1 -10   17.78    4.44
   7   1  -9  227.70   14.95
   7   1  -9  205.66   12.19
   7   1  -8  631.42   28.37
   7   1  -8  608.26   25.15
   7   1  -7  367.30   19.30
   7   1  -7  338.48   16.56
   7   1  -6  329.70   18.15
   7   1  -6  349.77   16.52
   7   1  -5    0.66    1.94
   7   1  -5   -1.05    1.89
   7   1  -4  248.56   14.36
   7   1  -4  235.62   13.21
   7   1  -4  228.74   12.73
   7   1  -3  649.51   27.86
   7   1  -3  694.26   26.87
   7   1  -3  699.07   26.96
   7   1  -2  750.53   30.40
   7   1  -2  771.10   28.83
   7   1  -2  798.22   29.76
   7   1  -1  455.30   20.65
   7   1  -1  456.92   18.86
   7   1  -1  483.88   20.43
   7   1   0    2.34    1.85
   7   1   0    3.00    1.43
   7   1   0    0.16    1.43
   7   1   1   33.29    4.33
   7   1   1   31.74    3.27
   7   1   1   42.36    4.91
   7   1   2  371.79   17.91
   7   1   2  366.49   16.75
   7   1   3  593.22   23.34
   7   1   4  269.03   12.83
   7   1   4  261.47   14.94
   7   1   5  196.32   10.07
   7   1   5  173.78   12.08
   7   1   6   16.00    2.57
   7   1   6   19.85    4.02
   7   1   7  100.46    6.03
   7   1   7   93.80    8.77
   7   1   8  216.98    9.18
   7   1   8  202.08   13.95
   7   1   9  121.33    4.97
   7   1   9  139.85   11.25
   7   1  10   53.14    7.15
   7   1  11   52.90    7.58
   7   1  12   16.97    4.70
   7   1  13   48.96    7.36
   7   2 -15   52.20    7.84
   7   2 -14    6.43    3.26
   7   2 -13    2.83    2.91
   7   2 -12  210.46   15.54
   7   2 -12  236.06   13.04
   7   2 -11  135.27   11.85
   7   2 -11  147.21    9.83
   7   2 -10  111.71   10.40
   7   2 -10  114.75    8.50
   7   2  -9   53.59    5.63
   7   2  -9   52.47    6.90
   7   2  -9   52.58    5.31
   7   2  -8    1.67    1.35
   7   2  -8   -0.58    2.12
   7   2  -8    1.50    1.46
   7   2  -7  123.98   10.29
   7   2  -7  132.57    9.03
   7   2  -7  130.25    8.38
   7   2  -6  278.22   15.91
   7   2  -6  271.32   13.30
   7   2  -5  392.92   19.88
   7   2  -5  402.25   19.17
   7   2  -5  418.67   17.62
   7   2  -4  224.03   13.14
   7   2  -4  176.60   11.14
   7   2  -4  195.52   10.66
   7   2  -3   40.22    5.22
   7   2  -3   30.64    4.06
   7   2  -3   27.54    3.62
   7   2  -2    6.90    2.49
   7   2  -2    6.92    2.67
   7   2  -2    8.80    2.17
   7   2  -1   52.17    5.65
   7   2  -1   50.24    4.64
   7   2  -1   53.68    5.17
   7   2   0  596.20   24.44
   7   2   0  594.46   21.98
   7   2   0  610.35   24.16
   7   2   1  502.90   21.81
   7   2   1  547.27   19.49
   7   2   1  540.13   22.38
   7   2   2  241.19   12.82
   7   2   2  283.85   14.20
   7   2   2  254.37   10.39
   7   2   3    0.64    1.19
   7   2   3    0.97    1.35
   7   2   3    3.20    1.85
   7   2   4   27.80    4.25
   7   2   4   21.85    3.20
   7   2   4   26.78    4.32
   7   2   5   40.45    4.15
   7   2   5   42.97    5.54
   7   2   6  320.23   14.06
   7   2   6  342.24   17.65
   7   2   7  167.62    8.59
   7   2   7  173.18   12.01
   7   2   8   40.55    3.48
   7   2   8   49.93    6.31
   7   2   9    5.80    1.07
   7   2   9    9.82    3.40
   7   2  10    3.61    2.45
   7   2  11    4.70    3.29
   7   2  12   99.46   10.37
   7   2  13   79.15    9.45
   7   2  14   48.01    7.71
   7   3 -15    6.79    4.01
   7   3 -14   21.48    5.26
   7   3 -13   16.11    4.40
   7   3 -12  287.57   18.16
   7   3 -12  288.37   15.75
   7   3 -11   29.78    4.54
   7   3 -11   32.50    5.82
   7   3 -10    5.19    2.28
   7   3 -10    1.64    2.58
   7   3  -9    0.18    1.61
   7   3  -9    1.08    2.41
   7   3  -9    1.93    1.36
   7   3  -8  120.27   10.17
   7   3  -8  121.21    9.02
   7   3  -8  122.63    7.38
   7   3  -7   87.16    8.36
   7   3  -7   93.22    7.73
   7   3  -7   82.22    5.82
   7   3  -6  204.04   13.03
   7   3  -6  199.87   11.82
   7   3  -6  185.68    9.60
   7   3  -5   66.39    6.96
   7   3  -5   66.93    6.38
   7   3  -5   77.22    7.27
   7   3  -5   76.79    5.48
   7   3  -4   13.41    3.09
   7   3  -4    8.30    2.61
   7   3  -4   12.04    2.78
   7   3  -4    9.42    1.99
   7   3  -3   80.60    6.93
   7   3  -3   73.66    5.60
   7   3  -3   70.16    6.27
   7   3  -2  120.87    7.56
   7   3  -2  116.54    7.86
   7   3  -1  143.56    8.45
   7   3  -1  120.08    7.78
   7   3   0  321.65   14.70
   7   3   0  306.33   13.44
   7   3   1  345.17   15.34
   7   3   1  297.26   12.70
   7   3   2   15.36    2.92
   7   3   2   13.24    1.83
   7   3   2   15.71    3.15
   7   3   3  179.87   10.84
   7   3   3  168.03    7.07
   7   3   3  182.03   11.20
   7   3   4  517.82   22.58
   7   3   4  541.29   23.11
   7   3   5  451.52   20.83
   7   3   6  335.34   17.40
   7   3   7    7.03    2.79
   7   3   8   40.78    5.74
   7   3   9  240.83   10.17
   7   3   9  211.73    9.64
   7   3   9  225.70   14.59
   7   3  10  222.44    9.04
   7   3  10  224.17   14.98
   7   3  11  194.73   14.28
   7   3  12   12.12    3.84
   7   3  13    2.86    2.49
   7   3  14   18.83    4.63
   7   4 -15   46.57    7.38
   7   4 -14   61.40    8.34
   7   4 -13   20.81    4.48
   7   4 -13   20.73    4.85
   7   4 -12   34.02    5.22
   7   4 -12   28.48    5.79
   7   4 -11   90.95    9.55
   7   4 -11   83.44    8.02
   7   4 -10   42.68    5.63
   7   4 -10   36.96    5.84
   7   4  -9  190.00   13.48
   7   4  -9  192.76   12.32
   7   4  -8  114.42    9.86
   7   4  -8  105.06    8.61
   7   4  -8  104.07    5.51
   7   4  -7   14.51    3.17
   7   4  -7   13.29    3.45
   7   4  -7   13.47    1.98
   7   4  -6   16.59    3.55
   7   4  -6   16.80    2.11
   7   4  -5  122.28    9.08
   7   4  -5  122.76    6.56
   7   4  -4  159.84   10.41
   7   4  -4  173.87   10.80
   7   4  -4  140.00    7.56
   7   4  -3   64.00    6.25
   7   4  -3   67.74    6.25
   7   4  -3   59.19    4.60
   7   4  -2   51.92    5.70
   7   4  -2   65.79    5.86
   7   4  -2   60.20    4.74
   7   4  -1    2.93    1.77
   7   4  -1    5.44    1.92
   7   4  -1    3.28    1.45
   7   4   0   84.84    7.16
   7   4   0   96.38    6.55
   7   4   0   71.05    5.63
   7   4   1   61.02    5.43
   7   4   1   57.68    4.63
   7   4   1   67.71    5.81
   7   4   2   16.52    2.98
   7   4   2   16.12    2.24
   7   4   2   20.09    3.47
   7   4   3   36.18    4.45
   7   4   3   38.73    3.02
   7   4   3   30.82    4.29
   7   4   4   17.69    3.24
   7   4   4   20.98    1.87
   7   4   4   21.11    3.60
   7   4   5    9.02    2.60
   7   4   5    8.97    2.51
   7   4   6   22.31    3.94
   7   4   7   45.34    5.70
   7   4   8   58.92    6.76
   7   4   9   28.31    3.22
   7   4   9   28.15    4.93
   7   4  10   23.15    2.74
   7   4  10   25.29    4.88
   7   4  11   47.13    6.90
   7   4  12   39.74    6.71
   7   4  13   85.93    9.71
   7   4  14   64.24    8.56
   7   5 -14    0.28    2.99
   7   5 -13   -0.61    2.80
   7   5 -13    4.61    3.85
   7   5 -12   43.27    6.28
   7   5 -12   54.94    7.73
   7   5 -11  153.36   12.41
   7   5 -11  137.52   10.99
   7   5 -10  136.94   11.50
   7   5 -10  138.60   10.77
   7   5  -9  162.98   10.06
   7   5  -9  179.87   12.24
   7   5  -8    7.69    2.69
   7   5  -7    2.22    1.92
   7   5  -6  416.19   19.59
   7   5  -6  388.94   12.55
   7   5  -5  490.04   16.17
   7   5  -5  454.64   21.59
   7   5  -4  388.03   19.11
   7   5  -4  424.28   19.65
   7   5  -4  406.06   14.58
   7   5  -3   50.86    5.84
   7   5  -3   58.71    5.92
   7   5  -3   53.58    3.99
   7   5  -2   21.35    3.72
   7   5  -2   23.82    3.75
   7   5  -2   17.11    2.32
   7   5  -1  185.90    9.29
   7   5  -1  198.83   11.88
   7   5  -1  181.04   10.70
   7   5   0  522.16   20.16
   7   5   0  517.71   22.64
   7   5   0  501.75   20.65
   7   5   0  550.83   20.99
   7   5   1  542.87   21.09
   7   5   1  504.51   22.79
   7   5   1  532.15   20.66
   7   5   1  552.19   21.53
   7   5   2  184.67   10.41
   7   5   2  176.37   11.20
   7   5   2  189.08    9.39
   7   5   2  177.59   10.26
   7   5   3  118.32    8.20
   7   5   3  109.15    6.33
   7   5   3   99.12    7.50
   7   5   4   30.52    2.89
   7   5   4   34.03    4.42
   7   5   5  165.18    7.42
   7   5   5  174.24   10.89
   7   5   6  289.06   10.06
   7   5   6  264.59    9.99
   7   5   6  241.51   14.33
   7   5   7  267.17    9.43
   7   5   7  288.88    9.46
   7   5   7  296.65   15.89
   7   5   8   78.32    6.22
   7   5   8   77.71    7.69
   7   5   9    1.91    1.84
   7   5   9    0.88    1.98
   7   5  10   74.38    5.80
   7   5  10   69.94    7.98
   7   5  11   20.97    4.86
   7   5  12  183.97   14.15
   7   5  13   65.87    8.44
   7   5  14    4.22    2.79
   7   6 -14   56.33    8.15
   7   6 -14   69.48    9.02
   7   6 -13   42.83    6.58
   7   6 -13   40.87    7.03
   7   6 -12   37.88    6.59
   7   6 -12   37.64    6.83
   7   6 -11   10.23    3.71
   7   6 -11   17.75    4.74
   7   6 -10   26.41    5.04
   7   6  -9   79.12    8.33
   7   6  -8   66.00    7.34
   7   6  -8   81.97    5.78
   7   6  -7   10.19    3.27
   7   6  -6   47.76    6.04
   7   6  -5   29.46    4.67
   7   6  -4   17.12    3.68
   7   6  -3   60.48    6.49
   7   6  -3   52.53    5.88
   7   6  -2   30.02    4.57
   7   6  -2   31.10    4.34
   7   6  -2   34.42    3.49
   7   6  -1   53.59    6.05
   7   6  -1   53.26    5.55
   7   6  -1   52.91    4.51
   7   6   0  164.51   10.84
   7   6   0  151.31    9.60
   7   6   0  153.13    8.55
   7   6   1    0.69    1.57
   7   6   1    1.13    1.45
   7   6   1    0.87    0.95
   7   6   2    3.33    1.91
   7   6   2    0.72    1.01
   7   6   3   27.15    4.33
   7   6   3   24.14    3.57
   7   6   4  241.77   12.93
   7   6   5  194.50   11.56
   7   6   6   44.31    5.32
   7   6   7   12.55    1.96
   7   6   7   19.87    3.79
   7   6   8   37.97    4.48
   7   6   8   31.57    2.85
   7   6   8   37.65    5.36
   7   6   9   76.50    6.64
   7   6   9   77.12    4.58
   7   6   9   90.16    8.79
   7   6  10  186.92   10.81
   7   6  10  186.36    8.08
   7   6  10  183.05   13.33
   7   6  11   28.70    5.53
   7   6  12   38.71    6.71
   7   6  13   21.29    5.01
   7   6  14   46.65    7.62
   7   7 -14   14.61    5.15
   7   7 -13    3.06    2.89
   7   7 -13   15.34    4.78
   7   7 -12    3.44    2.70
   7   7 -12   -4.26    3.38
   7   7 -11   58.35    8.03
   7   7 -10   89.98    9.59
   7   7  -9   72.90    8.34
   7   7  -8   60.65    7.55
   7   7  -7   -0.63    2.45
   7   7  -6   13.63    3.44
   7   7  -6   14.40    1.74
   7   7  -5  160.36    7.17
   7   7  -5  173.67   12.12
   7   7  -4  224.78   14.20
   7   7  -4  239.83    9.63
   7   7  -3  220.83    9.26
   7   7  -3  208.12   13.40
   7   7  -2   73.46    7.35
   7   7  -2   66.67    4.49
   7   7  -1   12.76    3.30
   7   7  -1   15.83    2.24
   7   7   0   77.23    7.51
   7   7   0   85.02    5.64
   7   7   1  498.57   21.84
   7   7   1  431.17   17.75
   7   7   2  323.84   16.98
   7   7   2  336.36   14.84
   7   7   3  282.52   15.32
   7   7   3  277.79   13.54
   7   7   4   37.83    5.21
   7   7   4   34.76    4.28
   7   7   5   84.90    7.62
   7   7   5   75.81    6.86
   7   7   6  301.18   15.78
   7   7   7  419.84   19.74
   7   7   7  421.10   17.09
   7   7   7  424.68   20.41
   7   7   8  144.70   10.32
   7   7   8  164.59    8.79
   7   7   8  164.66   11.71
   7   7   9   46.87    5.54
   7   7   9   57.80    4.73
   7   7   9   60.06    7.05
   7   7  10    7.46    1.98
   7   7  10    5.15    2.49
   7   7  11   92.70    9.69
   7   7  12  136.20   12.12
   7   7  13   89.34    9.79
   7   8 -13   38.93    7.58
   7   8 -12   57.07    8.43
   7   8 -11   93.76   10.29
   7   8 -10    4.26    3.52
   7   8  -9   -1.91    3.29
   7   8  -8   26.72    5.34
   7   8  -7  151.79   12.35
   7   8  -6  238.27   15.65
   7   8  -5   13.69    3.89
   7   8  -4    0.20    1.99
   7   8  -3   29.51    4.74
   7   8  -3   26.32    1.55
   7   8  -2   77.60    4.05
   7   8  -2   74.93    7.77
   7   8  -1  204.80   13.48
   7   8  -1  214.58    9.06
   7   8   0   34.05    5.18
   7   8   0   30.26    3.05
   7   8   1    4.65    2.40
   7   8   1    5.69    1.71
   7   8   2   -0.01    1.80
   7   8   2    2.69    1.25
   7   8   3   23.71    4.34
   7   8   3   26.44    3.56
   7   8   4   -0.65    2.32
   7   8   4   -0.09    1.14
   7   8   5   19.04    3.96
   7   8   5   29.25    4.12
   7   8   6   72.61    7.24
   7   8   6   54.61    6.02
   7   8   7   12.68    3.11
   7   8   8    0.39    1.13
   7   8   8   -0.11    1.38
   7   8   9    0.26    1.11
   7   8   9    2.34    2.34
   7   8  10   25.29    3.66
   7   8  10   17.35    4.27
   7   8  11   63.91    8.09
   7   8  12   89.94    9.87
   7   8  13    9.14    3.63
   7   9 -10   37.73    6.69
   7   9  -9   15.39    4.24
   7   9  -8   90.80   10.13
   7   9  -7   60.79    8.00
   7   9  -6  131.49   11.69
   7   9  -5   22.47    5.08
   7   9  -4   47.94    6.83
   7   9  -3  122.96   10.72
   7   9  -2  171.97   12.78
   7   9  -1  186.00   13.18
   7   9   0   15.27    3.74
   7   9   1   11.54    3.40
   7   9   1    8.04    2.19
   7   9   2  230.46   14.18
   7   9   2  198.41   10.22
   7   9   3  235.54   14.55
   7   9   3  235.67   11.93
   7   9   4  179.37   12.25
   7   9   4  167.53   10.14
   7   9   5   41.17    5.69
   7   9   5   37.40    4.70
   7   9   6   -1.86    2.36
   7   9   6    1.37    1.50
   7   9   7   89.70    8.14
   7   9   8  165.75   10.76
   7   9   8  166.02   11.92
   7   9   9  169.25   10.94
   7   9   9  174.55   12.73
   7   9  10   32.25    4.72
   7   9  10   34.31    6.03
   7   9  11    5.08    3.19
   7   9  12   29.79    5.55
   7  10  -8    1.34    2.84
   7  10  -7   60.89    8.36
   7  10  -6    2.06    3.01
   7  10  -5  132.01   12.25
   7  10  -4   41.03    6.92
   7  10  -3   34.44    7.53
   7  10  -2    0.80    2.18
   7  10  -1   50.32    6.99
   7  10   0  104.13    9.92
   7  10   1  108.97   10.03
   7  10   2   84.74    8.62
   7  10   3    9.00    3.28
   7  10   4    9.33    3.09
   7  10   5  130.83   10.67
   7  10   6   94.61    8.96
   7  10   7   60.30    6.97
   7  10   8   31.49    4.86
   7  10   9   11.27    3.27
   7  10  10   -0.13    1.78
   7  11  -5   29.19    6.17
   7  11  -4   13.32    3.98
   7  11  -3   15.17    4.82
   7  11  -2   58.40    8.19
   7  11  -1  102.60   10.38
   7  11   0   52.02    7.34
   7  11   1    4.44    3.27
   7  11   2   30.04    5.71
   7  11   3   66.69    8.06
   7  11   4   24.47    4.91
   7  11   5  199.72   14.08
   7  11   6    5.71    2.65
   7  11   7    1.17    2.31
   7  11   8   55.22    6.92
   7  11   8   55.81    6.98
   7  11   9   65.34    7.86
   7  11  10   51.67    7.06
   7  12  -3    8.56    4.07
   7  12  -2    7.97    3.73
   7  12  -1   16.89    4.83
   7  12   0   12.43    4.00
   7  12   1   46.95    7.42
   7  12   2   17.22    4.53
   7  12   3    5.97    3.44
   7  12   4   -0.22    2.70
   7  12   5    6.75    3.67
   7  12   6   15.98    4.49
   7  12   7    0.52    2.95
   7  12   8   11.24    3.87
   7  12   9    6.77    3.09
   7  12  10   12.13    3.99
   7  13   1   90.12   10.28
   7  13   2   22.08    5.17
   7  13   3    3.20    2.72
   7  13   4   24.21    5.48
   7  13   5   94.37   10.26
   7  13   6   35.90    7.48
   7  13   8    1.71    3.09
   8  -6   1  116.54   11.72
   8  -6   2   85.66   10.21
   8  -5  -3    2.84    2.92
   8  -5  -2   17.39    4.55
   8  -5  -1   89.78   10.02
   8  -5   0   84.46    9.61
   8  -5   1   20.81    5.40
   8  -5   2    2.85    3.49
   8  -5   3   19.42    4.65
   8  -4  -5   37.31    6.66
   8  -4  -4  198.94   15.51
   8  -4  -3  170.55   14.11
   8  -4  -2   32.33    6.23
   8  -4  -1   42.39    6.91
   8  -4   0    2.48    3.20
   8  -4   1   95.87    9.69
   8  -4   2  197.19   14.08
   8  -4   3  129.68   10.79
   8  -4   4   59.86    7.00
   8  -4   5    5.05    3.42
   8  -4   6   33.23    6.42
   8  -3  -7  131.66   12.58
   8  -3  -6   17.17    4.14
   8  -3  -5  105.64   10.73
   8  -3  -4   27.98    5.64
   8  -3  -3   -0.87    3.03
   8  -3  -2   15.35    4.43
   8  -3  -1   12.25    3.84
   8  -3   0   45.70    6.47
   8  -3   1   25.89    4.88
   8  -3   2   32.45    5.19
   8  -3   3    2.28    2.40
   8  -3   4    6.25    2.43
   8  -3   5   31.14    4.61
   8  -3   5   31.01    5.69
   8  -3   6   87.89   10.20
   8  -3   7   32.58    6.13
   8  -3   8   44.72    7.04
   8  -2  -9   41.75    6.99
   8  -2  -8   87.69   10.06
   8  -2  -7  346.62   21.16
   8  -2  -6   31.36    5.99
   8  -2  -5   64.20    8.08
   8  -2  -4   51.19    7.19
   8  -2  -3  172.85   13.08
   8  -2  -2  248.38   15.91
   8  -2  -1  286.46   17.03
   8  -2   0   93.09    8.83
   8  -2   1   -1.29    1.69
   8  -2   2  121.75    9.72
   8  -2   3  287.67   15.78
   8  -2   4   77.20    7.28
   8  -2   5  232.41   13.13
   8  -2   5  234.76   16.30
   8  -2   6   15.65    2.97
   8  -2   6   21.54    5.16
   8  -2   7   40.56    6.82
   8  -2   8   99.12   10.57
   8  -2   9  118.64   11.67
   8  -2  10   43.41    7.19
   8  -1 -10  104.73   11.14
   8  -1  -9   34.33    6.41
   8  -1  -8    6.73    3.60
   8  -1  -7   -4.95    3.25
   8  -1  -6   71.73    8.48
   8  -1  -5  119.30   10.76
   8  -1  -4  216.75   14.72
   8  -1  -3   93.73    9.13
   8  -1  -2   73.68    7.77
   8  -1  -1   27.19    4.69
   8  -1   0   98.99    8.67
   8  -1   1  248.13   14.51
   8  -1   2  307.69   16.28
   8  -1   3  141.91    9.94
   8  -1   4    2.58    1.32
   8  -1   5    6.38    2.27
   8  -1   5    1.84    2.62
   8  -1   6  225.15   12.04
   8  -1   6  234.56   15.96
   8  -1   7  194.39   14.56
   8  -1   8  177.42   14.02
   8  -1   9   11.57    3.85
   8  -1  10    2.38    5.37
   8  -1  11   28.85    6.42
   8   0 -11  230.84   17.01
   8   0 -10   41.39    6.86
   8   0  -9   -0.40    2.45
   8   0  -8   38.81    6.73
   8   0  -7  209.01   15.12
   8   0  -6  330.69   19.33
   8   0  -5  176.68   13.04
   8   0  -4    7.61    3.00
   8   0  -3   27.65    4.84
   8   0  -2  156.57   11.31
   8   0  -2  138.79    9.61
   8   0  -1  485.83   22.53
   8   0  -1  459.72   20.12
   8   0   0  131.65    9.96
   8   0   1  107.57    8.69
   8   0   2    0.67    1.45
   8   0   3   39.37    4.95
   8   0   4  197.14   11.38
   8   0   4  179.78   13.19
   8   0   5  193.36   10.82
   8   0   5  161.06   12.66
   8   0   6  240.84   12.11
   8   0   6  223.96   15.36
   8   0   7   62.31    5.19
   8   0   7   66.82    8.10
   8   0   8    1.61    2.50
   8   0   9   87.52    9.64
   8   0  10   87.79    9.71
   8   0  11  229.84   16.82
   8   1 -12    3.04    2.74
   8   1 -11    7.77    3.49
   8   1 -10   60.45    8.27
   8   1  -9  148.88   12.63
   8   1  -8   91.28    9.64
   8   1  -7   91.23    9.38
   8   1  -6    0.79    2.18
   8   1  -5   27.71    5.12
   8   1  -4  110.14    9.64
   8   1  -3  120.21    9.89
   8   1  -3  130.10    9.32
   8   1  -2  138.86   10.43
   8   1  -2  128.96    9.00
   8   1  -1   65.73    6.71
   8   1  -1   56.80    5.41
   8   1   0   27.68    4.30
   8   1   0   26.98    3.51
   8   1   1   47.82    5.53
   8   1   1   48.43    4.39
   8   1   2  135.01    9.49
   8   1   3  134.13    9.20
   8   1   4   67.66    6.12
   8   1   4   62.97    7.19
   8   1   5   38.96    4.48
   8   1   5   35.18    5.55
   8   1   6   11.15    2.34
   8   1   6   12.09    3.59
   8   1   7   93.28    6.44
   8   1   7  100.78    9.68
   8   1   8  145.40    7.84
   8   1   8  165.69   12.77
   8   1   9   69.95    8.40
   8   1  10   42.68    6.55
   8   1  11    7.24    3.49
   8   1  12   29.27    5.81
   8   2 -13    3.52    2.86
   8   2 -12   92.09   10.29
   8   2 -11  162.60   13.71
   8   2 -10  131.65   12.03
   8   2  -9   71.03    8.69
   8   2  -8   40.54    6.59
   8   2  -8   33.93    4.63
   8   2  -7    2.92    2.51
   8   2  -7    0.59    1.79
   8   2  -6  369.80   19.87
   8   2  -6  350.82   16.86
   8   2  -5  546.26   25.63
   8   2  -5  545.92   22.84
   8   2  -4  490.15   23.13
   8   2  -4  464.54   20.55
   8   2  -3  271.08   15.52
   8   2  -3  256.64   13.80
   8   2  -3  245.18   13.38
   8   2  -2   -1.25    1.64
   8   2  -2   -1.22    1.67
   8   2  -2   -4.86    1.95
   8   2  -1  219.44   12.86
   8   2  -1  174.49   10.18
   8   2  -1  170.91   11.03
   8   2   0  857.71   34.40
   8   2   0  870.30   31.63
   8   2   1  843.26   33.64
   8   2   1  892.90   30.61
   8   2   1  951.40   34.79
   8   2   2  311.41   15.35
   8   2   2  274.68   11.71
   8   2   3    0.64    1.27
   8   2   3    3.23    2.16
   8   2   4  222.35   12.33
   8   2   4  245.58   14.66
   8   2   5  177.94   10.24
   8   2   5  156.42   11.80
   8   2   6  477.00   19.88
   8   2   6  517.20   24.18
   8   2   7  295.63   13.39
   8   2   7  277.51   17.02
   8   2   8   14.61    2.31
   8   2   8   10.79    3.26
   8   2   9   11.94    3.78
   8   2  10   88.57    9.47
   8   2  11  113.34   11.12
   8   2  12   92.37   10.33
   8   3 -13   57.22    8.10
   8   3 -12   98.31   10.69
   8   3 -11    9.63    3.12
   8   3 -11    9.13    3.94
   8   3 -10   27.95    4.63
   8   3 -10   28.77    5.73
   8   3  -9  218.34   15.15
   8   3  -9  188.83   12.42
   8   3  -8  142.81   11.88
   8   3  -8  139.57   10.30
   8   3  -8  146.40    8.90
   8   3  -7   97.94    9.45
   8   3  -7   87.24    8.01
   8   3  -7   95.64    7.04
   8   3  -6   29.79    4.49
   8   3  -6   37.46    5.69
   8   3  -6   22.87    3.37
   8   3  -5   29.07    4.86
   8   3  -5   25.05    3.56
   8   3  -4  127.49   10.24
   8   3  -4  134.28    9.68
   8   3  -4  119.06    8.03
   8   3  -3  228.94   14.03
   8   3  -3  214.60   12.43
   8   3  -3  220.66   11.80
   8   3  -2  118.44    9.56
   8   3  -2  136.56    8.91
   8   3  -2  124.80    8.54
   8   3  -1   82.43    7.65
   8   3  -1   88.05    6.60
   8   3  -1   83.31    6.84
   8   3   0   14.51    3.45
   8   3   0   18.66    3.43
   8   3   0   15.89    2.70
   8   3   1    5.72    1.89
   8   3   1    3.88    1.30
   8   3   2   69.87    6.66
   8   3   2   72.37    4.77
   8   3   3   67.98    4.05
   8   3   3   72.39    7.18
   8   3   4  184.96   12.31
   8   3   5   11.12    2.51
   8   3   5    5.80    2.53
   8   3   6   28.25    3.81
   8   3   6   36.38    5.35
   8   3   7   11.37    2.46
   8   3   7   14.45    3.53
   8   3   8   20.99    2.95
   8   3   8   17.29    4.14
   8   3   9   63.93    4.80
   8   3   9   63.46    7.77
   8   3  10   94.50    9.80
   8   3  11   51.71    7.38
   8   3  12    8.08    3.70
   8   3  13   31.21    6.52
   8   4 -13   -3.15    3.03
   8   4 -12    6.61    3.58
   8   4 -12    8.14    3.58
   8   4 -11   33.23    5.49
   8   4 -11   45.01    7.15
   8   4 -10  130.00   11.92
   8   4 -10  126.34   10.22
   8   4  -9  130.68   11.46
   8   4  -9  111.69    9.42
   8   4  -8   46.04    5.92
   8   4  -8   50.28    6.99
   8   4  -7    5.15    2.21
   8   4  -7    0.42    2.18
   8   4  -7    2.83    1.30
   8   4  -6   28.34    4.62
   8   4  -6   37.70    5.91
   8   4  -6   29.24    3.33
   8   4  -5  232.49   14.01
   8   4  -5  250.18   11.59
   8   4  -4  197.52   12.70
   8   4  -4  208.61   10.46
   8   4  -3  124.75    9.57
   8   4  -3  107.71    8.54
   8   4  -3  123.50    7.72
   8   4  -2   41.99    5.47
   8   4  -2   46.28    4.68
   8   4  -2   36.95    4.57
   8   4  -1   11.92    2.53
   8   4  -1   13.78    3.62
   8   4   0  473.06   20.13
   8   4   0  476.25   19.24
   8   4   1  334.45   15.62
   8   4   1  285.88   13.17
   8   4   1  315.53   15.79
   8   4   2  236.35   12.97
   8   4   2  226.97   10.33
   8   4   2  232.40   13.24
   8   4   3   38.29    4.87
   8   4   3   38.44    3.11
   8   4   3   36.89    4.92
   8   4   4   17.60    1.66
   8   4   4   15.90    3.45
   8   4   5   43.74    5.60
   8   4   6  147.12   10.96
   8   4   7  258.12   15.59
   8   4   8   89.25    8.86
   8   4   9  101.71    9.70
   8   4  10    9.23    3.60
   8   4  11    1.69    2.51
   8   4  12  113.48   11.18
   8   4  13  176.30   14.84
   8   5 -13   27.33    5.74
   8   5 -13   33.53    6.21
   8   5 -12   79.54    8.85
   8   5 -12   81.42    9.65
   8   5 -11   58.49    7.41
   8   5 -11   65.07    8.70
   8   5 -10   64.81    7.61
   8   5 -10   71.39    8.89
   8   5  -9    5.17    2.36
   8   5  -9    4.32    3.39
   8   5  -8   24.68    4.51
   8   5  -8   21.04    4.83
   8   5  -7   82.64    8.19
   8   5  -7   88.05    4.54
   8   5  -6  191.05   12.77
   8   5  -6  191.16    8.35
   8   5  -5  224.66   13.93
   8   5  -5  216.42    9.61
   8   5  -4   30.81    4.86
   8   5  -4   34.54    3.33
   8   5  -3   33.74    4.93
   8   5  -3   39.38    5.05
   8   5  -3   29.94    3.40
   8   5  -2   33.65    5.02
   8   5  -2   31.19    4.40
   8   5  -2   33.74    3.69
   8   5  -1   78.54    7.46
   8   5  -1   68.82    5.67
   8   5  -1   70.24    6.24
   8   5   0  370.04   18.45
   8   5   0  351.00   15.88
   8   5   0  320.64   15.53
   8   5   0  386.54   17.00
   8   5   1   40.48    4.64
   8   5   1   44.05    4.36
   8   5   1   41.91    5.00
   8   5   2    0.98    1.35
   8   5   2    1.10    1.07
   8   5   3   10.86    2.80
   8   5   3    8.37    1.74
   8   5   3    8.44    2.51
   8   5   4   79.59    4.80
   8   5   4   80.03    7.26
   8   5   5   65.89    3.65
   8   5   5   63.18    6.61
   8   5   6   49.92    6.05
   8   5   7    1.83    2.17
   8   5   8    7.72    2.95
   8   5   9    1.01    1.80
   8   5   9   -0.27    2.24
   8   5  10  155.52   12.55
   8   5  11   -0.53    2.53
   8   5  12   68.49    8.59
   8   5  13    7.20    3.10
   8   6 -13   58.30    8.30
   8   6 -13   50.78    7.68
   8   6 -12   38.33    6.75
   8   6 -12   43.97    7.34
   8   6 -11    8.17    4.07
   8   6 -11    4.15    3.38
   8   6 -10   17.75    4.62
   8   6 -10   11.87    4.53
   8   6  -9   62.54    7.69
   8   6  -8  146.82   11.66
   8   6  -7  105.09    9.57
   8   6  -6   96.02    9.04
   8   6  -5   22.01    4.46
   8   6  -4   73.07    7.65
   8   6  -3  263.68   15.55
   8   6  -2  448.56   21.47
   8   6  -2  418.56   20.03
   8   6  -2  445.77   18.33
   8   6  -1  391.26   19.57
   8   6  -1  363.54   17.75
   8   6  -1  399.07   17.05
   8   6   0  167.48   11.64
   8   6   0  156.28   10.05
   8   6   0  173.41    9.96
   8   6   1   88.85    8.24
   8   6   1   87.79    6.86
   8   6   1   81.01    6.68
   8   6   2  319.67   17.23
   8   6   2  328.15   14.69
   8   6   2  310.96   15.35
   8   6   3  477.70   19.11
   8   6   3  504.83   21.50
   8   6   4  383.56   15.54
   8   6   4  381.36   18.27
   8   6   5  110.75    6.25
   8   6   5  100.56    8.43
   8   6   6   36.35    3.04
   8   6   6   30.15    4.70
   8   6   7  193.87    7.77
   8   6   7  194.36    7.84
   8   6   7  201.91   13.15
   8   6   8  111.47    4.31
   8   6   8  131.59   10.55
   8   6   9  119.32    8.58
   8   6   9  133.48   11.19
   8   6  10  120.95   11.03
   8   6  11    6.22    3.68
   8   6  12    3.95    2.88
   8   6  13  112.97   11.39
   8   7 -13   15.15    4.79
   8   7 -13   13.67    4.80
   8   7 -12   27.33    5.74
   8   7 -12   41.79    7.06
   8   7 -11  153.58   13.50
   8   7 -11  158.02   13.30
   8   7 -10  115.69   11.06
   8   7  -9   30.18    5.79
   8   7  -8    6.94    3.13
   8   7  -7  148.39   12.06
   8   7  -6  236.86   15.37
   8   7  -5  166.79   12.38
   8   7  -4   53.65    6.77
   8   7  -4   53.66    4.48
   8   7  -3   -0.30    1.85
   8   7  -3    2.78    1.26
   8   7  -2   30.16    4.94
   8   7  -2   35.02    3.62
   8   7  -1   95.35    8.96
   8   7  -1  124.20    9.34
   8   7  -1  116.98    7.33
   8   7   0  103.20    9.04
   8   7   0   97.03    8.04
   8   7   0  100.29    6.94
   8   7   1   72.82    7.52
   8   7   1   72.73    6.56
   8   7   1   73.67    6.02
   8   7   2   30.77    4.93
   8   7   2   29.29    4.12
   8   7   2   28.17    3.86
   8   7   3    9.07    3.06
   8   7   3    8.52    2.35
   8   7   4    0.72    1.53
   8   7   5   -0.52    1.54
   8   7   6  160.88   11.22
   8   7   7   68.45    4.92
   8   7   7   57.02    6.66
   8   7   8   93.60    5.64
   8   7   8   90.61    8.80
   8   7   9   36.13    6.05
   8   7  10    4.35    2.59
   8   7  11   38.65    6.40
   8   7  12   78.19    9.21
   8   7  13  124.81   12.43
   8   8 -11   16.90    4.79
   8   8 -10   -3.92    3.34
   8   8  -9   12.82    4.07
   8   8  -8   25.90    5.47
   8   8  -7  106.92   10.45
   8   8  -6  102.79   10.09
   8   8  -5   17.80    4.44
   8   8  -4    3.66    3.19
   8   8  -4    7.90    1.35
   8   8  -3   26.94    5.14
   8   8  -3   17.06    2.18
   8   8  -2   93.53    9.06
   8   8  -2   82.79    5.27
   8   8  -1  155.23   12.03
   8   8  -1  186.72    9.07
   8   8   0  136.77   11.01
   8   8   0  152.84    8.48
   8   8   1    2.57    2.10
   8   8   1    6.03    1.86
   8   8   2   45.93    6.20
   8   8   2   37.79    4.29
   8   8   3  171.94   12.22
   8   8   3  168.37   10.26
   8   8   4  166.26   12.31
   8   8   4  191.71   11.44
   8   8   5  116.25    9.87
   8   8   5  109.29    8.73
   8   8   6   62.11    6.73
   8   8   7    9.75    3.17
   8   8   8   93.31    6.66
   8   8   8   91.60    8.82
   8   8   9   68.29    7.88
   8   8  10  103.39   10.29
   8   8  11   23.26    5.40
   8   8  12   17.42    4.53
   8   9  -9   51.30    7.54
   8   9  -8    4.30    3.06
   8   9  -7   -6.13    3.49
   8   9  -6    1.05    3.28
   8   9  -5   78.01    9.05
   8   9  -4   93.94    9.80
   8   9  -3   72.87    8.37
   8   9  -2    2.42    2.62
   8   9  -2   -0.34    0.72
   8   9  -1   21.05    4.78
   8   9  -1   12.34    1.84
   8   9   0   46.02    6.46
   8   9   0   35.72    3.50
   8   9   1   78.88    8.43
   8   9   1   80.51    5.82
   8   9   2   59.90    7.19
   8   9   2   64.51    5.49
   8   9   3   19.14    4.42
   8   9   3   20.12    3.24
   8   9   4    1.36    2.05
   8   9   4    2.29    1.40
   8   9   5   21.80    4.47
   8   9   5   33.02    4.63
   8   9   6   46.66    6.32
   8   9   6   50.33    5.89
   8   9   7   35.82    5.22
   8   9   8   14.07    2.83
   8   9   8   13.31    3.76
   8   9   9    0.41    1.25
   8   9   9    1.09    2.35
   8   9  10   11.36    3.80
   8   9  11   24.25    5.53
   8   9  12   12.42    4.18
   8  10  -7   74.20    9.26
   8  10  -6   27.04    5.58
   8  10  -5   45.95    7.35
   8  10  -4   45.81    7.03
   8  10  -3   15.05    4.46
   8  10  -2    0.96    3.01
   8  10  -1   56.35    7.68
   8  10   0  102.47   10.15
   8  10   1  113.23   10.61
   8  10   2   43.10    6.47
   8  10   2   51.99    4.76
   8  10   3    7.24    3.43
   8  10   3    5.76    2.14
   8  10   4    5.69    2.58
   8  10   4    7.01    2.35
   8  10   5   87.22    9.01
   8  10   5   80.98    7.30
   8  10   6  191.55   13.59
   8  10   6  170.60   11.60
   8  10   7   53.80    6.65
   8  10   8    1.62    1.98
   8  10   8    5.01    2.93
   8  10   9    3.77    3.14
   8  10  10   19.04    4.92
   8  10  11   63.95    8.41
   8  11  -5    9.80    4.07
   8  11  -4   29.30    5.65
   8  11  -3   27.28    5.62
   8  11  -2    2.36    2.50
   8  11  -1    7.21    3.57
   8  11   0    4.07    3.31
   8  11   1    1.38    3.09
   8  11   2   12.65    4.11
   8  11   3   19.95    5.41
   8  11   4   16.04    4.62
   8  11   5   13.28    4.33
   8  11   6   53.69    7.38
   8  11   7    3.87    3.15
   8  11   8   15.84    3.80
   8  12  -2   27.31    6.16
   8  12  -1    8.79    3.36
   8  12   0   66.10    8.92
   8  12   1  104.58   10.80
   8  12   2  102.58   10.88
   8  12   3   53.23    7.81
   8  12   4   -2.32    3.69
   8  12   5   48.75    7.28
   8  12   6   55.58    7.85
   8  12   7  103.50   10.44
   8  12   8   25.11    5.29
   8  13   2    6.45    3.53
   8  13   3    3.14    2.23
   8  13   4   16.37    4.94
   8  13   5   12.44    4.60
   8  13   6    2.64    3.07
   8  13   7    6.76    3.89
   9  -5   1   17.31    5.54
   9  -4  -2    0.30    3.46
   9  -4  -1    4.03    2.69
   9  -4   0   -2.41    3.30
   9  -4   1   69.80    8.70
   9  -4   2   55.71    8.03
   9  -4   3   32.53    5.96
   9  -3  -4   47.29    7.53
   9  -3  -3   -1.40    2.60
   9  -3  -2   80.18    9.49
   9  -3  -1  131.79   11.94
   9  -3   0  187.59   14.29
   9  -3   1   52.54    7.14
   9  -3   2    5.73    3.16
   9  -3   3   33.17    5.87
   9  -3   4   55.50    7.02
   9  -2  -6    3.94    3.03
   9  -2  -5   11.99    4.28
   9  -2  -4   44.05    7.20
   9  -2  -3   40.96    6.81
   9  -2  -2   25.09    5.52
   9  -2  -1   24.09    5.03
   9  -2   0    4.33    2.69
   9  -2   1   18.86    4.64
   9  -2   2   32.02    5.45
   9  -2   3   96.64    8.89
   9  -2   4   17.41    3.93
   9  -2   5   20.43    4.93
   9  -2   6    1.81    2.87
   9  -2   7   18.44    5.14
   9  -1  -8   -7.92    3.59
   9  -1  -7    7.44    3.33
   9  -1  -6  252.23   17.61
   9  -1  -5  261.96   17.67
   9  -1  -4  248.63   16.90
   9  -1  -3   52.63    7.20
   9  -1  -2   -1.92    2.58
   9  -1  -1   89.24    9.20
   9  -1   0  302.75   17.67
   9  -1   1  173.98   12.53
   9  -1   2  164.84   11.89
   9  -1   3   34.39    5.17
   9  -1   4    6.13    2.86
   9  -1   5  135.21    9.80
   9  -1   5  150.71   13.06
   9  -1   6  142.34   12.80
   9  -1   7  123.02   12.05
   9  -1   8   44.76    7.00
   9   0  -9   64.75    8.55
   9   0  -8   62.94    8.69
   9   0  -7   17.64    4.73
   9   0  -6   16.68    4.68
   9   0  -5   -2.25    3.03
   9   0  -4    7.04    3.35
   9   0  -3   61.47    7.69
   9   0  -2   14.85    3.98
   9   0  -1  145.87   11.47
   9   0   0   43.47    5.91
   9   0   1    6.37    2.56
   9   0   2    9.24    2.86
   9   0   3   92.97    8.23
   9   0   4  137.96   10.03
   9   0   4  142.28   12.15
   9   0   5  187.98   12.59
   9   0   5  204.53   15.11
   9   0   6   24.80    3.75
   9   0   6   27.04    5.68
   9   0   7    8.11    3.79
   9   0   8   57.67    8.14
   9   0   9  120.63   11.95
   9   1 -10  120.53   12.15
   9   1  -9  107.47   11.23
   9   1  -8   80.96    9.53
   9   1  -7   53.17    7.59
   9   1  -6   40.59    6.83
   9   1  -5  144.42   12.16
   9   1  -4  241.07   15.98
   9   1  -3  193.43   13.73
   9   1  -2   51.94    6.58
   9   1  -2   42.66    5.32
   9   1  -1    5.18    2.64
   9   1  -1   -2.25    1.81
   9   1   0  167.46   12.05
   9   1   0  183.11   10.53
   9   1   1  242.05   14.52
   9   1   2  295.69   16.22
   9   1   3   81.47    7.56
   9   1   4    3.91    1.80
   9   1   4    3.27    2.05
   9   1   5   18.38    3.67
   9   1   5   19.68    4.80
   9   1   6  113.15    8.25
   9   1   6  131.76   11.74
   9   1   7  223.77   11.79
   9   1   7  235.47   16.30
   9   1   8  104.35   10.67
   9   1   9   36.68    6.51
   9   1  10    2.81    2.62
   9   2 -11  122.05   12.39
   9   2 -10   22.03    5.29
   9   2  -9    2.27    2.36
   9   2  -8   33.98    6.40
   9   2  -7   15.98    4.57
   9   2  -6  174.45   13.66
   9   2  -5   59.32    7.59
   9   2  -4    5.44    2.49
   9   2  -3    1.15    2.47
   9   2  -2   21.01    4.84
   9   2  -2   15.34    3.16
   9   2  -1   26.57    4.89
   9   2  -1   26.94    4.01
   9   2   0   41.82    5.75
   9   2   0   48.40    4.88
   9   2   1   66.56    7.03
   9   2   1   66.92    5.41
   9   2   2   33.77    4.93
   9   2   3    2.17    1.43
   9   2   3    7.06    2.99
   9   2   4   25.85    4.00
   9   2   4   23.60    4.54
   9   2   5   24.19    3.97
   9   2   5   26.59    5.02
   9   2   6   80.73    6.82
   9   2   6   92.03    9.34
   9   2   7   63.45    5.67
   9   2   7   65.66    8.08
   9   2   8    5.53    2.75
   9   2   9   -1.25    2.80
   9   2  10   15.77    4.82
   9   2  11   90.25   10.26
   9   3 -11   24.49    5.50
   9   3 -10    5.54    3.57
   9   3  -9   57.60    8.13
   9   3  -8  148.65   12.94
   9   3  -7   92.07    9.83
   9   3  -6  117.40   10.90
   9   3  -6  118.74    8.58
   9   3  -5    3.97    2.67
   9   3  -5    4.37    2.33
   9   3  -4   33.97    5.73
   9   3  -4   36.03    4.69
   9   3  -3  139.80   11.46
   9   3  -3  166.57   10.58
   9   3  -2  391.85   20.25
   9   3  -2  365.75   17.60
   9   3  -2  377.43   18.12
   9   3  -1  249.37   15.24
   9   3  -1  236.27   12.84
   9   3  -1  278.30   14.72
   9   3   0  107.45    9.19
   9   3   0  106.33    7.47
   9   3   1    9.66    2.86
   9   3   1   11.86    2.43
   9   3   2   91.21    8.18
   9   3   2   92.72    5.86
   9   3   3  224.10   13.45
   9   3   3  241.98    9.83
   9   3   3  242.21   14.98
   9   3   4  504.00   22.11
   9   3   4  489.90   24.03
   9   3   5  148.80   10.07
   9   3   5  163.14   12.21
   9   3   6    5.31    2.32
   9   3   6   10.56    3.52
   9   3   7   77.92    6.68
   9   3   7  115.56   10.46
   9   3   8  203.89   11.02
   9   3   8  213.85   15.19
   9   3   9  157.08   13.14
   9   3  10   96.42   10.54
   9   3  11   24.98    5.53
   9   4 -11   31.12    5.77
   9   4 -11   36.16    6.66
   9   4 -10   75.17    9.32
   9   4 -10   69.27    8.01
   9   4  -9   33.13    5.59
   9   4  -9   44.12    7.07
   9   4  -8    0.87    2.21
   9   4  -8   -3.42    3.39
   9   4  -7   18.10    3.94
   9   4  -7   18.78    4.64
   9   4  -6   75.93    8.92
   9   4  -6   92.05    8.66
   9   4  -6   87.47    6.71
   9   4  -5  212.01   14.88
   9   4  -5  230.04   11.94
   9   4  -4   87.28    8.91
   9   4  -4   86.33    6.85
   9   4  -3   34.94    5.47
   9   4  -3   43.35    4.91
   9   4  -2   22.19    3.60
   9   4  -2   27.15    4.00
   9   4  -1    1.07    1.72
   9   4  -1    0.90    1.83
   9   4   0  219.29   12.74
   9   4   0  218.91   11.57
   9   4   1  331.69   16.55
   9   4   1  295.37   13.60
   9   4   2   34.18    3.49
   9   4   2   38.83    5.32
   9   4   3   20.43    2.34
   9   4   3   18.74    3.78
   9   4   4   -0.01    0.48
   9   4   4   -1.87    2.14
   9   4   5   38.06    5.63
   9   4   6  116.45   10.32
   9   4   7  173.07   13.03
   9   4   8   50.61    5.23
   9   4   8   52.58    7.29
   9   4   9    7.75    2.02
   9   4   9    8.81    3.89
   9   4  10   12.13    4.20
   9   4  11   27.47    5.77
   9   4  12   52.03    7.77
   9   5 -12  141.16   12.32
   9   5 -11   25.75    5.53
   9   5 -11   14.56    4.36
   9   5 -10   23.01    4.88
   9   5 -10   26.22    5.95
   9   5  -9    7.73    3.27
   9   5  -9    2.31    2.78
   9   5  -8   86.56   10.08
   9   5  -8   89.41    8.95
   9   5  -7  123.28   11.50
   9   5  -7  124.91   10.58
   9   5  -6  145.98   12.16
   9   5  -6  127.72   10.77
   9   5  -5   71.16    7.93
   9   5  -5   74.32    5.63
   9   5  -4    4.16    2.75
   9   5  -4    1.24    1.44
   9   5  -3   50.83    6.57
   9   5  -3   51.18    5.04
   9   5  -2  452.25   22.05
   9   5  -2  429.96   18.58
   9   5  -2  428.88   20.00
   9   5  -1    7.88    2.52
   9   5  -1    7.71    2.50
   9   5   0  363.01   17.23
   9   5   0  357.45   16.75
   9   5   0  398.66   18.56
   9   5   1    6.74    2.73
   9   5   1    3.55    1.73
   9   5   1    4.33    2.33
   9   5   2   10.93    2.83
   9   5   2   13.92    2.48
   9   5   2   13.35    3.17
   9   5   3   86.88    5.51
   9   5   3   81.97    7.80
   9   5   4  180.46    7.89
   9   5   4  164.58   11.75
   9   5   5  143.78    5.40
   9   5   5  149.03   11.17
   9   5   6   61.27    7.15
   9   5   7    1.46    1.91
   9   5   8   40.41    6.43
   9   5   9   55.67    7.58
   9   5  10  220.69   15.82
   9   5  11   70.56    8.79
   9   5  12    4.14    2.50
   9   6 -12   -7.22    3.73
   9   6 -11   34.87    6.24
   9   6 -11   41.37    7.02
   9   6 -10   42.47    6.88
   9   6 -10   47.71    7.50
   9   6  -9  104.73   11.04
   9   6  -9  100.95   10.13
   9   6  -8   58.23    7.64
   9   6  -7   26.48    5.01
   9   6  -6    4.30    3.17
   9   6  -5   68.84    7.88
   9   6  -4  140.79    7.58
   9   6  -4  132.54   11.04
   9   6  -3  180.50   12.84
   9   6  -3  165.92    9.02
   9   6  -2   70.83    7.79
   9   6  -2   65.24    5.51
   9   6  -1    4.01    2.29
   9   6  -1    0.81    1.82
   9   6  -1    2.73    1.59
   9   6  -1    2.29    1.42
   9   6   0    3.78    2.77
   9   6   0   11.31    2.69
   9   6   0    5.50    1.91
   9   6   0    4.18    2.00
   9   6   1  271.54   14.05
   9   6   1  252.72   13.18
   9   6   1  261.05   14.21
   9   6   2   70.25    6.72
   9   6   2   71.59    5.90
   9   6   2   69.95    6.78
   9   6   3   70.21    5.45
   9   6   3   71.00    7.00
   9   6   4   11.91    2.15
   9   6   4   12.75    3.28
   9   6   5    1.06    0.83
   9   6   5   -0.70    2.14
   9   6   6   34.18    5.57
   9   6   7  124.90   10.52
   9   6   8   76.87    8.50
   9   6   9    9.33    3.62
   9   6  10   13.74    4.18
   9   6  11   -0.85    2.07
   9   6  12   34.22    6.16
   9   7 -12   25.75    5.40
   9   7 -11   52.27    7.74
   9   7 -10   59.57    8.25
   9   7 -10   62.49    8.63
   9   7  -9   20.52    5.31
   9   7  -8    2.37    2.99
   9   7  -7   21.79    4.93
   9   7  -6  223.65   15.46
   9   7  -5  167.88   13.10
   9   7  -4  150.44   12.16
   9   7  -3   58.03    7.30
   9   7  -3   53.18    5.07
   9   7  -2   14.55    3.99
   9   7  -2   12.21    2.64
   9   7  -1   98.31    9.43
   9   7  -1   86.08    6.90
   9   7   0  392.65   20.89
   9   7   0  397.71   18.96
   9   7   0  396.58   17.92
   9   7   1  259.71   15.81
   9   7   1  216.88   12.74
   9   7   1  260.35   13.47
   9   7   2  112.97   10.25
   9   7   2  111.99    8.15
   9   7   2  113.50    8.60
   9   7   3   10.20    2.64
   9   7   3    8.63    2.65
   9   7   4   62.16    5.45
   9   7   4   67.66    6.83
   9   7   5  136.47    7.83
   9   7   5  129.08   10.06
   9   7   6  306.48   17.23
   9   7   7  139.13   11.09
   9   7   8   22.92    4.87
   9   7   9   22.57    4.92
   9   7  10   72.94    8.79
   9   7  11  100.43   10.63
   9   7  12   84.74   10.06
   9   8 -10   33.74    6.28
   9   8  -9   51.07    7.87
   9   8  -8   43.19    6.96
   9   8  -7   42.30    6.87
   9   8  -6   14.58    4.31
   9   8  -5   31.96    6.00
   9   8  -4   59.82    7.87
   9   8  -4   55.59    4.62
   9   8  -3  100.88   10.18
   9   8  -3  107.22    6.84
   9   8  -2   80.61    8.99
   9   8  -2   81.14    6.04
   9   8  -1   11.64    3.96
   9   8  -1    8.93    2.25
   9   8   0   -2.18    2.63
   9   8   0    0.38    1.40
   9   8   1   50.75    6.93
   9   8   1   54.72    6.33
   9   8   1   52.39    5.24
   9   8   2  116.65   10.39
   9   8   2  123.69    9.09
   9   8   2  117.06    8.43
   9   8   3   44.25    6.54
   9   8   3   49.31    5.56
   9   8   3   54.67    5.77
   9   8   4   46.90    5.21
   9   8   4   46.20    5.61
   9   8   5    3.62    2.03
   9   8   6    0.06    1.91
   9   8   7   20.07    4.28
   9   8   8   12.55    3.54
   9   8   9   34.86    6.05
   9   8  10   12.79    3.97
   9   8  11    8.01    2.65
   9   8  12    3.34    2.62
   9   9  -8   18.43    5.26
   9   9  -7    4.63    2.74
   9   9  -6   40.81    7.06
   9   9  -5   82.29    9.64
   9   9  -4   96.91   10.38
   9   9  -3   49.77    7.42
   9   9  -2   12.06    4.40
   9   9  -1   80.30    9.13
   9   9  -1   70.44    5.32
   9   9   0   44.40    6.57
   9   9   0   41.93    4.28
   9   9   1  122.85   11.03
   9   9   1  107.96    7.65
   9   9   2   62.97    7.85
   9   9   2   77.16    6.55
   9   9   3   15.21    4.22
   9   9   3   12.65    2.85
   9   9   4   -1.46    2.78
   9   9   4    3.94    2.01
   9   9   5   30.88    4.76
   9   9   6   60.40    6.83
   9   9   7   96.18    9.05
   9   9   8   45.67    6.59
   9   9   9    9.79    3.89
   9   9  10    0.31    2.43
   9   9  11   62.02    8.27
   9  10  -6   45.74    7.28
   9  10  -5   -0.47    3.06
   9  10  -4   -0.58    3.19
   9  10  -3    7.89    3.94
   9  10  -2   11.54    4.10
   9  10  -1   63.44    8.23
   9  10   0   12.74    4.29
   9  10   1   10.04    3.80
   9  10   1   14.03    2.60
   9  10   2   29.78    5.96
   9  10   2   21.11    3.39
   9  10   3   20.59    5.02
   9  10   3   18.59    3.37
   9  10   4   18.32    4.79
   9  10   4   21.02    3.50
   9  10   5    3.39    2.91
   9  10   5    0.95    1.57
   9  10   6   22.85    4.20
   9  10   7   -1.39    2.25
   9  10   8    5.48    2.63
   9  10   9   20.17    4.76
   9  10  10    2.67    2.27
   9  10  11   21.43    4.93
   9  11  -3   54.15    8.04
   9  11  -2  116.82   11.75
   9  11  -1    8.09    3.25
   9  11   0   -0.15    2.62
   9  11   1   24.56    5.35
   9  11   2  108.15   11.04
   9  11   3   68.01    8.80
   9  11   4   59.80    8.25
   9  11   5   -1.20    3.45
   9  11   5    2.89    2.10
   9  11   6   -1.92    2.69
   9  11   6   -1.84    1.99
   9  11   7   34.37    5.59
   9  11   8   43.24    6.74
   9  11   9   29.09    5.81
   9  11  10   20.23    5.06
   9  12   0   36.12    6.78
   9  12   1   18.10    4.88
   9  12   2    5.91    2.49
   9  12   3    0.35    2.80
   9  12   4   -4.66    3.01
   9  12   5   40.63    6.83
   9  12   6    0.95    3.04
   9  12   7   21.27    5.19
   9  13   5   45.18    7.83
   9  13   6    4.95    3.79
   9  13   7   -3.98    3.93
  10  -3  -1   22.88    5.69
  10  -3   0    1.06    2.20
  10  -3   1   -1.31    3.63
  10  -3   2    9.77    4.37
  10  -2  -3  144.32   13.20
  10  -2  -2   55.87    8.06
  10  -2  -1   14.51    4.65
  10  -2   0   31.67    6.06
  10  -2   1  121.12   11.49
  10  -2   2  187.79   14.09
  10  -2   3   81.53    9.00
  10  -1  -5   90.38   10.36
  10  -1  -4   31.63    6.17
  10  -1  -3    4.15    3.55
  10  -1  -2   22.98    5.07
  10  -1  -1   51.57    7.51
  10  -1   0   68.63    9.06
  10  -1   1   41.52    6.66
  10  -1   2    2.77    3.10
  10  -1   3    2.84    2.76
  10  -1   4    2.02    2.50
  10  -1   4   -7.52    3.24
  10   0  -6   19.20    4.84
  10   0  -5    0.65    2.67
  10   0  -4   69.54    8.89
  10   0  -3  187.04   14.62
  10   0  -2  172.00   13.74
  10   0  -1  134.29   11.80
  10   0   0   14.50    4.13
  10   0   1   30.36    5.41
  10   0   2  158.74   12.15
  10   0   3  238.53   14.93
  10   0   4   56.11    6.57
  10   0   4   51.13    7.70
  10   0   5   71.27    7.35
  10   0   5   92.29   10.30
  10   0   6   13.17    3.85
  10   1  -7   49.02    7.60
  10   1  -6  127.78   12.17
  10   1  -5   98.81   10.67
  10   1  -4   13.69    4.35
  10   1  -3    1.33    2.52
  10   1  -2   17.62    4.63
  10   1  -1   48.71    6.89
  10   1   0   30.80    5.39
  10   1   1   37.24    5.79
  10   1   2   23.50    4.45
  10   1   3    2.22    1.99
  10   1   4   -1.69    2.30
  10   1   4    1.17    2.72
  10   1   5   -1.94    1.82
  10   1   5    0.98    2.25
  10   1   6   45.02    5.35
  10   1   6   44.09    7.22
  10   1   7   85.36    9.99
  10   1   8   62.51    8.76
  10   2  -8   46.02    7.38
  10   2  -7   53.75    7.98
  10   2  -6  119.74   11.79
  10   2  -5   65.85    8.55
  10   2  -4   -0.59    2.73
  10   2  -3   28.71    5.65
  10   2  -2  107.12   10.31
  10   2  -1  177.94   13.25
  10   2  -1  180.54   11.26
  10   2   0   61.18    7.49
  10   2   0   52.89    5.51
  10   2   1   21.85    4.28
  10   2   2    7.16    2.67
  10   2   3  130.12   10.31
  10   2   3  135.11   11.80
  10   2   4  114.25    9.35
  10   2   4  121.44   11.56
  10   2   5   88.48    7.94
  10   2   5   87.41    9.74
  10   2   6   15.10    3.21
  10   2   6   30.11    5.92
  10   2   7    1.08    1.92
  10   2   8   27.06    5.58
  10   2   9   47.22    7.49
  10   3  -9   38.34    7.10
  10   3  -8   70.11    9.11
  10   3  -7    6.21    3.49
  10   3  -6    1.65    3.24
  10   3  -5   24.20    5.53
  10   3  -4   54.75    7.71
  10   3  -3   65.87    8.13
  10   3  -2   65.82    7.99
  10   3  -1   44.25    6.37
  10   3  -1   40.20    5.05
  10   3   0   14.89    3.83
  10   3   0   15.31    2.86
  10   3   1   45.30    6.23
  10   3   1   49.72    4.77
  10   3   2   78.52    7.90
  10   3   2   73.92    8.26
  10   3   3   48.30    6.10
  10   3   3   46.13    6.69
  10   3   4    3.32    2.13
  10   3   4    2.08    2.76
  10   3   5   14.38    3.34
  10   3   5   14.69    4.44
  10   3   6   12.59    3.02
  10   3   6   15.68    4.31
  10   3   7   27.24    3.98
  10   3   7   25.89    5.46
  10   3   8   29.97    5.88
  10   3   9   21.30    4.79
  10   4  -9   33.70    6.47
  10   4  -8    7.09    3.65
  10   4  -7   11.28    4.27
  10   4  -6  103.35   10.80
  10   4  -5  142.07   12.49
  10   4  -4  116.09   11.11
  10   4  -4  118.53    9.02
  10   4  -3   45.67    6.69
  10   4  -3   36.02    5.09
  10   4  -2    2.20    2.44
  10   4  -1    7.92    3.35
  10   4  -1   10.74    2.92
  10   4   0  201.47   13.54
  10   4   0  158.24   10.01
  10   4   1  304.26   17.62
  10   4   1  311.59   14.32
  10   4   2  247.45   15.38
  10   4   2  270.13   16.37
  10   4   3   25.95    4.76
  10   4   3   23.94    4.63
  10   4   4   15.48    3.64
  10   4   4   21.00    4.50
  10   4   5   73.51    7.38
  10   4   5   79.77    8.87
  10   4   6  257.02   14.86
  10   4   6  315.54   18.65
  10   4   7  173.66   11.34
  10   4   7  201.97   14.77
  10   4   8   53.53    5.61
  10   4   8   57.79    7.93
  10   4   9    2.07    3.27
  10   4  10   40.78    6.84
  10   5 -11   -0.79    3.48
  10   5 -10   22.30    5.47
  10   5  -9   36.64    6.65
  10   5  -9   41.26    7.05
  10   5  -8   66.04    8.53
  10   5  -8   83.68   10.03
  10   5  -7   25.62    5.37
  10   5  -7   32.70    6.29
  10   5  -6    0.28    3.35
  10   5  -6    4.98    3.86
  10   5  -5   11.00    4.14
  10   5  -4   30.04    5.60
  10   5  -3   54.32    5.64
  10   5  -2   87.82    7.52
  10   5  -1   30.80    4.35
  10   5  -1   32.53    4.55
  10   5   0    0.47    1.69
  10   5   0   -0.77    2.00
  10   5   1    0.29    1.79
  10   5   1    3.37    2.27
  10   5   2   26.34    3.36
  10   5   2   32.10    5.23
  10   5   3   93.69    8.91
  10   5   4   86.19    8.95
  10   5   5   55.73    7.30
  10   5   6   13.81    4.00
  10   5   7    9.76    3.62
  10   5   8   50.48    7.35
  10   5   9   63.18    8.33
  10   5  10   58.06    8.03
  10   6 -11   57.89    8.33
  10   6 -10   58.69    8.39
  10   6  -9  129.81   12.91
  10   6  -9  123.81   11.66
  10   6  -8   29.96    6.25
  10   6  -8   36.62    6.84
  10   6  -7    1.49    2.96
  10   6  -7   -0.29    2.50
  10   6  -6   55.53    7.57
  10   6  -5  173.08   13.43
  10   6  -4  204.54   14.89
  10   6  -3   57.34    7.46
  10   6  -2   26.26    4.05
  10   6  -2   27.84    5.45
  10   6  -1   19.93    3.49
  10   6  -1   18.71    3.74
  10   6   0  186.47   11.48
  10   6   0  171.36   10.98
  10   6   0  181.34   12.07
  10   6   1  210.87   12.05
  10   6   1  230.04   13.91
  10   6   2  115.06    7.87
  10   6   2  129.96   10.13
  10   6   3   40.07    5.70
  10   6   4    1.14    1.96
  10   6   5   63.73    7.50
  10   6   6  146.19   11.81
  10   6   7  104.69   10.22
  10   6   8   50.33    7.63
  10   6   9    5.90    2.51
  10   6  10   19.65    5.10
  10   7 -10    0.49    2.97
  10   7  -9   -2.16    2.49
  10   7  -8   27.27    5.84
  10   7  -7   10.42    4.31
  10   7  -6   78.94    9.17
  10   7  -5   35.37    6.40
  10   7  -4    6.51    3.26
  10   7  -3   14.83    4.54
  10   7  -3    3.43    1.88
  10   7  -2    8.40    3.45
  10   7  -2   15.13    3.18
  10   7  -1   70.70    8.51
  10   7  -1   71.12    6.82
  10   7   0  117.08   10.63
  10   7   0   95.36    8.35
  10   7   0   95.21    8.09
  10   7   1   18.52    3.63
  10   7   1   11.50    3.00
  10   7   2    2.14    2.04
  10   7   2    4.03    2.08
  10   7   3    8.13    2.54
  10   7   4   70.14    7.56
  10   7   5   74.67    7.91
  10   7   6    4.31    2.86
  10   7   7    0.19    2.49
  10   7   8    7.84    3.32
  10   7   9   20.82    5.10
  10   7  10   38.01    6.50
  10   8  -9   32.63    6.83
  10   8  -8   40.93    7.00
  10   8  -7   17.12    4.65
  10   8  -6   17.96    4.87
  10   8  -5   15.37    4.43
  10   8  -4   39.39    6.66
  10   8  -3   76.37    9.19
  10   8  -3   78.74    6.46
  10   8  -2   64.85    8.45
  10   8  -2   68.31    6.14
  10   8  -1   18.47    5.25
  10   8  -1   34.92    4.52
  10   8   0   17.98    5.00
  10   8   0   25.17    3.90
  10   8   1   29.53    5.71
  10   8   1   25.22    4.08
  10   8   2   67.17    8.45
  10   8   2   60.60    6.42
  10   8   3  137.07   10.30
  10   8   4  149.69   11.00
  10   8   5   33.63    5.29
  10   8   6    5.70    3.03
  10   8   7   74.63    8.28
  10   8   8  106.34   10.42
  10   8   9   88.46    9.81
  10   8  10   46.51    7.39
  10   9  -7   26.68    6.14
  10   9  -6   60.90    8.46
  10   9  -5   38.58    6.84
  10   9  -4   15.07    4.60
  10   9  -3    2.95    2.75
  10   9  -2    4.38    2.71
  10   9  -1   55.85    7.95
  10   9  -1   63.29    5.68
  10   9   0   50.04    7.42
  10   9   0   43.42    4.83
  10   9   1   26.35    5.66
  10   9   1   34.73    4.52
  10   9   2    7.89    3.74
  10   9   2   14.84    3.24
  10   9   3    5.38    3.21
  10   9   3    0.76    1.66
  10   9   4   -1.67    1.52
  10   9   5   16.42    3.94
  10   9   6   48.98    6.67
  10   9   7   37.49    5.94
  10   9   8   10.16    3.89
  10   9   9    5.50    2.88
  10   9  10    1.55    2.07
  10  10  -4    2.92    2.85
  10  10  -3   24.87    5.77
  10  10  -2   41.54    7.05
  10  10  -1  101.96   10.80
  10  10   0   46.52    7.31
  10  10   1    0.74    2.56
  10  10   2   16.05    4.52
  10  10   2   19.72    3.50
  10  10   3   94.38   10.26
  10  10   3   82.02    7.44
  10  10   4   45.35    7.41
  10  10   4   51.61    5.97
  10  10   5   34.10    5.28
  10  10   6   11.87    3.79
  10  10   7   11.50    3.69
  10  10   8   26.59    5.47
  10  10   9   49.92    7.34
  10  10  10   35.30    6.22
  10  11  -1   -0.45    2.75
  10  11   0   22.50    5.24
  10  11   1   31.26    6.20
  10  11   2   41.13    6.90
  10  11   3   10.02    3.84
  10  11   4   -0.30    2.69
  10  11   5    4.48    3.49
  10  11   6   24.83    4.65
  10  11   7   22.21    5.13
  10  11   8    9.51    3.71
  10  11   9    6.76    3.52
  10  11  10    2.64    2.48
  10  12   3    7.92    4.27
  10  12   4    1.18    2.90
  10  12   5  114.13   11.98
  10  12   6   47.94    7.68
  11  -2   1   64.74    8.79
  11  -1  -1  106.47   11.16
  11  -1   0  118.53   11.78
  11  -1   1   34.94    6.71
  11  -1   2    2.51    2.93
  11  -1   3   65.76    8.59
  11   0  -3   25.10    5.52
  11   0  -2   16.13    4.42
  11   0  -1    3.32    3.00
  11   0   0   -0.93    2.73
  11   0   1    8.83    3.78
  11   0   2   43.85    6.88
  11   0   3   55.31    7.52
  11   0   4    7.72    3.44
  11   1  -4  101.83   11.21
  11   1  -3    7.82    3.92
  11   1  -2    4.14    3.10
  11   1  -1  137.37   12.41
  11   1   0  149.12   12.78
  11   1   1  144.45   12.42
  11   1   2   66.06    8.30
  11   1   3   10.04    3.82
  11   1   3    8.52    3.24
  11   1   4   38.78    5.80
  11   1   4   33.65    6.88
  11   2  -5    4.67    3.39
  11   2  -4   52.59    7.68
  11   2  -3   57.59    8.12
  11   2  -2   34.94    6.35
  11   2  -1   31.93    5.98
  11   2   0    6.21    3.09
  11   2   1   18.20    4.62
  11   2   2   26.59    5.14
  11   2   3   23.92    4.73
  11   2   3   27.46    5.72
  11   2   4   20.86    4.51
  11   2   4   27.70    5.63
  11   2   5   10.28    3.54
  11   2   5   11.80    4.35
  11   2   6    6.50    2.83
  11   3  -6   38.45    6.80
  11   3  -5   94.74   10.69
  11   3  -4  158.30   13.74
  11   3  -3   87.52    9.90
  11   3  -2   29.42    6.09
  11   3  -1   -0.02    2.67
  11   3   0   97.26    9.96
  11   3   1  143.16   12.09
  11   3   2  145.90   11.86
  11   3   2  145.32   12.71
  11   3   3   37.59    5.78
  11   3   3   44.69    6.96
  11   3   4    1.16    2.17
  11   3   4    5.38    3.40
  11   3   5    6.97    3.06
  11   3   5   10.97    4.12
  11   3   6  100.68    8.79
  11   3   6   95.01   10.61
  11   3   7  136.23   12.88
  11   4  -6   55.85    8.25
  11   4  -5   19.20    5.18
  11   4  -4    6.02    3.60
  11   4  -3    0.19    3.02
  11   4  -2   16.90    4.85
  11   4  -1   33.49    6.18
  11   4   0   24.39    5.11
  11   4   1   25.61    5.33
  11   4   1   25.47    5.33
  11   4   2    9.40    3.47
  11   4   2   11.33    3.96
  11   4   3   -0.15    2.21
  11   4   3    4.58    3.22
  11   4   4   59.86    7.18
  11   4   4   52.71    7.55
  11   4   5   18.92    3.88
  11   4   5   33.19    6.32
  11   4   6   51.21    6.29
  11   4   6   62.14    8.16
  11   4   7   23.51    5.10
  11   4   8    3.12    2.30
  11   5  -7   57.34    8.75
  11   5  -6    8.07    3.48
  11   5  -5   15.98    4.98
  11   5  -4   97.05   10.67
  11   5  -3  122.66   11.77
  11   5  -2  120.45   11.59
  11   5  -1   83.69    9.44
  11   5   0   17.60    4.66
  11   5   0   14.30    4.10
  11   5   1   27.18    5.38
  11   5   1   45.00    6.45
  11   5   2   84.00    8.96
  11   5   2   93.40    9.71
  11   5   3   48.93    6.81
  11   5   3   67.98    8.09
  11   5   4   98.93    9.55
  11   5   4  102.20   10.20
  11   5   5    7.57    2.75
  11   5   5    4.21    3.08
  11   5   6   -0.96    2.32
  11   5   6    2.27    2.46
  11   5   7   39.80    5.56
  11   5   7   39.71    6.53
  11   5   8   45.39    7.06
  11   6 -10   24.99    5.74
  11   6  -9    4.79    3.34
  11   6  -8    0.10    2.89
  11   6  -7   32.22    6.24
  11   6  -6   27.49    5.95
  11   6  -6   60.70    8.77
  11   6  -5   64.11    9.09
  11   6  -4    9.56    3.92
  11   6  -1    6.43    2.80
  11   6   0  114.48   10.03
  11   6   1   36.31    5.53
  11   6   2   14.26    4.22
  11   6   3    1.12    2.21
  11   6   4    5.12    3.16
  11   6   5   11.63    4.10
  11   6   6   46.73    6.87
  11   6   7   51.60    7.56
  11   6   8   25.29    5.48
  11   6   9   25.77    5.57
  11   7  -8   27.41    5.74
  11   7  -7   38.14    6.60
  11   7  -6   35.26    6.61
  11   7  -5   32.64    6.42
  11   7  -4   -3.84    3.16
  11   7  -3   56.10    8.13
  11   7  -3   48.81    5.91
  11   7  -2   65.74    7.01
  11   7  -1   52.92    6.50
  11   7   0   77.99    7.87
  11   7   1    6.22    3.14
  11   7   2   41.81    5.95
  11   7   3   65.85    7.64
  11   7   4   86.38    8.95
  11   7   5   42.24    6.37
  11   7   6    0.56    2.78
  11   7   7   21.42    5.07
  11   7   8   31.87    6.13
  11   7   9    8.64    3.38
  11   8  -6   21.88    5.69
  11   8  -5   20.58    5.14
  11   8  -4   26.43    5.87
  11   8  -3    9.14    3.52
  11   8  -3    4.12    2.31
  11   8  -2    0.94    2.73
  11   8  -2    0.83    1.75
  11   8  -1    5.92    3.38
  11   8  -1    0.85    1.44
  11   8   0    0.80    2.49
  11   8   0    0.88    2.13
  11   8   1   24.50    4.39
  11   8   2   17.41    3.96
  11   8   3   30.23    5.15
  11   8   4    6.26    2.96
  11   8   5    4.29    2.68
  11   8   6   23.38    5.09
  11   8   7   40.02    6.50
  11   8   8   31.80    5.98
  11   8   9    9.54    3.44
  11   9  -4   32.94    6.66
  11   9  -3    8.11    3.77
  11   9  -2   -1.58    2.43
  11   9  -1   64.57    8.65
  11   9   0  117.93   11.73
  11   9   0  113.76    8.80
  11   9   1   59.39    8.11
  11   9   1   51.00    5.94
  11   9   2   14.06    3.40
  11   9   3    1.91    1.84
  11   9   4   29.12    5.09
  11   9   5   16.29    4.55
  11   9   6   68.60    8.25
  11   9   7   20.87    5.08
  11   9   8   12.38    4.32
  11   9   9   -8.27    3.51
  11  10  -1   14.71    4.78
  11  10   0    0.39    2.48
  11  10   1    7.59    3.47
  11  10   2   22.96    5.51
  11  10   3   44.90    7.38
  11  10   3   43.83    5.78
  11  10   4   17.96    4.03
  11  10   5    4.88    2.87
  11  10   6    2.01    2.49
  11  10   7    4.17    3.33
  11  10   8   17.71    4.67
  11  10   9    9.22    3.44
  11  11   7   61.38    7.96
  11  11   8   13.53    5.00
  11  11   9    6.56    4.97
  12   0   1   48.32    7.48
  12   0   2   57.98    8.45
  12   1  -1   26.39    6.16
  12   1   0   55.22    7.90
  12   1   1   17.20    5.08
  12   1   2   -1.81    3.39
  12   1   3    0.76    3.26
  12   2  -2  103.45   11.35
  12   2  -1   91.92   10.51
  12   2   0   10.11    4.52
  12   2   1   22.23    5.14
  12   2   2  106.29   10.77
  12   2   3  117.34   11.26
  12   2   4   65.20    8.21
  12   3  -3    0.22    2.71
  12   3  -2    8.17    3.71
  12   3  -1   12.76    4.07
  12   3   0   53.73    7.68
  12   3   1   42.34    7.37
  12   3   2   42.25    6.88
  12   3   2   22.42    5.37
  12   3   3    4.09    2.99
  12   3   3   -3.59    3.00
  12   3   4   11.42    4.37
  12   4  -3   40.35    7.33
  12   4  -2  127.82   12.48
  12   4  -1   91.59   10.52
  12   4   0   45.17    7.38
  12   4   1   -1.39    2.78
  12   4   1   -6.89    3.27
  12   4   2   29.74    6.00
  12   4   2   26.52    5.53
  12   4   3   64.63    8.19
  12   4   3   75.09    9.32
  12   4   4  118.22   10.94
  12   4   4  113.46   11.60
  12   4   5   60.65    7.56
  12   4   5   56.12    8.55
  12   5  -3   17.11    4.68
  12   5  -2   -0.33    2.75
  12   5  -1   -0.46    2.57
  12   5   0   19.24    4.91
  12   5   0   16.11    4.90
  12   5   1   54.52    7.84
  12   5   1   60.83    8.20
  12   5   2   22.17    5.11
  12   5   2   27.77    5.85
  12   5   3    3.70    3.10
  12   5   3    7.19    3.64
  12   5   4    8.15    3.84
  12   5   4    9.48    3.82
  12   5   5    1.78    3.39
  12   5   5    1.91    2.46
  12   5   6   12.32    3.85
  12   5   6   11.97    4.18
  12   6  -3    6.09    3.29
  12   6  -2   47.85    7.79
  12   6  -1   15.23    4.83
  12   6  -1    4.57    3.31
  12   6   0  113.29   11.66
  12   6   0  128.28   11.35
  12   6   1   75.26    9.36
  12   6   1   97.61    9.85
  12   6   2   10.70    4.41
  12   6   2   12.24    3.87
  12   6   3   -1.13    2.80
  12   6   3    2.32    2.85
  12   6   4   16.81    4.82
  12   6   4   30.86    6.04
  12   6   5   62.99    8.03
  12   6   5   80.68    9.34
  12   6   6   62.72    8.08
  12   6   6   54.24    8.04
  12   6   7   20.49    5.45
  12   7  -3   11.26    3.83
  12   7  -2   38.34    6.01
  12   7  -1   11.13    3.66
  12   7   0    0.87    2.94
  12   7   1   26.04    5.23
  12   7   2    5.45    3.53
  12   7   3    6.70    3.35
  12   7   4    6.17    2.89
  12   7   5   15.82    4.43
  12   7   6    0.09    2.30
  12   7   7   16.31    4.36
  12   8  -1    9.25    3.10
  12   8   0   38.18    5.86
  12   8   1   87.62    8.76
  12   8   2   32.11    5.49
  12   8   3   20.04    4.45
  12   8   4   -1.27    3.34
  12   8   5   21.80    5.27
  12   8   6   42.10    6.75
  12   8   7   64.05    8.42
  12   9   1    2.77    2.47
  12   9   2    4.74    3.16
  12   9   3    0.12    2.61
  12   9   4   13.76    4.32
  12   9   5   13.12    4.58
  12   9   6   13.88    4.26
  12   9   7    0.03    2.77
  12   9   8    0.84    2.96
  12  10   5    2.87    2.94
  12  10   6    3.01    3.18
  12  10   7   32.30    6.32
  12  10   8   26.76    6.34
  13   3   1   78.23    9.91
  13   3   2   37.12    6.69
  13   3   3   -1.50    4.11
  13   4   1    8.20    3.21
  13   4   2   21.42    5.45
  13   4   3   18.56    5.25
  13   4   4   -1.16    3.48
  13   5  -1    0.22    1.90
  13   5   0   47.70    8.01
  13   5   0   29.76    6.08
  13   5   1   80.03    9.75
  13   5   1   99.65   10.94
  13   5   2   97.37   10.78
  13   5   3   20.68    4.98
  13   5   4    1.85    3.79
  13   6  -2   56.81    8.08
  13   6  -1   26.43    5.37
  13   6   0   12.55    5.15
  13   6   1    3.20    2.49
  13   6   1  -11.07    4.03
  13   6   2    1.16    2.69
  13   6   2   -3.87    2.74
  13   6   3   11.02    4.00
  13   6   3   10.83    3.77
  13   6   4   19.41    5.36
  13   6   5    8.11    5.86
  13   7  -2   40.64    6.78
  13   7  -1   30.46    6.25
  13   7   0    9.04    4.21
  13   7   1   12.46    4.65
  13   7   1   18.00    5.19
  13   7   2   42.65    7.02
  13   7   3   62.24    8.27
  13   7   4   31.85    6.16
  13   7   5    3.05    3.89
  13   8   0   31.91    5.75
  13   8   1   13.30    4.39
  13   8   2    1.95    3.08
  13   8   3   -1.32    3.04
  13   8   4    0.51    3.16
  13   8   5   14.63    4.91
  13   9   3   47.09    7.28
  13   9   4   64.06    8.72
  13   9   5   39.98    7.00
   0   0   0    0.00    0.00


TITL VVM-94_auto in P1
REM P1 (#1 in standard setting)
CELL 0.71073  10.164275  10.274816  13.605166  83.7195  87.0356  61.7878
ZERR   14.00   0.000281   0.000254   0.000237   0.0017   0.0018   0.0027
LATT -1
SFAC C H N O S Zn
UNIT 14.00 14.00 14.00 14.00 14.00 14.00
REM  CrysAlisPro recorded range (K): Min=291.5; max=292.9; aver:292.2
TEMP 19
TREF
HKLF 4
END
_computing_structure_solution     'SHELXT 2018/2 (Sheldrick, 2018)'
;
_shelx_hkl_checksum   74091

